MODEL 1
REMARK VINA RESULT:      -7.8      0.000      0.000
REMARK  Name = 
REMARK  4 active torsions:
REMARK  status: ('A' for Active; 'I' for Inactive)
REMARK    1  A    between atoms: C_2  and  O_3
REMARK    2  A    between atoms: C_2  and  C_4
REMARK    3  A    between atoms: C_4  and  C_5
REMARK    4  A    between atoms: C_16  and  C_17
REMARK                            x       y       z     vdW  Elec       q    Type
REMARK                         _______ _______ _______ _____ _____    ______ ____
ROOT
ATOM      1  C   UNL     1      -1.312  11.814  22.003  0.00  0.00    +0.000 C 
ATOM      2  C   UNL     1      -1.423  11.004  23.308  0.00  0.00    +0.000 C 
ATOM      3  O   UNL     1      -0.227  10.195  23.432  0.00  0.00    +0.000 OA
ATOM      4  C   UNL     1       0.119   9.964  22.125  0.00  0.00    +0.000 A 
ATOM      5  C   UNL     1       1.015   8.999  21.719  0.00  0.00    +0.000 A 
ATOM      6  C   UNL     1       1.251   8.876  20.352  0.00  0.00    +0.000 A 
ATOM      7  C   UNL     1       0.614   9.731  19.430  0.00  0.00    +0.000 A 
ATOM      8  C   UNL     1      -0.286  10.709  19.867  0.00  0.00    +0.000 A 
ATOM      9  C   UNL     1      -0.511  10.821  21.229  0.00  0.00    +0.000 A 
ATOM     10  O   UNL     1       0.838   9.665  18.078  0.00  0.00    +0.000 OA
ATOM     11  C   UNL     1       2.042   8.941  17.785  0.00  0.00    +0.000 C 
ATOM     12  C   UNL     1       2.095   7.629  18.570  0.00  0.00    +0.000 C 
ATOM     13  O   UNL     1       2.134   7.895  19.981  0.00  0.00    +0.000 OA
ENDROOT
BRANCH  12  14
ATOM     14  C   UNL     1       3.309   6.799  18.186  0.00  0.00    +0.000 A 
ATOM     15  C   UNL     1       4.206   7.224  17.193  0.00  0.00    +0.000 A 
ATOM     16  C   UNL     1       5.314   6.443  16.849  0.00  0.00    +0.000 A 
ATOM     17  C   UNL     1       5.539   5.221  17.485  0.00  0.00    +0.000 A 
ATOM     18 CL   UNL     1       6.926   4.308  17.010  0.00  0.00    +0.000 Cl
ATOM     19  C   UNL     1       4.649   4.780  18.469  0.00  0.00    +0.000 A 
ATOM     20 CL   UNL     1       4.854   3.276  19.296  0.00  0.00    +0.000 Cl
ATOM     21  C   UNL     1       3.541   5.565  18.814  0.00  0.00    +0.000 A 
ENDBRANCH  12  14
BRANCH   1  22
ATOM     22  C   UNL     1      -0.519  13.115  22.187  0.00  0.00    +0.000 C 
BRANCH  22  24
ATOM     23  O   UNL     1      -0.758  14.571  24.101  0.00  0.00    +0.000 OA
ATOM     24  C   UNL     1      -1.240  14.076  23.093  0.00  0.00    +0.000 C 
BRANCH  24  25
ATOM     25  O   UNL     1      -2.504  14.339  22.693  0.00  0.00    +0.000 OA
ATOM     26  H   UNL     1      -3.156  13.653  22.934  0.00  0.00    +0.000 HD
ENDBRANCH  24  25
ENDBRANCH  22  24
ENDBRANCH   1  22
TORSDOF 4
ENDMDL
MODEL 2
REMARK VINA RESULT:      -7.7      0.884      1.408
REMARK  Name = 
REMARK  4 active torsions:
REMARK  status: ('A' for Active; 'I' for Inactive)
REMARK    1  A    between atoms: C_2  and  O_3
REMARK    2  A    between atoms: C_2  and  C_4
REMARK    3  A    between atoms: C_4  and  C_5
REMARK    4  A    between atoms: C_16  and  C_17
REMARK                            x       y       z     vdW  Elec       q    Type
REMARK                         _______ _______ _______ _____ _____    ______ ____
ROOT
ATOM      1  C   UNL     1      -1.115  11.539  21.950  0.00  0.00    +0.000 C 
ATOM      2  C   UNL     1      -1.159  10.720  23.253  0.00  0.00    +0.000 C 
ATOM      3  O   UNL     1       0.057   9.935  23.327  0.00  0.00    +0.000 OA
ATOM      4  C   UNL     1       0.357   9.717  22.006  0.00  0.00    +0.000 A 
ATOM      5  C   UNL     1       1.255   8.774  21.561  0.00  0.00    +0.000 A 
ATOM      6  C   UNL     1       1.442   8.662  20.185  0.00  0.00    +0.000 A 
ATOM      7  C   UNL     1       0.753   9.508  19.293  0.00  0.00    +0.000 A 
ATOM      8  C   UNL     1      -0.149  10.466  19.770  0.00  0.00    +0.000 A 
ATOM      9  C   UNL     1      -0.325  10.566  21.140  0.00  0.00    +0.000 A 
ATOM     10  O   UNL     1       0.926   9.453  17.933  0.00  0.00    +0.000 OA
ATOM     11  C   UNL     1       2.132   8.756  17.589  0.00  0.00    +0.000 C 
ATOM     12  C   UNL     1       2.241   7.441  18.365  0.00  0.00    +0.000 C 
ATOM     13  O   UNL     1       2.330   7.701  19.775  0.00  0.00    +0.000 OA
ENDROOT
BRANCH  12  14
ATOM     14  C   UNL     1       3.456   6.638  17.929  0.00  0.00    +0.000 A 
ATOM     15  C   UNL     1       3.371   5.264  17.653  0.00  0.00    +0.000 A 
ATOM     16  C   UNL     1       4.501   4.542  17.260  0.00  0.00    +0.000 A 
ATOM     17  C   UNL     1       5.738   5.177  17.144  0.00  0.00    +0.000 A 
ATOM     18 CL   UNL     1       7.092   4.224  16.654  0.00  0.00    +0.000 Cl
ATOM     19  C   UNL     1       5.842   6.544  17.425  0.00  0.00    +0.000 A 
ATOM     20 CL   UNL     1       7.339   7.401  17.314  0.00  0.00    +0.000 Cl
ATOM     21  C   UNL     1       4.707   7.266  17.817  0.00  0.00    +0.000 A 
ENDBRANCH  12  14
BRANCH   1  22
ATOM     22  C   UNL     1      -0.341  12.854  22.110  0.00  0.00    +0.000 C 
BRANCH  22  24
ATOM     23  O   UNL     1      -0.754  14.214  24.066  0.00  0.00    +0.000 OA
ATOM     24  C   UNL     1      -1.103  13.841  22.955  0.00  0.00    +0.000 C 
BRANCH  24  25
ATOM     25  O   UNL     1      -2.241  14.277  22.371  0.00  0.00    +0.000 OA
ATOM     26  H   UNL     1      -2.181  15.174  21.990  0.00  0.00    +0.000 HD
ENDBRANCH  24  25
ENDBRANCH  22  24
ENDBRANCH   1  22
TORSDOF 4
ENDMDL
MODEL 3
REMARK VINA RESULT:      -7.5      1.058      1.131
REMARK  Name = 
REMARK  4 active torsions:
REMARK  status: ('A' for Active; 'I' for Inactive)
REMARK    1  A    between atoms: C_2  and  O_3
REMARK    2  A    between atoms: C_2  and  C_4
REMARK    3  A    between atoms: C_4  and  C_5
REMARK    4  A    between atoms: C_16  and  C_17
REMARK                            x       y       z     vdW  Elec       q    Type
REMARK                         _______ _______ _______ _____ _____    ______ ____
ROOT
ATOM      1  C   UNL     1      -1.421  11.930  21.762  0.00  0.00    +0.000 C 
ATOM      2  C   UNL     1      -1.478  11.218  23.125  0.00  0.00    +0.000 C 
ATOM      3  O   UNL     1      -0.251  10.462  23.283  0.00  0.00    +0.000 OA
ATOM      4  C   UNL     1       0.076  10.144  21.989  0.00  0.00    +0.000 A 
ATOM      5  C   UNL     1       0.996   9.182  21.636  0.00  0.00    +0.000 A 
ATOM      6  C   UNL     1       1.209   8.963  20.277  0.00  0.00    +0.000 A 
ATOM      7  C   UNL     1       0.524   9.724  19.309  0.00  0.00    +0.000 A 
ATOM      8  C   UNL     1      -0.401  10.702  19.691  0.00  0.00    +0.000 A 
ATOM      9  C   UNL     1      -0.602  10.909  21.046  0.00  0.00    +0.000 A 
ATOM     10  O   UNL     1       0.722   9.563  17.960  0.00  0.00    +0.000 OA
ATOM     11  C   UNL     1       1.945   8.860  17.695  0.00  0.00    +0.000 C 
ATOM     12  C   UNL     1       2.060   7.614  18.575  0.00  0.00    +0.000 C 
ATOM     13  O   UNL     1       2.118   7.987  19.961  0.00  0.00    +0.000 OA
ENDROOT
BRANCH  12  14
ATOM     14  C   UNL     1       3.294   6.798  18.226  0.00  0.00    +0.000 A 
ATOM     15  C   UNL     1       4.208   7.227  17.250  0.00  0.00    +0.000 A 
ATOM     16  C   UNL     1       5.334   6.459  16.939  0.00  0.00    +0.000 A 
ATOM     17  C   UNL     1       5.562   5.246  17.591  0.00  0.00    +0.000 A 
ATOM     18 CL   UNL     1       6.973   4.350  17.157  0.00  0.00    +0.000 Cl
ATOM     19  C   UNL     1       4.656   4.801  18.559  0.00  0.00    +0.000 A 
ATOM     20 CL   UNL     1       4.863   3.307  19.404  0.00  0.00    +0.000 Cl
ATOM     21  C   UNL     1       3.529   5.573  18.871  0.00  0.00    +0.000 A 
ENDBRANCH  12  14
BRANCH   1  22
ATOM     22  C   UNL     1      -0.671  13.267  21.829  0.00  0.00    +0.000 C 
BRANCH  22  24
ATOM     23  O   UNL     1       0.072  14.642  19.985  0.00  0.00    +0.000 OA
ATOM     24  C   UNL     1      -0.835  14.055  20.557  0.00  0.00    +0.000 C 
BRANCH  24  25
ATOM     25  O   UNL     1      -2.107  14.071  20.099  0.00  0.00    +0.000 OA
ATOM     26  H   UNL     1      -2.302  14.791  19.469  0.00  0.00    +0.000 HD
ENDBRANCH  24  25
ENDBRANCH  22  24
ENDBRANCH   1  22
TORSDOF 4
ENDMDL
MODEL 4
REMARK VINA RESULT:      -7.5      4.418      8.817
REMARK  Name = 
REMARK  4 active torsions:
REMARK  status: ('A' for Active; 'I' for Inactive)
REMARK    1  A    between atoms: C_2  and  O_3
REMARK    2  A    between atoms: C_2  and  C_4
REMARK    3  A    between atoms: C_4  and  C_5
REMARK    4  A    between atoms: C_16  and  C_17
REMARK                            x       y       z     vdW  Elec       q    Type
REMARK                         _______ _______ _______ _____ _____    ______ ____
ROOT
ATOM      1  C   UNL     1       4.026   4.211  17.900  0.00  0.00    +0.000 C 
ATOM      2  C   UNL     1       4.377   3.468  19.201  0.00  0.00    +0.000 C 
ATOM      3  O   UNL     1       3.370   3.799  20.189  0.00  0.00    +0.000 OA
ATOM      4  C   UNL     1       2.988   5.064  19.819  0.00  0.00    +0.000 A 
ATOM      5  C   UNL     1       2.269   5.922  20.620  0.00  0.00    +0.000 A 
ATOM      6  C   UNL     1       1.970   7.182  20.107  0.00  0.00    +0.000 A 
ATOM      7  C   UNL     1       2.367   7.542  18.804  0.00  0.00    +0.000 A 
ATOM      8  C   UNL     1       3.090   6.650  18.005  0.00  0.00    +0.000 A 
ATOM      9  C   UNL     1       3.381   5.401  18.527  0.00  0.00    +0.000 A 
ATOM     10  O   UNL     1       2.070   8.762  18.248  0.00  0.00    +0.000 OA
ATOM     11  C   UNL     1       1.011   9.415  18.961  0.00  0.00    +0.000 C 
ATOM     12  C   UNL     1       1.264   9.376  20.470  0.00  0.00    +0.000 C 
ATOM     13  O   UNL     1       1.268   8.018  20.938  0.00  0.00    +0.000 OA
ENDROOT
BRANCH  12  14
ATOM     14  C   UNL     1       0.209  10.162  21.231  0.00  0.00    +0.000 A 
ATOM     15  C   UNL     1      -0.127   9.849  22.559  0.00  0.00    +0.000 A 
ATOM     16  C   UNL     1      -1.105  10.580  23.240  0.00  0.00    +0.000 A 
ATOM     17  C   UNL     1      -1.770  11.629  22.604  0.00  0.00    +0.000 A 
ATOM     18 CL   UNL     1      -2.967  12.489  23.505  0.00  0.00    +0.000 Cl
ATOM     19  C   UNL     1      -1.454  11.947  21.279  0.00  0.00    +0.000 A 
ATOM     20 CL   UNL     1      -2.239  13.225  20.421  0.00  0.00    +0.000 Cl
ATOM     21  C   UNL     1      -0.472  11.215  20.599  0.00  0.00    +0.000 A 
ENDBRANCH  12  14
BRANCH   1  22
ATOM     22  C   UNL     1       3.011   3.443  17.042  0.00  0.00    +0.000 C 
BRANCH  22  24
ATOM     23  O   UNL     1       1.034   2.721  18.230  0.00  0.00    +0.000 OA
ATOM     24  C   UNL     1       2.184   2.503  17.877  0.00  0.00    +0.000 C 
BRANCH  24  25
ATOM     25  O   UNL     1       2.844   1.375  18.223  0.00  0.00    +0.000 OA
ATOM     26  H   UNL     1       2.530   0.961  19.050  0.00  0.00    +0.000 HD
ENDBRANCH  24  25
ENDBRANCH  22  24
ENDBRANCH   1  22
TORSDOF 4
ENDMDL
MODEL 5
REMARK VINA RESULT:      -7.5      4.366      8.803
REMARK  Name = 
REMARK  4 active torsions:
REMARK  status: ('A' for Active; 'I' for Inactive)
REMARK    1  A    between atoms: C_2  and  O_3
REMARK    2  A    between atoms: C_2  and  C_4
REMARK    3  A    between atoms: C_4  and  C_5
REMARK    4  A    between atoms: C_16  and  C_17
REMARK                            x       y       z     vdW  Elec       q    Type
REMARK                         _______ _______ _______ _____ _____    ______ ____
ROOT
ATOM      1  C   UNL     1       4.182   4.159  18.271  0.00  0.00    +0.000 C 
ATOM      2  C   UNL     1       4.244   3.653  19.724  0.00  0.00    +0.000 C 
ATOM      3  O   UNL     1       3.098   4.190  20.431  0.00  0.00    +0.000 OA
ATOM      4  C   UNL     1       2.871   5.377  19.782  0.00  0.00    +0.000 A 
ATOM      5  C   UNL     1       2.076   6.389  20.272  0.00  0.00    +0.000 A 
ATOM      6  C   UNL     1       1.956   7.543  19.502  0.00  0.00    +0.000 A 
ATOM      7  C   UNL     1       2.605   7.648  18.255  0.00  0.00    +0.000 A 
ATOM      8  C   UNL     1       3.402   6.604  17.774  0.00  0.00    +0.000 A 
ATOM      9  C   UNL     1       3.512   5.462  18.550  0.00  0.00    +0.000 A 
ATOM     10  O   UNL     1       2.492   8.754  17.450  0.00  0.00    +0.000 OA
ATOM     11  C   UNL     1       1.365   9.559  17.826  0.00  0.00    +0.000 C 
ATOM     12  C   UNL     1       1.338   9.786  19.339  0.00  0.00    +0.000 C 
ATOM     13  O   UNL     1       1.170   8.537  20.026  0.00  0.00    +0.000 OA
ENDROOT
BRANCH  12  14
ATOM     14  C   UNL     1       0.215  10.730  19.739  0.00  0.00    +0.000 A 
ATOM     15  C   UNL     1       0.301  11.532  20.888  0.00  0.00    +0.000 A 
ATOM     16  C   UNL     1      -0.745  12.389  21.242  0.00  0.00    +0.000 A 
ATOM     17  C   UNL     1      -1.900  12.452  20.460  0.00  0.00    +0.000 A 
ATOM     18 CL   UNL     1      -3.153  13.531  20.957  0.00  0.00    +0.000 Cl
ATOM     19  C   UNL     1      -2.006  11.651  19.318  0.00  0.00    +0.000 A 
ATOM     20 CL   UNL     1      -3.405  11.665  18.304  0.00  0.00    +0.000 Cl
ATOM     21  C   UNL     1      -0.954  10.796  18.963  0.00  0.00    +0.000 A 
ENDBRANCH  12  14
BRANCH   1  22
ATOM     22  C   UNL     1       3.293   3.279  17.382  0.00  0.00    +0.000 C 
BRANCH  22  24
ATOM     23  O   UNL     1       3.850   1.027  18.062  0.00  0.00    +0.000 OA
ATOM     24  C   UNL     1       3.036   1.938  18.017  0.00  0.00    +0.000 C 
BRANCH  24  25
ATOM     25  O   UNL     1       1.791   1.821  18.530  0.00  0.00    +0.000 OA
ATOM     26  H   UNL     1       1.166   2.511  18.236  0.00  0.00    +0.000 HD
ENDBRANCH  24  25
ENDBRANCH  22  24
ENDBRANCH   1  22
TORSDOF 4
ENDMDL
MODEL 6
REMARK VINA RESULT:      -7.4      4.307      8.719
REMARK  Name = 
REMARK  4 active torsions:
REMARK  status: ('A' for Active; 'I' for Inactive)
REMARK    1  A    between atoms: C_2  and  O_3
REMARK    2  A    between atoms: C_2  and  C_4
REMARK    3  A    between atoms: C_4  and  C_5
REMARK    4  A    between atoms: C_16  and  C_17
REMARK                            x       y       z     vdW  Elec       q    Type
REMARK                         _______ _______ _______ _____ _____    ______ ____
ROOT
ATOM      1  C   UNL     1       4.335   4.343  18.119  0.00  0.00    +0.000 C 
ATOM      2  C   UNL     1       4.430   3.814  19.562  0.00  0.00    +0.000 C 
ATOM      3  O   UNL     1       3.268   4.288  20.287  0.00  0.00    +0.000 OA
ATOM      4  C   UNL     1       2.987   5.478  19.663  0.00  0.00    +0.000 A 
ATOM      5  C   UNL     1       2.155   6.446  20.179  0.00  0.00    +0.000 A 
ATOM      6  C   UNL     1       1.981   7.609  19.432  0.00  0.00    +0.000 A 
ATOM      7  C   UNL     1       2.615   7.764  18.183  0.00  0.00    +0.000 A 
ATOM      8  C   UNL     1       3.450   6.764  17.676  0.00  0.00    +0.000 A 
ATOM      9  C   UNL     1       3.614   5.612  18.428  0.00  0.00    +0.000 A 
ATOM     10  O   UNL     1       2.450   8.880  17.401  0.00  0.00    +0.000 OA
ATOM     11  C   UNL     1       1.294   9.630  17.801  0.00  0.00    +0.000 C 
ATOM     12  C   UNL     1       1.270   9.827  19.318  0.00  0.00    +0.000 C 
ATOM     13  O   UNL     1       1.160   8.559  19.983  0.00  0.00    +0.000 OA
ENDROOT
BRANCH  12  14
ATOM     14  C   UNL     1       0.112  10.716  19.745  0.00  0.00    +0.000 A 
ATOM     15  C   UNL     1      -0.666  11.413  18.807  0.00  0.00    +0.000 A 
ATOM     16  C   UNL     1      -1.723  12.229  19.220  0.00  0.00    +0.000 A 
ATOM     17  C   UNL     1      -2.014  12.371  20.578  0.00  0.00    +0.000 A 
ATOM     18 CL   UNL     1      -3.333  13.396  21.017  0.00  0.00    +0.000 Cl
ATOM     19  C   UNL     1      -1.242  11.691  21.525  0.00  0.00    +0.000 A 
ATOM     20 CL   UNL     1      -1.534  11.821  23.224  0.00  0.00    +0.000 Cl
ATOM     21  C   UNL     1      -0.186  10.871  21.109  0.00  0.00    +0.000 A 
ENDBRANCH  12  14
BRANCH   1  22
ATOM     22  C   UNL     1       3.475   3.445  17.220  0.00  0.00    +0.000 C 
BRANCH  22  24
ATOM     23  O   UNL     1       3.701   1.218  18.134  0.00  0.00    +0.000 OA
ATOM     24  C   UNL     1       3.014   2.213  17.953  0.00  0.00    +0.000 C 
BRANCH  24  25
ATOM     25  O   UNL     1       1.738   2.299  18.390  0.00  0.00    +0.000 OA
ATOM     26  H   UNL     1       1.466   3.194  18.672  0.00  0.00    +0.000 HD
ENDBRANCH  24  25
ENDBRANCH  22  24
ENDBRANCH   1  22
TORSDOF 4
ENDMDL
MODEL 7
REMARK VINA RESULT:      -7.4      4.383      8.937
REMARK  Name = 
REMARK  4 active torsions:
REMARK  status: ('A' for Active; 'I' for Inactive)
REMARK    1  A    between atoms: C_2  and  O_3
REMARK    2  A    between atoms: C_2  and  C_4
REMARK    3  A    between atoms: C_4  and  C_5
REMARK    4  A    between atoms: C_16  and  C_17
REMARK                            x       y       z     vdW  Elec       q    Type
REMARK                         _______ _______ _______ _____ _____    ______ ____
ROOT
ATOM      1  C   UNL     1       4.975   4.823  18.053  0.00  0.00    +0.000 C 
ATOM      2  C   UNL     1       5.013   5.113  16.541  0.00  0.00    +0.000 C 
ATOM      3  O   UNL     1       4.715   6.518  16.350  0.00  0.00    +0.000 OA
ATOM      4  C   UNL     1       3.896   6.801  17.414  0.00  0.00    +0.000 A 
ATOM      5  C   UNL     1       3.112   7.929  17.510  0.00  0.00    +0.000 A 
ATOM      6  C   UNL     1       2.320   8.066  18.648  0.00  0.00    +0.000 A 
ATOM      7  C   UNL     1       2.351   7.096  19.669  0.00  0.00    +0.000 A 
ATOM      8  C   UNL     1       3.162   5.962  19.553  0.00  0.00    +0.000 A 
ATOM      9  C   UNL     1       3.944   5.837  18.417  0.00  0.00    +0.000 A 
ATOM     10  O   UNL     1       1.610   7.204  20.819  0.00  0.00    +0.000 OA
ATOM     11  C   UNL     1       1.154   8.550  21.020  0.00  0.00    +0.000 C 
ATOM     12  C   UNL     1       0.543   9.115  19.736  0.00  0.00    +0.000 C 
ATOM     13  O   UNL     1       1.539   9.192  18.704  0.00  0.00    +0.000 OA
ENDROOT
BRANCH  12  14
ATOM     14  C   UNL     1      -0.046  10.498  19.963  0.00  0.00    +0.000 A 
ATOM     15  C   UNL     1      -0.269  11.387  18.899  0.00  0.00    +0.000 A 
ATOM     16  C   UNL     1      -0.806  12.657  19.129  0.00  0.00    +0.000 A 
ATOM     17  C   UNL     1      -1.121  13.064  20.427  0.00  0.00    +0.000 A 
ATOM     18 CL   UNL     1      -1.781  14.646  20.638  0.00  0.00    +0.000 Cl
ATOM     19  C   UNL     1      -0.896  12.194  21.498  0.00  0.00    +0.000 A 
ATOM     20 CL   UNL     1      -1.252  12.627  23.133  0.00  0.00    +0.000 Cl
ATOM     21  C   UNL     1      -0.361  10.921  21.265  0.00  0.00    +0.000 A 
ENDBRANCH  12  14
BRANCH   1  22
ATOM     22  C   UNL     1       6.307   5.142  18.744  0.00  0.00    +0.000 C 
BRANCH  22  24
ATOM     23  O   UNL     1       8.105   4.205  17.428  0.00  0.00    +0.000 OA
ATOM     24  C   UNL     1       7.445   5.179  17.758  0.00  0.00    +0.000 C 
BRANCH  24  25
ATOM     25  O   UNL     1       7.687   6.416  17.270  0.00  0.00    +0.000 OA
ATOM     26  H   UNL     1       7.972   7.066  17.940  0.00  0.00    +0.000 HD
ENDBRANCH  24  25
ENDBRANCH  22  24
ENDBRANCH   1  22
TORSDOF 4
ENDMDL
MODEL 8
REMARK VINA RESULT:      -7.4      0.732      1.516
REMARK  Name = 
REMARK  4 active torsions:
REMARK  status: ('A' for Active; 'I' for Inactive)
REMARK    1  A    between atoms: C_2  and  O_3
REMARK    2  A    between atoms: C_2  and  C_4
REMARK    3  A    between atoms: C_4  and  C_5
REMARK    4  A    between atoms: C_16  and  C_17
REMARK                            x       y       z     vdW  Elec       q    Type
REMARK                         _______ _______ _______ _____ _____    ______ ____
ROOT
ATOM      1  C   UNL     1      -1.244  11.725  22.021  0.00  0.00    +0.000 C 
ATOM      2  C   UNL     1      -1.380  10.935  23.335  0.00  0.00    +0.000 C 
ATOM      3  O   UNL     1      -0.188  10.126  23.494  0.00  0.00    +0.000 OA
ATOM      4  C   UNL     1       0.182   9.875  22.197  0.00  0.00    +0.000 A 
ATOM      5  C   UNL     1       1.084   8.904  21.822  0.00  0.00    +0.000 A 
ATOM      6  C   UNL     1       1.345   8.760  20.462  0.00  0.00    +0.000 A 
ATOM      7  C   UNL     1       0.727   9.602  19.516  0.00  0.00    +0.000 A 
ATOM      8  C   UNL     1      -0.179  10.587  19.921  0.00  0.00    +0.000 A 
ATOM      9  C   UNL     1      -0.430  10.720  21.276  0.00  0.00    +0.000 A 
ATOM     10  O   UNL     1       0.976   9.514  18.169  0.00  0.00    +0.000 OA
ATOM     11  C   UNL     1       2.185   8.785  17.909  0.00  0.00    +0.000 C 
ATOM     12  C   UNL     1       2.220   7.485  18.715  0.00  0.00    +0.000 C 
ATOM     13  O   UNL     1       2.234   7.772  20.122  0.00  0.00    +0.000 OA
ENDROOT
BRANCH  12  14
ATOM     14  C   UNL     1       3.441   6.648  18.366  0.00  0.00    +0.000 A 
ATOM     15  C   UNL     1       4.126   5.904  19.339  0.00  0.00    +0.000 A 
ATOM     16  C   UNL     1       5.250   5.145  18.999  0.00  0.00    +0.000 A 
ATOM     17  C   UNL     1       5.713   5.124  17.683  0.00  0.00    +0.000 A 
ATOM     18 CL   UNL     1       7.107   4.166  17.334  0.00  0.00    +0.000 Cl
ATOM     19  C   UNL     1       5.047   5.867  16.703  0.00  0.00    +0.000 A 
ATOM     20 CL   UNL     1       5.564   5.899  15.054  0.00  0.00    +0.000 Cl
ATOM     21  C   UNL     1       3.919   6.625  17.046  0.00  0.00    +0.000 A 
ENDBRANCH  12  14
BRANCH   1  22
ATOM     22  C   UNL     1      -0.452  13.027  22.199  0.00  0.00    +0.000 C 
BRANCH  22  24
ATOM     23  O   UNL     1      -2.455  14.109  23.013  0.00  0.00    +0.000 OA
ATOM     24  C   UNL     1      -1.234  14.043  22.989  0.00  0.00    +0.000 C 
BRANCH  24  25
ATOM     25  O   UNL     1      -0.451  14.906  23.673  0.00  0.00    +0.000 OA
ATOM     26  H   UNL     1       0.508  14.742  23.581  0.00  0.00    +0.000 HD
ENDBRANCH  24  25
ENDBRANCH  22  24
ENDBRANCH   1  22
TORSDOF 4
ENDMDL
MODEL 9
REMARK VINA RESULT:      -7.3      1.220      1.719
REMARK  Name = 
REMARK  4 active torsions:
REMARK  status: ('A' for Active; 'I' for Inactive)
REMARK    1  A    between atoms: C_2  and  O_3
REMARK    2  A    between atoms: C_2  and  C_4
REMARK    3  A    between atoms: C_4  and  C_5
REMARK    4  A    between atoms: C_16  and  C_17
REMARK                            x       y       z     vdW  Elec       q    Type
REMARK                         _______ _______ _______ _____ _____    ______ ____
ROOT
ATOM      1  C   UNL     1      -1.362  11.838  21.735  0.00  0.00    +0.000 C 
ATOM      2  C   UNL     1      -1.447  11.153  23.111  0.00  0.00    +0.000 C 
ATOM      3  O   UNL     1      -0.226  10.398  23.309  0.00  0.00    +0.000 OA
ATOM      4  C   UNL     1       0.127  10.054  22.028  0.00  0.00    +0.000 A 
ATOM      5  C   UNL     1       1.052   9.084  21.713  0.00  0.00    +0.000 A 
ATOM      6  C   UNL     1       1.292   8.838  20.364  0.00  0.00    +0.000 A 
ATOM      7  C   UNL     1       0.629   9.581  19.367  0.00  0.00    +0.000 A 
ATOM      8  C   UNL     1      -0.302  10.567  19.711  0.00  0.00    +0.000 A 
ATOM      9  C   UNL     1      -0.531  10.802  21.057  0.00  0.00    +0.000 A 
ATOM     10  O   UNL     1       0.854   9.393  18.026  0.00  0.00    +0.000 OA
ATOM     11  C   UNL     1       2.081   8.683  17.799  0.00  0.00    +0.000 C 
ATOM     12  C   UNL     1       2.175   7.454  18.706  0.00  0.00    +0.000 C 
ATOM     13  O   UNL     1       2.206   7.855  20.085  0.00  0.00    +0.000 OA
ENDROOT
BRANCH  12  14
ATOM     14  C   UNL     1       3.415   6.630  18.399  0.00  0.00    +0.000 A 
ATOM     15  C   UNL     1       4.098   5.925  19.403  0.00  0.00    +0.000 A 
ATOM     16  C   UNL     1       5.240   5.177  19.101  0.00  0.00    +0.000 A 
ATOM     17  C   UNL     1       5.724   5.129  17.793  0.00  0.00    +0.000 A 
ATOM     18 CL   UNL     1       7.140   4.186  17.491  0.00  0.00    +0.000 Cl
ATOM     19  C   UNL     1       5.061   5.833  16.783  0.00  0.00    +0.000 A 
ATOM     20 CL   UNL     1       5.603   5.830  15.142  0.00  0.00    +0.000 Cl
ATOM     21  C   UNL     1       3.915   6.579  17.087  0.00  0.00    +0.000 A 
ENDBRANCH  12  14
BRANCH   1  22
ATOM     22  C   UNL     1      -0.610  13.175  21.791  0.00  0.00    +0.000 C 
BRANCH  22  24
ATOM     23  O   UNL     1      -0.499  15.140  20.389  0.00  0.00    +0.000 OA
ATOM     24  C   UNL     1      -1.082  14.117  20.716  0.00  0.00    +0.000 C 
BRANCH  24  25
ATOM     25  O   UNL     1      -2.243  13.733  20.142  0.00  0.00    +0.000 OA
ATOM     26  H   UNL     1      -3.045  14.011  20.625  0.00  0.00    +0.000 HD
ENDBRANCH  24  25
ENDBRANCH  22  24
ENDBRANCH   1  22
TORSDOF 4
ENDMDL
