MODEL 1
REMARK VINA RESULT:      -7.0      0.000      0.000
REMARK  Name = 
REMARK  8 active torsions:
REMARK  status: ('A' for Active; 'I' for Inactive)
REMARK    1  A    between atoms: C_1  and  O_2
REMARK    2  A    between atoms: O_2  and  C_3
REMARK    3  A    between atoms: C_7  and  C_8
REMARK    4  A    between atoms: C_8  and  N_9
REMARK    5  A    between atoms: C_10  and  C_12
REMARK    6  A    between atoms: C_14  and  O_15
REMARK    7  A    between atoms: C_18  and  O_19
REMARK    8  A    between atoms: O_19  and  C_20
REMARK                            x       y       z     vdW  Elec       q    Type
REMARK                         _______ _______ _______ _____ _____    ______ ____
ROOT
ATOM      1  N   UNL     1       4.324   3.906  18.969  0.00  0.00    +0.000 N 
ATOM      2  C   UNL     1       4.209   2.808  19.803  0.00  0.00    +0.000 C 
ATOM      3  O   UNL     1       5.170   2.200  20.279  0.00  0.00    +0.000 OA
ATOM      4  H   UNL     1       3.490   4.378  18.650  0.00  0.00    +0.000 HD
ENDROOT
BRANCH   2   5
ATOM      5  C   UNL     1       2.750   2.361  20.046  0.00  0.00    +0.000 C 
ATOM      6  C   UNL     1       2.269   2.825  21.416  0.00  0.00    +0.000 C 
ATOM      7  C   UNL     1       1.625   4.168  21.125  0.00  0.00    +0.000 C 
ATOM      8  C   UNL     1       0.997   3.962  19.752  0.00  0.00    +0.000 C 
ATOM      9  N   UNL     1       1.842   2.978  19.050  0.00  0.00    +0.000 NA
ATOM     10  H   UNL     1       2.414   3.467  18.353  0.00  0.00    +0.000 HD
BRANCH   7  11
ATOM     11  O   UNL     1       2.606   5.202  21.097  0.00  0.00    +0.000 OA
ATOM     12  H   UNL     1       2.789   5.482  22.018  0.00  0.00    +0.000 HD
ENDBRANCH   7  11
ENDBRANCH   2   5
BRANCH   1  13
ATOM     13  C   UNL     1       5.590   4.490  18.573  0.00  0.00    +0.000 C 
BRANCH  13  18
ATOM     14  C   UNL     1       7.048   4.970  15.042  0.00  0.00    +0.000 A 
ATOM     15  C   UNL     1       6.153   4.172  14.311  0.00  0.00    +0.000 A 
ATOM     16  C   UNL     1       5.087   3.538  14.940  0.00  0.00    +0.000 A 
ATOM     17  C   UNL     1       4.928   3.661  16.312  0.00  0.00    +0.000 A 
ATOM     18  C   UNL     1       5.850   4.395  17.082  0.00  0.00    +0.000 A 
ATOM     19  C   UNL     1       6.944   5.035  16.449  0.00  0.00    +0.000 A 
BRANCH  14  21
ATOM     20  C   UNL     1       8.105   5.396  12.973  0.00  0.00    +0.000 C 
ATOM     21  O   UNL     1       8.024   5.664  14.380  0.00  0.00    +0.000 OA
ENDBRANCH  14  21
BRANCH  19  22
ATOM     22  O   UNL     1       7.777   5.701  17.316  0.00  0.00    +0.000 OA
ATOM     23  C   UNL     1       7.599   7.094  17.533  0.00  0.00    +0.000 C 
ENDBRANCH  19  22
ENDBRANCH  13  18
ENDBRANCH   1  13
TORSDOF 6
ENDMDL
MODEL 2
REMARK VINA RESULT:      -6.8      2.439      6.577
REMARK  Name = 
REMARK  8 active torsions:
REMARK  status: ('A' for Active; 'I' for Inactive)
REMARK    1  A    between atoms: C_1  and  O_2
REMARK    2  A    between atoms: O_2  and  C_3
REMARK    3  A    between atoms: C_7  and  C_8
REMARK    4  A    between atoms: C_8  and  N_9
REMARK    5  A    between atoms: C_10  and  C_12
REMARK    6  A    between atoms: C_14  and  O_15
REMARK    7  A    between atoms: C_18  and  O_19
REMARK    8  A    between atoms: O_19  and  C_20
REMARK                            x       y       z     vdW  Elec       q    Type
REMARK                         _______ _______ _______ _____ _____    ______ ____
ROOT
ATOM      1  N   UNL     1       4.986   4.767  16.907  0.00  0.00    +0.000 N 
ATOM      2  C   UNL     1       5.559   5.954  16.488  0.00  0.00    +0.000 C 
ATOM      3  O   UNL     1       4.924   6.892  16.000  0.00  0.00    +0.000 OA
ATOM      4  H   UNL     1       5.566   4.059  17.335  0.00  0.00    +0.000 HD
ENDROOT
BRANCH   2   5
ATOM      5  C   UNL     1       7.098   5.988  16.629  0.00  0.00    +0.000 C 
ATOM      6  C   UNL     1       7.507   6.828  17.832  0.00  0.00    +0.000 C 
ATOM      7  C   UNL     1       7.600   5.811  18.955  0.00  0.00    +0.000 C 
ATOM      8  C   UNL     1       8.131   4.567  18.253  0.00  0.00    +0.000 C 
ATOM      9  N   UNL     1       7.630   4.624  16.867  0.00  0.00    +0.000 NA
ATOM     10  H   UNL     1       6.859   3.956  16.763  0.00  0.00    +0.000 HD
BRANCH   7  11
ATOM     11  O   UNL     1       6.318   5.576  19.531  0.00  0.00    +0.000 OA
ATOM     12  H   UNL     1       5.731   6.326  19.299  0.00  0.00    +0.000 HD
ENDBRANCH   7  11
ENDBRANCH   2   5
BRANCH   1  13
ATOM     13  C   UNL     1       3.565   4.490  16.845  0.00  0.00    +0.000 C 
BRANCH  13  18
ATOM     14  C   UNL     1       1.568   3.858  20.076  0.00  0.00    +0.000 A 
ATOM     15  C   UNL     1       1.558   5.160  20.600  0.00  0.00    +0.000 A 
ATOM     16  C   UNL     1       2.140   6.213  19.904  0.00  0.00    +0.000 A 
ATOM     17  C   UNL     1       2.776   5.969  18.696  0.00  0.00    +0.000 A 
ATOM     18  C   UNL     1       2.866   4.663  18.180  0.00  0.00    +0.000 A 
ATOM     19  C   UNL     1       2.283   3.584  18.888  0.00  0.00    +0.000 A 
BRANCH  14  21
ATOM     20  C   UNL     1       1.515   2.423  21.951  0.00  0.00    +0.000 C 
ATOM     21  O   UNL     1       0.897   2.863  20.733  0.00  0.00    +0.000 OA
ENDBRANCH  14  21
BRANCH  19  22
ATOM     22  O   UNL     1       2.458   2.362  18.286  0.00  0.00    +0.000 OA
ATOM     23  C   UNL     1       3.537   1.528  18.687  0.00  0.00    +0.000 C 
ENDBRANCH  19  22
ENDBRANCH  13  18
ENDBRANCH   1  13
TORSDOF 6
ENDMDL
MODEL 3
REMARK VINA RESULT:      -6.8      1.390      1.820
REMARK  Name = 
REMARK  8 active torsions:
REMARK  status: ('A' for Active; 'I' for Inactive)
REMARK    1  A    between atoms: C_1  and  O_2
REMARK    2  A    between atoms: O_2  and  C_3
REMARK    3  A    between atoms: C_7  and  C_8
REMARK    4  A    between atoms: C_8  and  N_9
REMARK    5  A    between atoms: C_10  and  C_12
REMARK    6  A    between atoms: C_14  and  O_15
REMARK    7  A    between atoms: C_18  and  O_19
REMARK    8  A    between atoms: O_19  and  C_20
REMARK                            x       y       z     vdW  Elec       q    Type
REMARK                         _______ _______ _______ _____ _____    ______ ____
ROOT
ATOM      1  N   UNL     1       4.508   4.500  19.391  0.00  0.00    +0.000 N 
ATOM      2  C   UNL     1       3.288   4.957  19.857  0.00  0.00    +0.000 C 
ATOM      3  O   UNL     1       2.920   6.132  19.790  0.00  0.00    +0.000 OA
ATOM      4  H   UNL     1       4.723   3.514  19.445  0.00  0.00    +0.000 HD
ENDROOT
BRANCH   2   5
ATOM      5  C   UNL     1       2.432   3.865  20.538  0.00  0.00    +0.000 C 
ATOM      6  C   UNL     1       0.975   3.981  20.108  0.00  0.00    +0.000 C 
ATOM      7  C   UNL     1       0.888   3.057  18.907  0.00  0.00    +0.000 C 
ATOM      8  C   UNL     1       1.838   1.923  19.274  0.00  0.00    +0.000 C 
ATOM      9  N   UNL     1       2.886   2.514  20.126  0.00  0.00    +0.000 NA
ATOM     10  H   UNL     1       3.745   2.618  19.575  0.00  0.00    +0.000 HD
BRANCH   7  11
ATOM     11  O   UNL     1       1.312   3.727  17.723  0.00  0.00    +0.000 OA
ATOM     12  H   UNL     1       1.738   3.072  17.131  0.00  0.00    +0.000 HD
ENDBRANCH   7  11
ENDBRANCH   2   5
BRANCH   1  13
ATOM     13  C   UNL     1       5.492   5.344  18.744  0.00  0.00    +0.000 C 
BRANCH  13  18
ATOM     14  C   UNL     1       6.987   5.079  15.205  0.00  0.00    +0.000 A 
ATOM     15  C   UNL     1       6.064   4.190  14.630  0.00  0.00    +0.000 A 
ATOM     16  C   UNL     1       4.970   3.731  15.355  0.00  0.00    +0.000 A 
ATOM     17  C   UNL     1       4.809   4.122  16.676  0.00  0.00    +0.000 A 
ATOM     18  C   UNL     1       5.756   4.953  17.302  0.00  0.00    +0.000 A 
ATOM     19  C   UNL     1       6.878   5.418  16.572  0.00  0.00    +0.000 A 
BRANCH  14  21
ATOM     20  C   UNL     1       7.926   5.247  13.045  0.00  0.00    +0.000 C 
ATOM     21  O   UNL     1       7.994   5.594  14.435  0.00  0.00    +0.000 OA
ENDBRANCH  14  21
BRANCH  19  22
ATOM     22  O   UNL     1       7.733   6.205  17.305  0.00  0.00    +0.000 OA
ATOM     23  C   UNL     1       7.508   7.605  17.383  0.00  0.00    +0.000 C 
ENDBRANCH  19  22
ENDBRANCH  13  18
ENDBRANCH   1  13
TORSDOF 6
ENDMDL
MODEL 4
REMARK VINA RESULT:      -6.7      2.656      6.307
REMARK  Name = 
REMARK  8 active torsions:
REMARK  status: ('A' for Active; 'I' for Inactive)
REMARK    1  A    between atoms: C_1  and  O_2
REMARK    2  A    between atoms: O_2  and  C_3
REMARK    3  A    between atoms: C_7  and  C_8
REMARK    4  A    between atoms: C_8  and  N_9
REMARK    5  A    between atoms: C_10  and  C_12
REMARK    6  A    between atoms: C_14  and  O_15
REMARK    7  A    between atoms: C_18  and  O_19
REMARK    8  A    between atoms: O_19  and  C_20
REMARK                            x       y       z     vdW  Elec       q    Type
REMARK                         _______ _______ _______ _____ _____    ______ ____
ROOT
ATOM      1  N   UNL     1       4.959   7.029  17.539  0.00  0.00    +0.000 N 
ATOM      2  C   UNL     1       5.686   6.597  16.445  0.00  0.00    +0.000 C 
ATOM      3  O   UNL     1       5.190   6.331  15.348  0.00  0.00    +0.000 OA
ATOM      4  H   UNL     1       5.441   7.267  18.394  0.00  0.00    +0.000 HD
ENDROOT
BRANCH   2   5
ATOM      5  C   UNL     1       7.194   6.412  16.732  0.00  0.00    +0.000 C 
ATOM      6  C   UNL     1       7.525   6.844  18.155  0.00  0.00    +0.000 C 
ATOM      7  C   UNL     1       7.393   5.558  18.951  0.00  0.00    +0.000 C 
ATOM      8  C   UNL     1       7.896   4.497  17.980  0.00  0.00    +0.000 C 
ATOM      9  N   UNL     1       7.574   4.983  16.626  0.00  0.00    +0.000 NA
ATOM     10  H   UNL     1       6.767   4.461  16.267  0.00  0.00    +0.000 HD
BRANCH   7  11
ATOM     11  O   UNL     1       6.035   5.327  19.316  0.00  0.00    +0.000 OA
ATOM     12  H   UNL     1       5.561   4.967  18.537  0.00  0.00    +0.000 HD
ENDBRANCH   7  11
ENDBRANCH   2   5
BRANCH   1  13
ATOM     13  C   UNL     1       3.526   7.246  17.521  0.00  0.00    +0.000 C 
BRANCH  13  18
ATOM     14  C   UNL     1       1.695   4.358  19.289  0.00  0.00    +0.000 A 
ATOM     15  C   UNL     1       1.350   5.001  20.488  0.00  0.00    +0.000 A 
ATOM     16  C   UNL     1       1.662   6.341  20.693  0.00  0.00    +0.000 A 
ATOM     17  C   UNL     1       2.359   7.040  19.719  0.00  0.00    +0.000 A 
ATOM     18  C   UNL     1       2.782   6.402  18.538  0.00  0.00    +0.000 A 
ATOM     19  C   UNL     1       2.476   5.036  18.327  0.00  0.00    +0.000 A 
BRANCH  14  21
ATOM     20  C   UNL     1       1.965   2.081  19.858  0.00  0.00    +0.000 C 
ATOM     21  O   UNL     1       1.283   3.071  19.074  0.00  0.00    +0.000 OA
ENDBRANCH  14  21
BRANCH  19  22
ATOM     22  O   UNL     1       2.963   4.532  17.144  0.00  0.00    +0.000 OA
ATOM     23  C   UNL     1       3.985   3.545  17.168  0.00  0.00    +0.000 C 
ENDBRANCH  19  22
ENDBRANCH  13  18
ENDBRANCH   1  13
TORSDOF 6
ENDMDL
MODEL 5
REMARK VINA RESULT:      -6.5      1.686      3.018
REMARK  Name = 
REMARK  8 active torsions:
REMARK  status: ('A' for Active; 'I' for Inactive)
REMARK    1  A    between atoms: C_1  and  O_2
REMARK    2  A    between atoms: O_2  and  C_3
REMARK    3  A    between atoms: C_7  and  C_8
REMARK    4  A    between atoms: C_8  and  N_9
REMARK    5  A    between atoms: C_10  and  C_12
REMARK    6  A    between atoms: C_14  and  O_15
REMARK    7  A    between atoms: C_18  and  O_19
REMARK    8  A    between atoms: O_19  and  C_20
REMARK                            x       y       z     vdW  Elec       q    Type
REMARK                         _______ _______ _______ _____ _____    ______ ____
ROOT
ATOM      1  N   UNL     1       4.122   2.922  17.694  0.00  0.00    +0.000 N 
ATOM      2  C   UNL     1       2.739   2.891  17.637  0.00  0.00    +0.000 C 
ATOM      3  O   UNL     1       2.069   3.499  16.799  0.00  0.00    +0.000 OA
ATOM      4  H   UNL     1       4.604   2.365  18.385  0.00  0.00    +0.000 HD
ENDROOT
BRANCH   2   5
ATOM      5  C   UNL     1       2.088   2.064  18.768  0.00  0.00    +0.000 C 
ATOM      6  C   UNL     1       2.940   2.118  20.030  0.00  0.00    +0.000 C 
ATOM      7  C   UNL     1       2.362   3.296  20.794  0.00  0.00    +0.000 C 
ATOM      8  C   UNL     1       0.873   3.217  20.476  0.00  0.00    +0.000 C 
ATOM      9  N   UNL     1       0.764   2.626  19.130  0.00  0.00    +0.000 NA
ATOM     10  H   UNL     1       0.535   3.367  18.458  0.00  0.00    +0.000 HD
BRANCH   7  11
ATOM     11  O   UNL     1       2.927   4.521  20.336  0.00  0.00    +0.000 OA
ATOM     12  H   UNL     1       2.436   5.263  20.747  0.00  0.00    +0.000 HD
ENDBRANCH   7  11
ENDBRANCH   2   5
BRANCH   1  13
ATOM     13  C   UNL     1       4.951   3.655  16.758  0.00  0.00    +0.000 C 
BRANCH  13  18
ATOM     14  C   UNL     1       7.338   6.601  17.426  0.00  0.00    +0.000 A 
ATOM     15  C   UNL     1       7.541   6.427  18.803  0.00  0.00    +0.000 A 
ATOM     16  C   UNL     1       6.959   5.361  19.480  0.00  0.00    +0.000 A 
ATOM     17  C   UNL     1       6.133   4.482  18.796  0.00  0.00    +0.000 A 
ATOM     18  C   UNL     1       5.852   4.673  17.431  0.00  0.00    +0.000 A 
ATOM     19  C   UNL     1       6.435   5.762  16.737  0.00  0.00    +0.000 A 
BRANCH  14  21
ATOM     20  C   UNL     1       8.116   8.831  17.493  0.00  0.00    +0.000 C 
ATOM     21  O   UNL     1       8.007   7.598  16.768  0.00  0.00    +0.000 OA
ENDBRANCH  14  21
BRANCH  19  22
ATOM     22  O   UNL     1       6.064   5.844  15.416  0.00  0.00    +0.000 OA
ATOM     23  C   UNL     1       6.773   5.095  14.438  0.00  0.00    +0.000 C 
ENDBRANCH  19  22
ENDBRANCH  13  18
ENDBRANCH   1  13
TORSDOF 6
ENDMDL
MODEL 6
REMARK VINA RESULT:      -6.5      2.216      6.252
REMARK  Name = 
REMARK  8 active torsions:
REMARK  status: ('A' for Active; 'I' for Inactive)
REMARK    1  A    between atoms: C_1  and  O_2
REMARK    2  A    between atoms: O_2  and  C_3
REMARK    3  A    between atoms: C_7  and  C_8
REMARK    4  A    between atoms: C_8  and  N_9
REMARK    5  A    between atoms: C_10  and  C_12
REMARK    6  A    between atoms: C_14  and  O_15
REMARK    7  A    between atoms: C_18  and  O_19
REMARK    8  A    between atoms: O_19  and  C_20
REMARK                            x       y       z     vdW  Elec       q    Type
REMARK                         _______ _______ _______ _____ _____    ______ ____
ROOT
ATOM      1  N   UNL     1       4.676   4.099  17.138  0.00  0.00    +0.000 N 
ATOM      2  C   UNL     1       5.573   4.240  16.094  0.00  0.00    +0.000 C 
ATOM      3  O   UNL     1       5.260   4.186  14.903  0.00  0.00    +0.000 OA
ATOM      4  H   UNL     1       5.001   4.196  18.090  0.00  0.00    +0.000 HD
ENDROOT
BRANCH   2   5
ATOM      5  C   UNL     1       7.040   4.413  16.552  0.00  0.00    +0.000 C 
ATOM      6  C   UNL     1       7.564   5.789  16.161  0.00  0.00    +0.000 C 
ATOM      7  C   UNL     1       7.264   6.639  17.382  0.00  0.00    +0.000 C 
ATOM      8  C   UNL     1       7.478   5.670  18.539  0.00  0.00    +0.000 C 
ATOM      9  N   UNL     1       7.138   4.329  18.029  0.00  0.00    +0.000 NA
ATOM     10  H   UNL     1       6.221   4.055  18.398  0.00  0.00    +0.000 HD
BRANCH   7  11
ATOM     11  O   UNL     1       5.923   7.118  17.347  0.00  0.00    +0.000 OA
ATOM     12  H   UNL     1       5.462   6.697  16.591  0.00  0.00    +0.000 HD
ENDBRANCH   7  11
ENDBRANCH   2   5
BRANCH   1  13
ATOM     13  C   UNL     1       3.253   3.897  16.957  0.00  0.00    +0.000 C 
BRANCH  13  18
ATOM     14  C   UNL     1       1.844   5.249  20.275  0.00  0.00    +0.000 A 
ATOM     15  C   UNL     1       0.973   4.198  20.603  0.00  0.00    +0.000 A 
ATOM     16  C   UNL     1       0.884   3.069  19.796  0.00  0.00    +0.000 A 
ATOM     17  C   UNL     1       1.632   2.997  18.630  0.00  0.00    +0.000 A 
ATOM     18  C   UNL     1       2.458   4.066  18.238  0.00  0.00    +0.000 A 
ATOM     19  C   UNL     1       2.548   5.223  19.051  0.00  0.00    +0.000 A 
BRANCH  14  21
ATOM     20  C   UNL     1       1.063   7.376  20.941  0.00  0.00    +0.000 C 
ATOM     21  O   UNL     1       1.988   6.298  21.142  0.00  0.00    +0.000 OA
ENDBRANCH  14  21
BRANCH  19  22
ATOM     22  O   UNL     1       3.373   6.198  18.544  0.00  0.00    +0.000 OA
ATOM     23  C   UNL     1       2.809   7.362  17.957  0.00  0.00    +0.000 C 
ENDBRANCH  19  22
ENDBRANCH  13  18
ENDBRANCH   1  13
TORSDOF 6
ENDMDL
MODEL 7
REMARK VINA RESULT:      -6.5      2.316      6.105
REMARK  Name = 
REMARK  8 active torsions:
REMARK  status: ('A' for Active; 'I' for Inactive)
REMARK    1  A    between atoms: C_1  and  O_2
REMARK    2  A    between atoms: O_2  and  C_3
REMARK    3  A    between atoms: C_7  and  C_8
REMARK    4  A    between atoms: C_8  and  N_9
REMARK    5  A    between atoms: C_10  and  C_12
REMARK    6  A    between atoms: C_14  and  O_15
REMARK    7  A    between atoms: C_18  and  O_19
REMARK    8  A    between atoms: O_19  and  C_20
REMARK                            x       y       z     vdW  Elec       q    Type
REMARK                         _______ _______ _______ _____ _____    ______ ____
ROOT
ATOM      1  N   UNL     1       5.209   4.621  16.545  0.00  0.00    +0.000 N 
ATOM      2  C   UNL     1       5.785   5.832  16.204  0.00  0.00    +0.000 C 
ATOM      3  O   UNL     1       5.188   6.740  15.621  0.00  0.00    +0.000 OA
ATOM      4  H   UNL     1       5.749   3.941  17.059  0.00  0.00    +0.000 HD
ENDROOT
BRANCH   2   5
ATOM      5  C   UNL     1       7.284   5.934  16.568  0.00  0.00    +0.000 C 
ATOM      6  C   UNL     1       7.478   6.811  17.798  0.00  0.00    +0.000 C 
ATOM      7  C   UNL     1       7.445   5.818  18.946  0.00  0.00    +0.000 C 
ATOM      8  C   UNL     1       8.122   4.586  18.357  0.00  0.00    +0.000 C 
ATOM      9  N   UNL     1       7.828   4.598  16.912  0.00  0.00    +0.000 NA
ATOM     10  H   UNL     1       7.108   3.896  16.712  0.00  0.00    +0.000 HD
BRANCH   7  11
ATOM     11  O   UNL     1       6.102   5.538  19.333  0.00  0.00    +0.000 OA
ATOM     12  H   UNL     1       6.119   5.044  20.179  0.00  0.00    +0.000 HD
ENDBRANCH   7  11
ENDBRANCH   2   5
BRANCH   1  13
ATOM     13  C   UNL     1       3.825   4.283  16.279  0.00  0.00    +0.000 C 
BRANCH  13  18
ATOM     14  C   UNL     1       2.382   3.632  19.789  0.00  0.00    +0.000 A 
ATOM     15  C   UNL     1       1.863   2.343  19.591  0.00  0.00    +0.000 A 
ATOM     16  C   UNL     1       2.019   1.692  18.372  0.00  0.00    +0.000 A 
ATOM     17  C   UNL     1       2.658   2.339  17.325  0.00  0.00    +0.000 A 
ATOM     18  C   UNL     1       3.124   3.658  17.470  0.00  0.00    +0.000 A 
ATOM     19  C   UNL     1       2.961   4.331  18.706  0.00  0.00    +0.000 A 
BRANCH  14  21
ATOM     20  C   UNL     1       2.110   3.280  22.108  0.00  0.00    +0.000 C 
ATOM     21  O   UNL     1       2.305   4.205  21.029  0.00  0.00    +0.000 OA
ENDBRANCH  14  21
BRANCH  19  22
ATOM     22  O   UNL     1       3.443   5.618  18.708  0.00  0.00    +0.000 OA
ATOM     23  C   UNL     1       2.537   6.708  18.606  0.00  0.00    +0.000 C 
ENDBRANCH  19  22
ENDBRANCH  13  18
ENDBRANCH   1  13
TORSDOF 6
ENDMDL
MODEL 8
REMARK VINA RESULT:      -6.5      2.311      6.161
REMARK  Name = 
REMARK  8 active torsions:
REMARK  status: ('A' for Active; 'I' for Inactive)
REMARK    1  A    between atoms: C_1  and  O_2
REMARK    2  A    between atoms: O_2  and  C_3
REMARK    3  A    between atoms: C_7  and  C_8
REMARK    4  A    between atoms: C_8  and  N_9
REMARK    5  A    between atoms: C_10  and  C_12
REMARK    6  A    between atoms: C_14  and  O_15
REMARK    7  A    between atoms: C_18  and  O_19
REMARK    8  A    between atoms: O_19  and  C_20
REMARK                            x       y       z     vdW  Elec       q    Type
REMARK                         _______ _______ _______ _____ _____    ______ ____
ROOT
ATOM      1  N   UNL     1       4.681   5.997  17.376  0.00  0.00    +0.000 N 
ATOM      2  C   UNL     1       5.529   5.481  16.412  0.00  0.00    +0.000 C 
ATOM      3  O   UNL     1       5.160   4.756  15.486  0.00  0.00    +0.000 OA
ATOM      4  H   UNL     1       5.050   6.618  18.082  0.00  0.00    +0.000 HD
ENDROOT
BRANCH   2   5
ATOM      5  C   UNL     1       7.015   5.847  16.628  0.00  0.00    +0.000 C 
ATOM      6  C   UNL     1       7.185   6.667  17.901  0.00  0.00    +0.000 C 
ATOM      7  C   UNL     1       7.468   5.618  18.960  0.00  0.00    +0.000 C 
ATOM      8  C   UNL     1       8.288   4.577  18.206  0.00  0.00    +0.000 C 
ATOM      9  N   UNL     1       7.833   4.623  16.805  0.00  0.00    +0.000 NA
ATOM     10  H   UNL     1       7.237   3.808  16.621  0.00  0.00    +0.000 HD
BRANCH   7  11
ATOM     11  O   UNL     1       6.254   5.061  19.457  0.00  0.00    +0.000 OA
ATOM     12  H   UNL     1       6.452   4.568  20.280  0.00  0.00    +0.000 HD
ENDBRANCH   7  11
ENDBRANCH   2   5
BRANCH   1  13
ATOM     13  C   UNL     1       3.251   5.766  17.400  0.00  0.00    +0.000 C 
BRANCH  13  18
ATOM     14  C   UNL     1       2.552   2.979  19.962  0.00  0.00    +0.000 A 
ATOM     15  C   UNL     1       2.209   1.938  19.085  0.00  0.00    +0.000 A 
ATOM     16  C   UNL     1       2.248   2.125  17.708  0.00  0.00    +0.000 A 
ATOM     17  C   UNL     1       2.591   3.367  17.193  0.00  0.00    +0.000 A 
ATOM     18  C   UNL     1       2.870   4.449  18.048  0.00  0.00    +0.000 A 
ATOM     19  C   UNL     1       2.823   4.268  19.452  0.00  0.00    +0.000 A 
BRANCH  14  21
ATOM     20  C   UNL     1       1.327   2.641  21.953  0.00  0.00    +0.000 C 
ATOM     21  O   UNL     1       2.605   2.734  21.308  0.00  0.00    +0.000 OA
ENDBRANCH  14  21
BRANCH  19  22
ATOM     22  O   UNL     1       3.097   5.407  20.171  0.00  0.00    +0.000 OA
ATOM     23  C   UNL     1       2.027   6.205  20.659  0.00  0.00    +0.000 C 
ENDBRANCH  19  22
ENDBRANCH  13  18
ENDBRANCH   1  13
TORSDOF 6
ENDMDL
MODEL 9
REMARK VINA RESULT:      -6.5      1.254      1.600
REMARK  Name = 
REMARK  8 active torsions:
REMARK  status: ('A' for Active; 'I' for Inactive)
REMARK    1  A    between atoms: C_1  and  O_2
REMARK    2  A    between atoms: O_2  and  C_3
REMARK    3  A    between atoms: C_7  and  C_8
REMARK    4  A    between atoms: C_8  and  N_9
REMARK    5  A    between atoms: C_10  and  C_12
REMARK    6  A    between atoms: C_14  and  O_15
REMARK    7  A    between atoms: C_18  and  O_19
REMARK    8  A    between atoms: O_19  and  C_20
REMARK                            x       y       z     vdW  Elec       q    Type
REMARK                         _______ _______ _______ _____ _____    ______ ____
ROOT
ATOM      1  N   UNL     1       4.514   5.192  19.276  0.00  0.00    +0.000 N 
ATOM      2  C   UNL     1       3.820   4.153  19.869  0.00  0.00    +0.000 C 
ATOM      3  O   UNL     1       4.293   3.032  20.067  0.00  0.00    +0.000 OA
ATOM      4  H   UNL     1       4.073   6.096  19.184  0.00  0.00    +0.000 HD
ENDROOT
BRANCH   2   5
ATOM      5  C   UNL     1       2.354   4.500  20.216  0.00  0.00    +0.000 C 
ATOM      6  C   UNL     1       1.424   4.087  19.082  0.00  0.00    +0.000 C 
ATOM      7  C   UNL     1       1.001   2.682  19.470  0.00  0.00    +0.000 C 
ATOM      8  C   UNL     1       0.916   2.752  20.990  0.00  0.00    +0.000 C 
ATOM      9  N   UNL     1       1.911   3.752  21.417  0.00  0.00    +0.000 NA
ATOM     10  H   UNL     1       2.724   3.266  21.812  0.00  0.00    +0.000 HD
BRANCH   7  11
ATOM     11  O   UNL     1       1.971   1.728  19.047  0.00  0.00    +0.000 OA
ATOM     12  H   UNL     1       2.616   1.598  19.774  0.00  0.00    +0.000 HD
ENDBRANCH   7  11
ENDBRANCH   2   5
BRANCH   1  13
ATOM     13  C   UNL     1       5.892   5.096  18.838  0.00  0.00    +0.000 C 
BRANCH  13  18
ATOM     14  C   UNL     1       7.023   5.041  15.158  0.00  0.00    +0.000 A 
ATOM     15  C   UNL     1       6.102   4.113  14.647  0.00  0.00    +0.000 A 
ATOM     16  C   UNL     1       5.119   3.562  15.461  0.00  0.00    +0.000 A 
ATOM     17  C   UNL     1       5.073   3.899  16.806  0.00  0.00    +0.000 A 
ATOM     18  C   UNL     1       6.027   4.770  17.363  0.00  0.00    +0.000 A 
ATOM     19  C   UNL     1       7.037   5.328  16.541  0.00  0.00    +0.000 A 
BRANCH  14  21
ATOM     20  C   UNL     1       7.868   5.170  12.956  0.00  0.00    +0.000 C 
ATOM     21  O   UNL     1       7.911   5.644  14.310  0.00  0.00    +0.000 OA
ENDBRANCH  14  21
BRANCH  19  22
ATOM     22  O   UNL     1       7.914   6.146  17.213  0.00  0.00    +0.000 OA
ATOM     23  C   UNL     1       7.609   7.524  17.374  0.00  0.00    +0.000 C 
ENDBRANCH  19  22
ENDBRANCH  13  18
ENDBRANCH   1  13
TORSDOF 6
ENDMDL
