MODEL 1
REMARK VINA RESULT:      -7.4      0.000      0.000
REMARK  Name = 
REMARK  5 active torsions:
REMARK  status: ('A' for Active; 'I' for Inactive)
REMARK    1  A    between atoms: C_2  and  C_3
REMARK    2  A    between atoms: C_3  and  C_4
REMARK    3  A    between atoms: C_4  and  N_5
REMARK    4  A    between atoms: N_5  and  S_6
REMARK    5  A    between atoms: S_6  and  C_9
REMARK                            x       y       z     vdW  Elec       q    Type
REMARK                         _______ _______ _______ _____ _____    ______ ____
ROOT
ATOM      1  O   UNL     1       2.630   6.412  19.794  0.00  0.00    +0.000 OA
ATOM      2  C   UNL     1       2.425   7.428  19.126  0.00  0.00    +0.000 C 
ATOM      3  N   UNL     1       1.726   8.501  19.641  0.00  0.00    +0.000 N 
ATOM      4  C   UNL     1       1.416   9.762  18.948  0.00  0.00    +0.000 C 
ATOM      5  C   UNL     1      -0.054  10.177  19.150  0.00  0.00    +0.000 C 
ATOM      6  N   UNL     1      -0.395  10.138  20.568  0.00  0.00    +0.000 N 
ATOM      7  C   UNL     1      -0.917  11.230  21.208  0.00  0.00    +0.000 A 
ATOM      8  N   UNL     1      -1.099  12.363  20.511  0.00  0.00    +0.000 NA
ATOM      9  C   UNL     1      -1.617  13.425  21.152  0.00  0.00    +0.000 A 
ATOM     10  C   UNL     1      -1.964  13.408  22.479  0.00  0.00    +0.000 A 
ATOM     11  C   UNL     1      -1.741  12.220  23.116  0.00  0.00    +0.000 A 
ATOM     12  N   UNL     1      -1.224  11.133  22.511  0.00  0.00    +0.000 NA
ATOM     13  C   UNL     1      -0.119   8.892  21.278  0.00  0.00    +0.000 C 
ATOM     14  C   UNL     1       1.350   8.487  21.066  0.00  0.00    +0.000 C 
ENDROOT
BRANCH   2  15
ATOM     15  C   UNL     1       2.910   7.498  17.688  0.00  0.00    +0.000 C 
BRANCH  15  16
ATOM     16  C   UNL     1       4.369   7.058  17.643  0.00  0.00    +0.000 C 
BRANCH  16  17
ATOM     17  N   UNL     1       4.670   6.350  16.385  0.00  0.00    +0.000 NA
ATOM     18  H   UNL     1       5.222   6.861  15.693  0.00  0.00    +0.000 HD
BRANCH  17  19
ATOM     19  S   UNL     1       5.314   4.791  16.537  0.00  0.00    +0.000 S 
ATOM     20  O   UNL     1       5.141   4.162  15.246  0.00  0.00    +0.000 OA
ATOM     21  O   UNL     1       6.623   4.913  17.139  0.00  0.00    +0.000 OA
BRANCH  19  22
ATOM     22  C   UNL     1       4.230   3.992  17.695  0.00  0.00    +0.000 A 
ATOM     23  C   UNL     1       4.690   3.660  18.973  0.00  0.00    +0.000 A 
ATOM     24  C   UNL     1       3.797   3.128  19.908  0.00  0.00    +0.000 A 
ATOM     25  C   UNL     1       2.458   2.936  19.563  0.00  0.00    +0.000 A 
ATOM     26 CL   UNL     1       1.357   2.305  20.726  0.00  0.00    +0.000 Cl
ATOM     27  C   UNL     1       1.999   3.267  18.289  0.00  0.00    +0.000 A 
ATOM     28  C   UNL     1       2.884   3.805  17.353  0.00  0.00    +0.000 A 
ENDBRANCH  19  22
ENDBRANCH  17  19
ENDBRANCH  16  17
ENDBRANCH  15  16
ENDBRANCH   2  15
TORSDOF 5
ENDMDL
MODEL 2
REMARK VINA RESULT:      -7.2      2.796      3.433
REMARK  Name = 
REMARK  5 active torsions:
REMARK  status: ('A' for Active; 'I' for Inactive)
REMARK    1  A    between atoms: C_2  and  C_3
REMARK    2  A    between atoms: C_3  and  C_4
REMARK    3  A    between atoms: C_4  and  N_5
REMARK    4  A    between atoms: N_5  and  S_6
REMARK    5  A    between atoms: S_6  and  C_9
REMARK                            x       y       z     vdW  Elec       q    Type
REMARK                         _______ _______ _______ _____ _____    ______ ____
ROOT
ATOM      1  O   UNL     1       2.459   6.528  20.206  0.00  0.00    +0.000 OA
ATOM      2  C   UNL     1       2.210   7.469  19.448  0.00  0.00    +0.000 C 
ATOM      3  N   UNL     1       1.545   8.595  19.891  0.00  0.00    +0.000 N 
ATOM      4  C   UNL     1       1.191   9.778  19.088  0.00  0.00    +0.000 C 
ATOM      5  C   UNL     1      -0.263  10.220  19.339  0.00  0.00    +0.000 C 
ATOM      6  N   UNL     1      -0.512  10.335  20.772  0.00  0.00    +0.000 N 
ATOM      7  C   UNL     1      -0.992  11.492  21.325  0.00  0.00    +0.000 A 
ATOM      8  N   UNL     1      -1.219  12.546  20.523  0.00  0.00    +0.000 NA
ATOM      9  C   UNL     1      -1.695  13.673  21.080  0.00  0.00    +0.000 A 
ATOM     10  C   UNL     1      -1.955  13.800  22.420  0.00  0.00    +0.000 A 
ATOM     11  C   UNL     1      -1.691  12.685  23.164  0.00  0.00    +0.000 A 
ATOM     12  N   UNL     1      -1.214  11.536  22.647  0.00  0.00    +0.000 NA
ATOM     13  C   UNL     1      -0.190   9.171  21.592  0.00  0.00    +0.000 C 
ATOM     14  C   UNL     1       1.262   8.736  21.330  0.00  0.00    +0.000 C 
ENDROOT
BRANCH   2  15
ATOM     15  C   UNL     1       2.601   7.383  17.983  0.00  0.00    +0.000 C 
BRANCH  15  16
ATOM     16  C   UNL     1       3.794   6.441  17.851  0.00  0.00    +0.000 C 
BRANCH  16  17
ATOM     17  N   UNL     1       3.375   5.034  17.991  0.00  0.00    +0.000 NA
ATOM     18  H   UNL     1       2.668   4.699  17.333  0.00  0.00    +0.000 HD
BRANCH  17  19
ATOM     19  S   UNL     1       4.619   3.886  18.072  0.00  0.00    +0.000 S 
ATOM     20  O   UNL     1       5.434   4.262  19.205  0.00  0.00    +0.000 OA
ATOM     21  O   UNL     1       4.012   2.577  17.989  0.00  0.00    +0.000 OA
BRANCH  19  22
ATOM     22  C   UNL     1       5.558   4.171  16.591  0.00  0.00    +0.000 A 
ATOM     23  C   UNL     1       4.973   3.964  15.338  0.00  0.00    +0.000 A 
ATOM     24  C   UNL     1       5.689   4.291  14.183  0.00  0.00    +0.000 A 
ATOM     25  C   UNL     1       6.976   4.822  14.286  0.00  0.00    +0.000 A 
ATOM     26 CL   UNL     1       7.842   5.248  12.862  0.00  0.00    +0.000 Cl
ATOM     27  C   UNL     1       7.559   5.028  15.536  0.00  0.00    +0.000 A 
ATOM     28  C   UNL     1       6.848   4.710  16.693  0.00  0.00    +0.000 A 
ENDBRANCH  19  22
ENDBRANCH  17  19
ENDBRANCH  16  17
ENDBRANCH  15  16
ENDBRANCH   2  15
TORSDOF 5
ENDMDL
MODEL 3
REMARK VINA RESULT:      -7.1      2.608      3.418
REMARK  Name = 
REMARK  5 active torsions:
REMARK  status: ('A' for Active; 'I' for Inactive)
REMARK    1  A    between atoms: C_2  and  C_3
REMARK    2  A    between atoms: C_3  and  C_4
REMARK    3  A    between atoms: C_4  and  N_5
REMARK    4  A    between atoms: N_5  and  S_6
REMARK    5  A    between atoms: S_6  and  C_9
REMARK                            x       y       z     vdW  Elec       q    Type
REMARK                         _______ _______ _______ _____ _____    ______ ____
ROOT
ATOM      1  O   UNL     1       2.592   7.053  18.587  0.00  0.00    +0.000 OA
ATOM      2  C   UNL     1       2.034   6.999  19.685  0.00  0.00    +0.000 C 
ATOM      3  N   UNL     1       1.346   8.082  20.197  0.00  0.00    +0.000 N 
ATOM      4  C   UNL     1       0.642   8.143  21.489  0.00  0.00    +0.000 C 
ATOM      5  C   UNL     1       0.963   9.443  22.251  0.00  0.00    +0.000 C 
ATOM      6  N   UNL     1       0.774  10.595  21.376  0.00  0.00    +0.000 N 
ATOM      7  C   UNL     1      -0.050  11.632  21.725  0.00  0.00    +0.000 A 
ATOM      8  N   UNL     1      -0.709  11.569  22.894  0.00  0.00    +0.000 NA
ATOM      9  C   UNL     1      -1.510  12.596  23.225  0.00  0.00    +0.000 A 
ATOM     10  C   UNL     1      -1.689  13.699  22.429  0.00  0.00    +0.000 A 
ATOM     11  C   UNL     1      -0.987  13.681  21.257  0.00  0.00    +0.000 A 
ATOM     12  N   UNL     1      -0.175  12.672  20.887  0.00  0.00    +0.000 NA
ATOM     13  C   UNL     1       1.477  10.573  20.096  0.00  0.00    +0.000 C 
ATOM     14  C   UNL     1       1.152   9.269  19.347  0.00  0.00    +0.000 C 
ENDROOT
BRANCH   2  15
ATOM     15  C   UNL     1       2.131   5.736  20.522  0.00  0.00    +0.000 C 
BRANCH  15  16
ATOM     16  C   UNL     1       1.522   4.581  19.734  0.00  0.00    +0.000 C 
BRANCH  16  17
ATOM     17  N   UNL     1       2.453   3.440  19.663  0.00  0.00    +0.000 NA
ATOM     18  H   UNL     1       2.126   2.556  20.059  0.00  0.00    +0.000 HD
BRANCH  17  19
ATOM     19  S   UNL     1       3.139   3.125  18.146  0.00  0.00    +0.000 S 
ATOM     20  O   UNL     1       3.794   1.842  18.264  0.00  0.00    +0.000 OA
ATOM     21  O   UNL     1       2.119   3.355  17.147  0.00  0.00    +0.000 OA
BRANCH  19  22
ATOM     22  C   UNL     1       4.390   4.375  17.977  0.00  0.00    +0.000 A 
ATOM     23  C   UNL     1       5.280   4.623  19.026  0.00  0.00    +0.000 A 
ATOM     24  C   UNL     1       6.324   5.535  18.842  0.00  0.00    +0.000 A 
ATOM     25  C   UNL     1       6.473   6.185  17.615  0.00  0.00    +0.000 A 
ATOM     26 CL   UNL     1       7.775   7.287  17.384  0.00  0.00    +0.000 Cl
ATOM     27  C   UNL     1       5.585   5.938  16.569  0.00  0.00    +0.000 A 
ATOM     28  C   UNL     1       4.545   5.024  16.745  0.00  0.00    +0.000 A 
ENDBRANCH  19  22
ENDBRANCH  17  19
ENDBRANCH  16  17
ENDBRANCH  15  16
ENDBRANCH   2  15
TORSDOF 5
ENDMDL
MODEL 4
REMARK VINA RESULT:      -7.1      2.654      3.577
REMARK  Name = 
REMARK  5 active torsions:
REMARK  status: ('A' for Active; 'I' for Inactive)
REMARK    1  A    between atoms: C_2  and  C_3
REMARK    2  A    between atoms: C_3  and  C_4
REMARK    3  A    between atoms: C_4  and  N_5
REMARK    4  A    between atoms: N_5  and  S_6
REMARK    5  A    between atoms: S_6  and  C_9
REMARK                            x       y       z     vdW  Elec       q    Type
REMARK                         _______ _______ _______ _____ _____    ______ ____
ROOT
ATOM      1  O   UNL     1       2.855   7.756  18.336  0.00  0.00    +0.000 OA
ATOM      2  C   UNL     1       2.293   7.512  19.406  0.00  0.00    +0.000 C 
ATOM      3  N   UNL     1       1.400   8.402  19.970  0.00  0.00    +0.000 N 
ATOM      4  C   UNL     1       0.669   8.228  21.236  0.00  0.00    +0.000 C 
ATOM      5  C   UNL     1       0.718   9.503  22.101  0.00  0.00    +0.000 C 
ATOM      6  N   UNL     1       0.332  10.663  21.305  0.00  0.00    +0.000 N 
ATOM      7  C   UNL     1      -0.682  11.495  21.698  0.00  0.00    +0.000 A 
ATOM      8  N   UNL     1      -1.343  11.217  22.834  0.00  0.00    +0.000 NA
ATOM      9  C   UNL     1      -2.333  12.045  23.209  0.00  0.00    +0.000 A 
ATOM     10  C   UNL     1      -2.702  13.153  22.489  0.00  0.00    +0.000 A 
ATOM     11  C   UNL     1      -1.984  13.359  21.345  0.00  0.00    +0.000 A 
ATOM     12  N   UNL     1      -0.986  12.554  20.933  0.00  0.00    +0.000 NA
ATOM     13  C   UNL     1       1.054  10.873  20.054  0.00  0.00    +0.000 C 
ATOM     14  C   UNL     1       1.001   9.594  19.201  0.00  0.00    +0.000 C 
ENDROOT
BRANCH   2  15
ATOM     15  C   UNL     1       2.612   6.228  20.153  0.00  0.00    +0.000 C 
BRANCH  15  16
ATOM     16  C   UNL     1       2.404   5.050  19.208  0.00  0.00    +0.000 C 
BRANCH  16  17
ATOM     17  N   UNL     1       2.958   3.809  19.780  0.00  0.00    +0.000 NA
ATOM     18  H   UNL     1       2.284   3.107  20.091  0.00  0.00    +0.000 HD
BRANCH  17  19
ATOM     19  S   UNL     1       4.157   3.033  18.869  0.00  0.00    +0.000 S 
ATOM     20  O   UNL     1       4.872   2.183  19.795  0.00  0.00    +0.000 OA
ATOM     21  O   UNL     1       3.527   2.487  17.688  0.00  0.00    +0.000 OA
BRANCH  19  22
ATOM     22  C   UNL     1       5.240   4.352  18.377  0.00  0.00    +0.000 A 
ATOM     23  C   UNL     1       5.028   5.018  17.165  0.00  0.00    +0.000 A 
ATOM     24  C   UNL     1       5.822   6.121  16.839  0.00  0.00    +0.000 A 
ATOM     25  C   UNL     1       6.815   6.552  17.722  0.00  0.00    +0.000 A 
ATOM     26 CL   UNL     1       7.772   7.927  17.328  0.00  0.00    +0.000 Cl
ATOM     27  C   UNL     1       7.026   5.888  18.929  0.00  0.00    +0.000 A 
ATOM     28  C   UNL     1       6.232   4.790  19.264  0.00  0.00    +0.000 A 
ENDBRANCH  19  22
ENDBRANCH  17  19
ENDBRANCH  16  17
ENDBRANCH  15  16
ENDBRANCH   2  15
TORSDOF 5
ENDMDL
MODEL 5
REMARK VINA RESULT:      -7.1      2.792      3.292
REMARK  Name = 
REMARK  5 active torsions:
REMARK  status: ('A' for Active; 'I' for Inactive)
REMARK    1  A    between atoms: C_2  and  C_3
REMARK    2  A    between atoms: C_3  and  C_4
REMARK    3  A    between atoms: C_4  and  N_5
REMARK    4  A    between atoms: N_5  and  S_6
REMARK    5  A    between atoms: S_6  and  C_9
REMARK                            x       y       z     vdW  Elec       q    Type
REMARK                         _______ _______ _______ _____ _____    ______ ____
ROOT
ATOM      1  O   UNL     1       2.139   6.348  20.718  0.00  0.00    +0.000 OA
ATOM      2  C   UNL     1       2.004   7.272  19.914  0.00  0.00    +0.000 C 
ATOM      3  N   UNL     1       1.436   8.475  20.286  0.00  0.00    +0.000 N 
ATOM      4  C   UNL     1       1.220   9.649  19.424  0.00  0.00    +0.000 C 
ATOM      5  C   UNL     1      -0.193  10.236  19.607  0.00  0.00    +0.000 C 
ATOM      6  N   UNL     1      -0.471  10.438  21.025  0.00  0.00    +0.000 N 
ATOM      7  C   UNL     1      -0.856  11.658  21.513  0.00  0.00    +0.000 A 
ATOM      8  N   UNL     1      -0.958  12.692  20.661  0.00  0.00    +0.000 NA
ATOM      9  C   UNL     1      -1.340  13.882  21.154  0.00  0.00    +0.000 A 
ATOM     10  C   UNL     1      -1.627  14.092  22.479  0.00  0.00    +0.000 A 
ATOM     11  C   UNL     1      -1.493  12.991  23.277  0.00  0.00    +0.000 A 
ATOM     12  N   UNL     1      -1.111  11.781  22.824  0.00  0.00    +0.000 NA
ATOM     13  C   UNL     1      -0.286   9.285  21.903  0.00  0.00    +0.000 C 
ATOM     14  C   UNL     1       1.125   8.705  21.708  0.00  0.00    +0.000 C 
ENDROOT
BRANCH   2  15
ATOM     15  C   UNL     1       2.428   7.085  18.467  0.00  0.00    +0.000 C 
BRANCH  15  16
ATOM     16  C   UNL     1       3.648   6.172  18.431  0.00  0.00    +0.000 C 
BRANCH  16  17
ATOM     17  N   UNL     1       3.247   4.755  18.355  0.00  0.00    +0.000 NA
ATOM     18  H   UNL     1       2.526   4.519  17.669  0.00  0.00    +0.000 HD
BRANCH  17  19
ATOM     19  S   UNL     1       4.502   3.625  18.221  0.00  0.00    +0.000 S 
ATOM     20  O   UNL     1       5.335   3.816  19.388  0.00  0.00    +0.000 OA
ATOM     21  O   UNL     1       3.907   2.341  17.930  0.00  0.00    +0.000 OA
BRANCH  19  22
ATOM     22  C   UNL     1       5.412   4.166  16.795  0.00  0.00    +0.000 A 
ATOM     23  C   UNL     1       6.754   4.540  16.919  0.00  0.00    +0.000 A 
ATOM     24  C   UNL     1       7.486   4.863  15.772  0.00  0.00    +0.000 A 
ATOM     25  C   UNL     1       6.878   4.807  14.517  0.00  0.00    +0.000 A 
ATOM     26 CL   UNL     1       7.791   5.180  13.106  0.00  0.00    +0.000 Cl
ATOM     27  C   UNL     1       5.540   4.435  14.394  0.00  0.00    +0.000 A 
ATOM     28  C   UNL     1       4.805   4.104  15.533  0.00  0.00    +0.000 A 
ENDBRANCH  19  22
ENDBRANCH  17  19
ENDBRANCH  16  17
ENDBRANCH  15  16
ENDBRANCH   2  15
TORSDOF 5
ENDMDL
MODEL 6
REMARK VINA RESULT:      -7.1      2.998      3.703
REMARK  Name = 
REMARK  5 active torsions:
REMARK  status: ('A' for Active; 'I' for Inactive)
REMARK    1  A    between atoms: C_2  and  C_3
REMARK    2  A    between atoms: C_3  and  C_4
REMARK    3  A    between atoms: C_4  and  N_5
REMARK    4  A    between atoms: N_5  and  S_6
REMARK    5  A    between atoms: S_6  and  C_9
REMARK                            x       y       z     vdW  Elec       q    Type
REMARK                         _______ _______ _______ _____ _____    ______ ____
ROOT
ATOM      1  O   UNL     1       1.545   5.667  20.755  0.00  0.00    +0.000 OA
ATOM      2  C   UNL     1       1.848   6.304  19.744  0.00  0.00    +0.000 C 
ATOM      3  N   UNL     1       1.845   7.685  19.735  0.00  0.00    +0.000 N 
ATOM      4  C   UNL     1       2.185   8.556  18.597  0.00  0.00    +0.000 C 
ATOM      5  C   UNL     1       1.160   9.694  18.426  0.00  0.00    +0.000 C 
ATOM      6  N   UNL     1       0.950  10.375  19.699  0.00  0.00    +0.000 N 
ATOM      7  C   UNL     1       1.116  11.729  19.822  0.00  0.00    +0.000 A 
ATOM      8  N   UNL     1       1.497  12.434  18.745  0.00  0.00    +0.000 NA
ATOM      9  C   UNL     1       1.652  13.762  18.881  0.00  0.00    +0.000 A 
ATOM     10  C   UNL     1       1.442  14.429  20.062  0.00  0.00    +0.000 A 
ATOM     11  C   UNL     1       1.061  13.637  21.108  0.00  0.00    +0.000 A 
ATOM     12  N   UNL     1       0.896  12.303  21.015  0.00  0.00    +0.000 NA
ATOM     13  C   UNL     1       0.591   9.539  20.841  0.00  0.00    +0.000 C 
ATOM     14  C   UNL     1       1.619   8.406  21.000  0.00  0.00    +0.000 C 
ENDROOT
BRANCH   2  15
ATOM     15  C   UNL     1       2.196   5.568  18.461  0.00  0.00    +0.000 C 
BRANCH  15  16
ATOM     16  C   UNL     1       1.911   4.083  18.659  0.00  0.00    +0.000 C 
BRANCH  16  17
ATOM     17  N   UNL     1       2.868   3.482  19.605  0.00  0.00    +0.000 NA
ATOM     18  H   UNL     1       2.476   2.883  20.335  0.00  0.00    +0.000 HD
BRANCH  17  19
ATOM     19  S   UNL     1       4.202   2.691  18.923  0.00  0.00    +0.000 S 
ATOM     20  O   UNL     1       4.846   1.987  20.010  0.00  0.00    +0.000 OA
ATOM     21  O   UNL     1       3.742   1.990  17.746  0.00  0.00    +0.000 OA
BRANCH  19  22
ATOM     22  C   UNL     1       5.268   4.018  18.412  0.00  0.00    +0.000 A 
ATOM     23  C   UNL     1       5.322   4.395  17.067  0.00  0.00    +0.000 A 
ATOM     24  C   UNL     1       6.085   5.507  16.695  0.00  0.00    +0.000 A 
ATOM     25  C   UNL     1       6.781   6.231  17.664  0.00  0.00    +0.000 A 
ATOM     26 CL   UNL     1       7.696   7.614  17.205  0.00  0.00    +0.000 Cl
ATOM     27  C   UNL     1       6.727   5.854  19.006  0.00  0.00    +0.000 A 
ATOM     28  C   UNL     1       5.962   4.750  19.385  0.00  0.00    +0.000 A 
ENDBRANCH  19  22
ENDBRANCH  17  19
ENDBRANCH  16  17
ENDBRANCH  15  16
ENDBRANCH   2  15
TORSDOF 5
ENDMDL
MODEL 7
REMARK VINA RESULT:      -7.1      2.730      3.263
REMARK  Name = 
REMARK  5 active torsions:
REMARK  status: ('A' for Active; 'I' for Inactive)
REMARK    1  A    between atoms: C_2  and  C_3
REMARK    2  A    between atoms: C_3  and  C_4
REMARK    3  A    between atoms: C_4  and  N_5
REMARK    4  A    between atoms: N_5  and  S_6
REMARK    5  A    between atoms: S_6  and  C_9
REMARK                            x       y       z     vdW  Elec       q    Type
REMARK                         _______ _______ _______ _____ _____    ______ ____
ROOT
ATOM      1  O   UNL     1       2.074   5.795  20.494  0.00  0.00    +0.000 OA
ATOM      2  C   UNL     1       2.076   6.654  19.609  0.00  0.00    +0.000 C 
ATOM      3  N   UNL     1       1.702   7.957  19.868  0.00  0.00    +0.000 N 
ATOM      4  C   UNL     1       1.662   9.068  18.903  0.00  0.00    +0.000 C 
ATOM      5  C   UNL     1       0.357   9.879  19.023  0.00  0.00    +0.000 C 
ATOM      6  N   UNL     1       0.123  10.247  20.414  0.00  0.00    +0.000 N 
ATOM      7  C   UNL     1      -0.067  11.551  20.788  0.00  0.00    +0.000 A 
ATOM      8  N   UNL     1      -0.016  12.507  19.847  0.00  0.00    +0.000 NA
ATOM      9  C   UNL     1      -0.207  13.782  20.229  0.00  0.00    +0.000 A 
ATOM     10  C   UNL     1      -0.449  14.151  21.527  0.00  0.00    +0.000 A 
ATOM     11  C   UNL     1      -0.479  13.119  22.421  0.00  0.00    +0.000 A 
ATOM     12  N   UNL     1      -0.291  11.829  22.081  0.00  0.00    +0.000 NA
ATOM     13  C   UNL     1       0.136   9.164  21.393  0.00  0.00    +0.000 C 
ATOM     14  C   UNL     1       1.440   8.359  21.261  0.00  0.00    +0.000 C 
ENDROOT
BRANCH   2  15
ATOM     15  C   UNL     1       2.456   6.274  18.187  0.00  0.00    +0.000 C 
BRANCH  15  16
ATOM     16  C   UNL     1       3.973   6.357  18.050  0.00  0.00    +0.000 C 
BRANCH  16  17
ATOM     17  N   UNL     1       4.643   5.835  19.255  0.00  0.00    +0.000 NA
ATOM     18  H   UNL     1       4.042   5.601  20.048  0.00  0.00    +0.000 HD
BRANCH  17  19
ATOM     19  S   UNL     1       5.733   4.560  19.015  0.00  0.00    +0.000 S 
ATOM     20  O   UNL     1       6.969   4.971  19.642  0.00  0.00    +0.000 OA
ATOM     21  O   UNL     1       5.068   3.337  19.403  0.00  0.00    +0.000 OA
BRANCH  19  22
ATOM     22  C   UNL     1       5.982   4.538  17.257  0.00  0.00    +0.000 A 
ATOM     23  C   UNL     1       7.142   5.089  16.705  0.00  0.00    +0.000 A 
ATOM     24  C   UNL     1       7.374   4.972  15.331  0.00  0.00    +0.000 A 
ATOM     25  C   UNL     1       6.451   4.305  14.523  0.00  0.00    +0.000 A 
ATOM     26 CL   UNL     1       6.753   4.140  12.837  0.00  0.00    +0.000 Cl
ATOM     27  C   UNL     1       5.294   3.755  15.073  0.00  0.00    +0.000 A 
ATOM     28  C   UNL     1       5.060   3.863  16.445  0.00  0.00    +0.000 A 
ENDBRANCH  19  22
ENDBRANCH  17  19
ENDBRANCH  16  17
ENDBRANCH  15  16
ENDBRANCH   2  15
TORSDOF 5
ENDMDL
MODEL 8
REMARK VINA RESULT:      -7.1      2.823      3.554
REMARK  Name = 
REMARK  5 active torsions:
REMARK  status: ('A' for Active; 'I' for Inactive)
REMARK    1  A    between atoms: C_2  and  C_3
REMARK    2  A    between atoms: C_3  and  C_4
REMARK    3  A    between atoms: C_4  and  N_5
REMARK    4  A    between atoms: N_5  and  S_6
REMARK    5  A    between atoms: S_6  and  C_9
REMARK                            x       y       z     vdW  Elec       q    Type
REMARK                         _______ _______ _______ _____ _____    ______ ____
ROOT
ATOM      1  O   UNL     1       2.297   8.563  18.471  0.00  0.00    +0.000 OA
ATOM      2  C   UNL     1       1.771   8.241  19.539  0.00  0.00    +0.000 C 
ATOM      3  N   UNL     1       0.828   9.044  20.150  0.00  0.00    +0.000 N 
ATOM      4  C   UNL     1       0.132   8.771  21.418  0.00  0.00    +0.000 C 
ATOM      5  C   UNL     1       0.108  10.012  22.332  0.00  0.00    +0.000 C 
ATOM      6  N   UNL     1      -0.371  11.172  21.588  0.00  0.00    +0.000 N 
ATOM      7  C   UNL     1      -1.433  11.916  22.028  0.00  0.00    +0.000 A 
ATOM      8  N   UNL     1      -2.053  11.550  23.161  0.00  0.00    +0.000 NA
ATOM      9  C   UNL     1      -3.092  12.292  23.582  0.00  0.00    +0.000 A 
ATOM     10  C   UNL     1      -3.548  13.398  22.912  0.00  0.00    +0.000 A 
ATOM     11  C   UNL     1      -2.866  13.697  21.767  0.00  0.00    +0.000 A 
ATOM     12  N   UNL     1      -1.821  12.980  21.310  0.00  0.00    +0.000 NA
ATOM     13  C   UNL     1       0.314  11.480  20.336  0.00  0.00    +0.000 C 
ATOM     14  C   UNL     1       0.335  10.234  19.434  0.00  0.00    +0.000 C 
ENDROOT
BRANCH   2  15
ATOM     15  C   UNL     1       2.190   6.954  20.230  0.00  0.00    +0.000 C 
BRANCH  15  16
ATOM     16  C   UNL     1       2.935   6.081  19.226  0.00  0.00    +0.000 C 
BRANCH  16  17
ATOM     17  N   UNL     1       3.819   5.122  19.913  0.00  0.00    +0.000 NA
ATOM     18  H   UNL     1       3.589   4.901  20.884  0.00  0.00    +0.000 HD
BRANCH  17  19
ATOM     19  S   UNL     1       4.132   3.671  19.095  0.00  0.00    +0.000 S 
ATOM     20  O   UNL     1       4.996   2.903  19.964  0.00  0.00    +0.000 OA
ATOM     21  O   UNL     1       2.865   3.142  18.642  0.00  0.00    +0.000 OA
BRANCH  19  22
ATOM     22  C   UNL     1       5.075   4.177  17.678  0.00  0.00    +0.000 A 
ATOM     23  C   UNL     1       6.404   4.587  17.829  0.00  0.00    +0.000 A 
ATOM     24  C   UNL     1       7.166   4.882  16.694  0.00  0.00    +0.000 A 
ATOM     25  C   UNL     1       6.600   4.762  15.424  0.00  0.00    +0.000 A 
ATOM     26 CL   UNL     1       7.550   5.100  14.029  0.00  0.00    +0.000 Cl
ATOM     27  C   UNL     1       5.276   4.353  15.273  0.00  0.00    +0.000 A 
ATOM     28  C   UNL     1       4.511   4.050  16.401  0.00  0.00    +0.000 A 
ENDBRANCH  19  22
ENDBRANCH  17  19
ENDBRANCH  16  17
ENDBRANCH  15  16
ENDBRANCH   2  15
TORSDOF 5
ENDMDL
MODEL 9
REMARK VINA RESULT:      -7.0      6.957      8.176
REMARK  Name = 
REMARK  5 active torsions:
REMARK  status: ('A' for Active; 'I' for Inactive)
REMARK    1  A    between atoms: C_2  and  C_3
REMARK    2  A    between atoms: C_3  and  C_4
REMARK    3  A    between atoms: C_4  and  N_5
REMARK    4  A    between atoms: N_5  and  S_6
REMARK    5  A    between atoms: S_6  and  C_9
REMARK                            x       y       z     vdW  Elec       q    Type
REMARK                         _______ _______ _______ _____ _____    ______ ____
ROOT
ATOM      1  O   UNL     1       9.189   9.273  19.718  0.00  0.00    +0.000 OA
ATOM      2  C   UNL     1       8.829   9.927  18.737  0.00  0.00    +0.000 C 
ATOM      3  N   UNL     1       9.242  11.231  18.549  0.00  0.00    +0.000 N 
ATOM      4  C   UNL     1       8.883  12.113  17.425  0.00  0.00    +0.000 C 
ATOM      5  C   UNL     1       8.481  13.519  17.911  0.00  0.00    +0.000 C 
ATOM      6  N   UNL     1       9.492  14.042  18.822  0.00  0.00    +0.000 N 
ATOM      7  C   UNL     1      10.097  15.250  18.603  0.00  0.00    +0.000 A 
ATOM      8  N   UNL     1       9.757  15.955  17.511  0.00  0.00    +0.000 NA
ATOM      9  C   UNL     1      10.357  17.141  17.311  0.00  0.00    +0.000 A 
ATOM     10  C   UNL     1      11.296  17.664  18.163  0.00  0.00    +0.000 A 
ATOM     11  C   UNL     1      11.588  16.882  19.245  0.00  0.00    +0.000 A 
ATOM     12  N   UNL     1      11.012  15.687  19.482  0.00  0.00    +0.000 NA
ATOM     13  C   UNL     1       9.854  13.199  19.959  0.00  0.00    +0.000 C 
ATOM     14  C   UNL     1      10.250  11.798  19.462  0.00  0.00    +0.000 C 
ENDROOT
BRANCH   2  15
ATOM     15  C   UNL     1       7.877   9.311  17.725  0.00  0.00    +0.000 C 
BRANCH  15  16
ATOM     16  C   UNL     1       7.863   7.800  17.925  0.00  0.00    +0.000 C 
BRANCH  16  17
ATOM     17  N   UNL     1       7.139   7.127  16.831  0.00  0.00    +0.000 NA
ATOM     18  H   UNL     1       7.393   7.400  15.879  0.00  0.00    +0.000 HD
BRANCH  17  19
ATOM     19  S   UNL     1       7.072   5.436  16.903  0.00  0.00    +0.000 S 
ATOM     20  O   UNL     1       7.125   4.977  15.533  0.00  0.00    +0.000 OA
ATOM     21  O   UNL     1       8.048   5.000  17.876  0.00  0.00    +0.000 OA
BRANCH  19  22
ATOM     22  C   UNL     1       5.447   5.102  17.539  0.00  0.00    +0.000 A 
ATOM     23  C   UNL     1       4.519   4.404  16.760  0.00  0.00    +0.000 A 
ATOM     24  C   UNL     1       3.282   4.057  17.312  0.00  0.00    +0.000 A 
ATOM     25  C   UNL     1       2.984   4.404  18.631  0.00  0.00    +0.000 A 
ATOM     26 CL   UNL     1       1.470   3.951  19.313  0.00  0.00    +0.000 Cl
ATOM     27  C   UNL     1       3.910   5.099  19.407  0.00  0.00    +0.000 A 
ATOM     28  C   UNL     1       5.149   5.443  18.865  0.00  0.00    +0.000 A 
ENDBRANCH  19  22
ENDBRANCH  17  19
ENDBRANCH  16  17
ENDBRANCH  15  16
ENDBRANCH   2  15
TORSDOF 5
ENDMDL
