MODEL 1
REMARK VINA RESULT:      -8.6      0.000      0.000
REMARK  Name = 
REMARK  4 active torsions:
REMARK  status: ('A' for Active; 'I' for Inactive)
REMARK    1  A    between atoms: N_1  and  C_2
REMARK    2  A    between atoms: C_2  and  C_3
REMARK    3  A    between atoms: N_5  and  C_6
REMARK    4  A    between atoms: C_8  and  C_9
REMARK                            x       y       z     vdW  Elec       q    Type
REMARK                         _______ _______ _______ _____ _____    ______ ____
ROOT
ATOM      1  C   UNL     1       4.102   5.532  18.110  0.00  0.00    +0.000 A 
ATOM      2  N   UNL     1       3.581   6.781  18.190  0.00  0.00    +0.000 NA
ATOM      3  C   UNL     1       2.461   6.981  18.911  0.00  0.00    +0.000 A 
ATOM      4  N   UNL     1       1.795   6.012  19.549  0.00  0.00    +0.000 NA
ATOM      5  C   UNL     1       2.287   4.770  19.446  0.00  0.00    +0.000 A 
ATOM      6  C   UNL     1       3.440   4.467  18.727  0.00  0.00    +0.000 A 
ATOM      7  C   UNL     1       3.868   3.014  18.723  0.00  0.00    +0.000 C 
ATOM      8  C   UNL     1       4.410   2.607  20.106  0.00  0.00    +0.000 C 
ATOM      9  N   UNL     1       3.370   2.144  21.030  0.00  0.00    +0.000 NA
ATOM     10  C   UNL     1       2.402   3.187  21.402  0.00  0.00    +0.000 C 
ATOM     11  C   UNL     1       1.550   3.718  20.241  0.00  0.00    +0.000 C 
ATOM     12  H   UNL     1       3.823   1.810  21.883  0.00  0.00    +0.000 HD
ENDROOT
BRANCH   1  15
ATOM     13  C   UNL     1       6.591   4.478  15.585  0.00  0.00    +0.000 C 
ATOM     14  C   UNL     1       5.529   5.499  16.022  0.00  0.00    +0.000 C 
ATOM     15  N   UNL     1       5.320   5.446  17.470  0.00  0.00    +0.000 N 
ATOM     16  C   UNL     1       6.565   5.544  18.248  0.00  0.00    +0.000 C 
ATOM     17  C   UNL     1       7.602   4.537  17.712  0.00  0.00    +0.000 C 
ATOM     18  O   UNL     1       7.829   4.689  16.295  0.00  0.00    +0.000 OA
BRANCH  13  19
ATOM     19  C   UNL     1       6.819   4.557  14.061  0.00  0.00    +0.000 C 
BRANCH  19  20
ATOM     20  N   UNL     1       7.863   5.511  13.672  0.00  0.00    +0.000 NA
ATOM     21  H   UNL     1       7.719   5.792  12.702  0.00  0.00    +0.000 HD
ATOM     22  H   UNL     1       8.760   5.020  13.696  0.00  0.00    +0.000 HD
ENDBRANCH  19  20
ENDBRANCH  13  19
ENDBRANCH   1  15
BRANCH   3  23
ATOM     23  C   UNL     1       1.929   8.341  19.078  0.00  0.00    +0.000 A 
ATOM     24  C   UNL     1       2.001   9.297  18.045  0.00  0.00    +0.000 A 
ATOM     25  C   UNL     1       1.497  10.585  18.215  0.00  0.00    +0.000 A 
ATOM     26  C   UNL     1       0.917  10.898  19.429  0.00  0.00    +0.000 A 
ATOM     27  N   UNL     1       0.808  10.023  20.451  0.00  0.00    +0.000 NA
ATOM     28  C   UNL     1       1.313   8.774  20.248  0.00  0.00    +0.000 A 
ENDBRANCH   3  23
TORSDOF 4
ENDMDL
MODEL 2
REMARK VINA RESULT:      -8.5      0.810      1.112
REMARK  Name = 
REMARK  4 active torsions:
REMARK  status: ('A' for Active; 'I' for Inactive)
REMARK    1  A    between atoms: N_1  and  C_2
REMARK    2  A    between atoms: C_2  and  C_3
REMARK    3  A    between atoms: N_5  and  C_6
REMARK    4  A    between atoms: C_8  and  C_9
REMARK                            x       y       z     vdW  Elec       q    Type
REMARK                         _______ _______ _______ _____ _____    ______ ____
ROOT
ATOM      1  C   UNL     1       4.048   5.602  18.024  0.00  0.00    +0.000 A 
ATOM      2  N   UNL     1       3.548   6.861  18.091  0.00  0.00    +0.000 NA
ATOM      3  C   UNL     1       2.439   7.090  18.820  0.00  0.00    +0.000 A 
ATOM      4  N   UNL     1       1.764   6.141  19.478  0.00  0.00    +0.000 NA
ATOM      5  C   UNL     1       2.235   4.890  19.389  0.00  0.00    +0.000 A 
ATOM      6  C   UNL     1       3.375   4.557  18.663  0.00  0.00    +0.000 A 
ATOM      7  C   UNL     1       3.779   3.097  18.677  0.00  0.00    +0.000 C 
ATOM      8  C   UNL     1       4.329   2.702  20.059  0.00  0.00    +0.000 C 
ATOM      9  N   UNL     1       3.291   2.270  21.001  0.00  0.00    +0.000 NA
ATOM     10  C   UNL     1       2.344   3.333  21.367  0.00  0.00    +0.000 C 
ATOM     11  C   UNL     1       1.489   3.861  20.206  0.00  0.00    +0.000 C 
ATOM     12  H   UNL     1       3.746   1.940  21.854  0.00  0.00    +0.000 HD
ENDROOT
BRANCH   1  15
ATOM     13  C   UNL     1       6.498   4.457  15.501  0.00  0.00    +0.000 C 
ATOM     14  C   UNL     1       5.451   5.500  15.923  0.00  0.00    +0.000 C 
ATOM     15  N   UNL     1       5.258   5.487  17.373  0.00  0.00    +0.000 N 
ATOM     16  C   UNL     1       6.512   5.593  18.136  0.00  0.00    +0.000 C 
ATOM     17  C   UNL     1       7.533   4.562  17.615  0.00  0.00    +0.000 C 
ATOM     18  O   UNL     1       7.746   4.674  16.192  0.00  0.00    +0.000 OA
BRANCH  13  19
ATOM     19  C   UNL     1       6.711   4.493  13.973  0.00  0.00    +0.000 C 
BRANCH  19  20
ATOM     20  N   UNL     1       6.289   3.264  13.293  0.00  0.00    +0.000 NA
ATOM     21  H   UNL     1       5.363   3.403  12.889  0.00  0.00    +0.000 HD
ATOM     22  H   UNL     1       6.182   2.535  14.003  0.00  0.00    +0.000 HD
ENDBRANCH  19  20
ENDBRANCH  13  19
ENDBRANCH   1  15
BRANCH   3  23
ATOM     23  C   UNL     1       1.931   8.460  18.972  0.00  0.00    +0.000 A 
ATOM     24  C   UNL     1       1.204   8.859  20.112  0.00  0.00    +0.000 A 
ATOM     25  C   UNL     1       0.724  10.160  20.244  0.00  0.00    +0.000 A 
ATOM     26  C   UNL     1       0.985  11.054  19.225  0.00  0.00    +0.000 A 
ATOM     27  N   UNL     1       1.684  10.735  18.115  0.00  0.00    +0.000 NA
ATOM     28  C   UNL     1       2.138   9.454  18.020  0.00  0.00    +0.000 A 
ENDBRANCH   3  23
TORSDOF 4
ENDMDL
MODEL 3
REMARK VINA RESULT:      -8.4      1.000      1.055
REMARK  Name = 
REMARK  4 active torsions:
REMARK  status: ('A' for Active; 'I' for Inactive)
REMARK    1  A    between atoms: N_1  and  C_2
REMARK    2  A    between atoms: C_2  and  C_3
REMARK    3  A    between atoms: N_5  and  C_6
REMARK    4  A    between atoms: C_8  and  C_9
REMARK                            x       y       z     vdW  Elec       q    Type
REMARK                         _______ _______ _______ _____ _____    ______ ____
ROOT
ATOM      1  C   UNL     1       3.972   5.442  17.366  0.00  0.00    +0.000 A 
ATOM      2  N   UNL     1       3.537   6.665  17.757  0.00  0.00    +0.000 NA
ATOM      3  C   UNL     1       2.344   6.773  18.372  0.00  0.00    +0.000 A 
ATOM      4  N   UNL     1       1.525   5.742  18.609  0.00  0.00    +0.000 NA
ATOM      5  C   UNL     1       1.935   4.536  18.195  0.00  0.00    +0.000 A 
ATOM      6  C   UNL     1       3.153   4.325  17.554  0.00  0.00    +0.000 A 
ATOM      7  C   UNL     1       3.469   2.896  17.163  0.00  0.00    +0.000 C 
ATOM      8  C   UNL     1       3.779   2.050  18.412  0.00  0.00    +0.000 C 
ATOM      9  N   UNL     1       2.586   1.460  19.030  0.00  0.00    +0.000 NA
ATOM     10  C   UNL     1       1.655   2.453  19.585  0.00  0.00    +0.000 C 
ATOM     11  C   UNL     1       1.017   3.388  18.547  0.00  0.00    +0.000 C 
ATOM     12  H   UNL     1       2.887   0.845  19.788  0.00  0.00    +0.000 HD
ENDROOT
BRANCH   1  15
ATOM     13  C   UNL     1       6.759   4.585  15.090  0.00  0.00    +0.000 C 
ATOM     14  C   UNL     1       5.638   5.566  15.468  0.00  0.00    +0.000 C 
ATOM     15  N   UNL     1       5.258   5.408  16.872  0.00  0.00    +0.000 N 
ATOM     16  C   UNL     1       6.400   5.455  17.800  0.00  0.00    +0.000 C 
ATOM     17  C   UNL     1       7.507   4.495  17.323  0.00  0.00    +0.000 C 
ATOM     18  O   UNL     1       7.901   4.750  15.957  0.00  0.00    +0.000 OA
BRANCH  13  19
ATOM     19  C   UNL     1       7.167   4.774  13.614  0.00  0.00    +0.000 C 
BRANCH  19  20
ATOM     20  N   UNL     1       8.294   5.694  13.430  0.00  0.00    +0.000 NA
ATOM     21  H   UNL     1       9.066   5.198  12.985  0.00  0.00    +0.000 HD
ATOM     22  H   UNL     1       8.629   5.966  14.358  0.00  0.00    +0.000 HD
ENDBRANCH  19  20
ENDBRANCH  13  19
ENDBRANCH   1  15
BRANCH   3  23
ATOM     23  C   UNL     1       1.895   8.077  18.878  0.00  0.00    +0.000 A 
ATOM     24  C   UNL     1       1.815   9.209  18.042  0.00  0.00    +0.000 A 
ATOM     25  C   UNL     1       1.391  10.442  18.533  0.00  0.00    +0.000 A 
ATOM     26  C   UNL     1       1.045  10.524  19.868  0.00  0.00    +0.000 A 
ATOM     27  N   UNL     1       1.090   9.474  20.714  0.00  0.00    +0.000 NA
ATOM     28  C   UNL     1       1.510   8.284  20.199  0.00  0.00    +0.000 A 
ENDBRANCH   3  23
TORSDOF 4
ENDMDL
MODEL 4
REMARK VINA RESULT:      -8.2      2.317      6.433
REMARK  Name = 
REMARK  4 active torsions:
REMARK  status: ('A' for Active; 'I' for Inactive)
REMARK    1  A    between atoms: N_1  and  C_2
REMARK    2  A    between atoms: C_2  and  C_3
REMARK    3  A    between atoms: N_5  and  C_6
REMARK    4  A    between atoms: C_8  and  C_9
REMARK                            x       y       z     vdW  Elec       q    Type
REMARK                         _______ _______ _______ _____ _____    ______ ____
ROOT
ATOM      1  C   UNL     1       3.182   6.287  18.865  0.00  0.00    +0.000 A 
ATOM      2  N   UNL     1       4.054   6.241  17.828  0.00  0.00    +0.000 NA
ATOM      3  C   UNL     1       4.617   5.064  17.494  0.00  0.00    +0.000 A 
ATOM      4  N   UNL     1       4.392   3.914  18.140  0.00  0.00    +0.000 NA
ATOM      5  C   UNL     1       3.556   3.961  19.186  0.00  0.00    +0.000 A 
ATOM      6  C   UNL     1       2.925   5.129  19.604  0.00  0.00    +0.000 A 
ATOM      7  C   UNL     1       1.999   5.005  20.796  0.00  0.00    +0.000 C 
ATOM      8  C   UNL     1       0.719   4.242  20.409  0.00  0.00    +0.000 C 
ATOM      9  N   UNL     1       0.843   2.786  20.541  0.00  0.00    +0.000 NA
ATOM     10  C   UNL     1       1.818   2.189  19.618  0.00  0.00    +0.000 C 
ATOM     11  C   UNL     1       3.271   2.630  19.842  0.00  0.00    +0.000 C 
ATOM     12  H   UNL     1      -0.071   2.368  20.356  0.00  0.00    +0.000 HD
ENDROOT
BRANCH   1  15
ATOM     13  C   UNL     1       0.698   8.715  20.137  0.00  0.00    +0.000 C 
ATOM     14  C   UNL     1       2.058   8.023  20.320  0.00  0.00    +0.000 C 
ATOM     15  N   UNL     1       2.552   7.500  19.046  0.00  0.00    +0.000 N 
ATOM     16  C   UNL     1       2.556   8.496  17.962  0.00  0.00    +0.000 C 
ATOM     17  C   UNL     1       1.182   9.191  17.881  0.00  0.00    +0.000 C 
ATOM     18  O   UNL     1       0.782   9.760  19.146  0.00  0.00    +0.000 OA
BRANCH  13  19
ATOM     19  C   UNL     1       0.195   9.281  21.482  0.00  0.00    +0.000 C 
BRANCH  19  20
ATOM     20  N   UNL     1       1.272   9.582  22.431  0.00  0.00    +0.000 NA
ATOM     21  H   UNL     1       1.634   8.711  22.819  0.00  0.00    +0.000 HD
ATOM     22  H   UNL     1       0.862  10.094  23.216  0.00  0.00    +0.000 HD
ENDBRANCH  19  20
ENDBRANCH  13  19
ENDBRANCH   1  15
BRANCH   3  23
ATOM     23  C   UNL     1       5.499   4.978  16.322  0.00  0.00    +0.000 A 
ATOM     24  C   UNL     1       5.158   4.209  15.192  0.00  0.00    +0.000 A 
ATOM     25  C   UNL     1       6.004   4.132  14.087  0.00  0.00    +0.000 A 
ATOM     26  C   UNL     1       7.190   4.838  14.129  0.00  0.00    +0.000 A 
ATOM     27  N   UNL     1       7.567   5.600  15.178  0.00  0.00    +0.000 NA
ATOM     28  C   UNL     1       6.715   5.651  16.240  0.00  0.00    +0.000 A 
ENDBRANCH   3  23
TORSDOF 4
ENDMDL
MODEL 5
REMARK VINA RESULT:      -7.7      1.088      1.454
REMARK  Name = 
REMARK  4 active torsions:
REMARK  status: ('A' for Active; 'I' for Inactive)
REMARK    1  A    between atoms: N_1  and  C_2
REMARK    2  A    between atoms: C_2  and  C_3
REMARK    3  A    between atoms: N_5  and  C_6
REMARK    4  A    between atoms: C_8  and  C_9
REMARK                            x       y       z     vdW  Elec       q    Type
REMARK                         _______ _______ _______ _____ _____    ______ ____
ROOT
ATOM      1  C   UNL     1       3.709   5.875  18.197  0.00  0.00    +0.000 A 
ATOM      2  N   UNL     1       3.146   7.056  18.554  0.00  0.00    +0.000 NA
ATOM      3  C   UNL     1       2.172   7.066  19.483  0.00  0.00    +0.000 A 
ATOM      4  N   UNL     1       1.689   5.969  20.077  0.00  0.00    +0.000 NA
ATOM      5  C   UNL     1       2.218   4.796  19.703  0.00  0.00    +0.000 A 
ATOM      6  C   UNL     1       3.231   4.686  18.754  0.00  0.00    +0.000 A 
ATOM      7  C   UNL     1       3.726   3.286  18.458  0.00  0.00    +0.000 C 
ATOM      8  C   UNL     1       4.538   2.738  19.645  0.00  0.00    +0.000 C 
ATOM      9  N   UNL     1       3.715   2.071  20.660  0.00  0.00    +0.000 NA
ATOM     10  C   UNL     1       2.780   2.972  21.349  0.00  0.00    +0.000 C 
ATOM     11  C   UNL     1       1.699   3.589  20.450  0.00  0.00    +0.000 C 
ATOM     12  H   UNL     1       4.336   1.659  21.359  0.00  0.00    +0.000 HD
ENDROOT
BRANCH   1  15
ATOM     13  C   UNL     1       6.412   4.766  15.929  0.00  0.00    +0.000 C 
ATOM     14  C   UNL     1       4.958   5.237  16.093  0.00  0.00    +0.000 C 
ATOM     15  N   UNL     1       4.788   5.975  17.345  0.00  0.00    +0.000 N 
ATOM     16  C   UNL     1       5.767   7.059  17.527  0.00  0.00    +0.000 C 
ATOM     17  C   UNL     1       7.194   6.527  17.285  0.00  0.00    +0.000 C 
ATOM     18  O   UNL     1       7.325   5.880  16.001  0.00  0.00    +0.000 OA
BRANCH  13  19
ATOM     19  C   UNL     1       6.586   4.007  14.596  0.00  0.00    +0.000 C 
BRANCH  19  20
ATOM     20  N   UNL     1       5.418   4.095  13.714  0.00  0.00    +0.000 NA
ATOM     21  H   UNL     1       5.693   3.848  12.763  0.00  0.00    +0.000 HD
ATOM     22  H   UNL     1       5.126   5.075  13.680  0.00  0.00    +0.000 HD
ENDBRANCH  19  20
ENDBRANCH  13  19
ENDBRANCH   1  15
BRANCH   3  23
ATOM     23  C   UNL     1       1.610   8.344  19.943  0.00  0.00    +0.000 A 
ATOM     24  C   UNL     1       1.280   8.564  21.295  0.00  0.00    +0.000 A 
ATOM     25  C   UNL     1       0.744   9.778  21.720  0.00  0.00    +0.000 A 
ATOM     26  C   UNL     1       0.548  10.766  20.776  0.00  0.00    +0.000 A 
ATOM     27  N   UNL     1       0.855  10.619  19.470  0.00  0.00    +0.000 NA
ATOM     28  C   UNL     1       1.377   9.418  19.091  0.00  0.00    +0.000 A 
ENDBRANCH   3  23
TORSDOF 4
ENDMDL
MODEL 6
REMARK VINA RESULT:      -7.5      1.682      2.364
REMARK  Name = 
REMARK  4 active torsions:
REMARK  status: ('A' for Active; 'I' for Inactive)
REMARK    1  A    between atoms: N_1  and  C_2
REMARK    2  A    between atoms: C_2  and  C_3
REMARK    3  A    between atoms: N_5  and  C_6
REMARK    4  A    between atoms: C_8  and  C_9
REMARK                            x       y       z     vdW  Elec       q    Type
REMARK                         _______ _______ _______ _____ _____    ______ ____
ROOT
ATOM      1  C   UNL     1       3.468   5.748  18.727  0.00  0.00    +0.000 A 
ATOM      2  N   UNL     1       2.940   6.952  19.061  0.00  0.00    +0.000 NA
ATOM      3  C   UNL     1       1.930   7.003  19.951  0.00  0.00    +0.000 A 
ATOM      4  N   UNL     1       1.380   5.927  20.525  0.00  0.00    +0.000 NA
ATOM      5  C   UNL     1       1.876   4.733  20.174  0.00  0.00    +0.000 A 
ATOM      6  C   UNL     1       2.921   4.580  19.266  0.00  0.00    +0.000 A 
ATOM      7  C   UNL     1       3.370   3.161  18.990  0.00  0.00    +0.000 C 
ATOM      8  C   UNL     1       4.111   2.583  20.210  0.00  0.00    +0.000 C 
ATOM      9  N   UNL     1       3.221   1.952  21.190  0.00  0.00    +0.000 NA
ATOM     10  C   UNL     1       2.297   2.892  21.841  0.00  0.00    +0.000 C 
ATOM     11  C   UNL     1       1.279   3.549  20.899  0.00  0.00    +0.000 C 
ATOM     12  H   UNL     1       3.797   1.517  21.914  0.00  0.00    +0.000 HD
ENDROOT
BRANCH   1  15
ATOM     13  C   UNL     1       6.552   7.117  17.212  0.00  0.00    +0.000 C 
ATOM     14  C   UNL     1       5.908   6.274  18.324  0.00  0.00    +0.000 C 
ATOM     15  N   UNL     1       4.584   5.802  17.920  0.00  0.00    +0.000 N 
ATOM     16  C   UNL     1       4.572   5.130  16.610  0.00  0.00    +0.000 C 
ATOM     17  C   UNL     1       5.289   6.005  15.563  0.00  0.00    +0.000 C 
ATOM     18  O   UNL     1       6.622   6.372  15.978  0.00  0.00    +0.000 OA
BRANCH  13  19
ATOM     19  C   UNL     1       7.957   7.592  17.639  0.00  0.00    +0.000 C 
BRANCH  19  20
ATOM     20  N   UNL     1       8.375   7.083  18.949  0.00  0.00    +0.000 NA
ATOM     21  H   UNL     1       9.257   6.581  18.850  0.00  0.00    +0.000 HD
ATOM     22  H   UNL     1       7.686   6.388  19.249  0.00  0.00    +0.000 HD
ENDBRANCH  19  20
ENDBRANCH  13  19
ENDBRANCH   1  15
BRANCH   3  23
ATOM     23  C   UNL     1       1.402   8.303  20.387  0.00  0.00    +0.000 A 
ATOM     24  C   UNL     1       1.081   8.557  21.736  0.00  0.00    +0.000 A 
ATOM     25  C   UNL     1       0.578   9.792  22.138  0.00  0.00    +0.000 A 
ATOM     26  C   UNL     1       0.405  10.767  21.175  0.00  0.00    +0.000 A 
ATOM     27  N   UNL     1       0.704  10.587  19.871  0.00  0.00    +0.000 NA
ATOM     28  C   UNL     1       1.194   9.366  19.514  0.00  0.00    +0.000 A 
ENDBRANCH   3  23
TORSDOF 4
ENDMDL
MODEL 7
REMARK VINA RESULT:      -7.5      1.133      1.284
REMARK  Name = 
REMARK  4 active torsions:
REMARK  status: ('A' for Active; 'I' for Inactive)
REMARK    1  A    between atoms: N_1  and  C_2
REMARK    2  A    between atoms: C_2  and  C_3
REMARK    3  A    between atoms: N_5  and  C_6
REMARK    4  A    between atoms: C_8  and  C_9
REMARK                            x       y       z     vdW  Elec       q    Type
REMARK                         _______ _______ _______ _____ _____    ______ ____
ROOT
ATOM      1  C   UNL     1       3.410   5.919  18.454  0.00  0.00    +0.000 A 
ATOM      2  N   UNL     1       2.905   7.115  18.847  0.00  0.00    +0.000 NA
ATOM      3  C   UNL     1       1.984   7.149  19.828  0.00  0.00    +0.000 A 
ATOM      4  N   UNL     1       1.500   6.064  20.442  0.00  0.00    +0.000 NA
ATOM      5  C   UNL     1       1.970   4.877  20.035  0.00  0.00    +0.000 A 
ATOM      6  C   UNL     1       2.926   4.742  19.032  0.00  0.00    +0.000 A 
ATOM      7  C   UNL     1       3.359   3.328  18.702  0.00  0.00    +0.000 C 
ATOM      8  C   UNL     1       4.217   2.747  19.841  0.00  0.00    +0.000 C 
ATOM      9  N   UNL     1       3.429   2.101  20.896  0.00  0.00    +0.000 NA
ATOM     10  C   UNL     1       2.563   3.027  21.640  0.00  0.00    +0.000 C 
ATOM     11  C   UNL     1       1.455   3.683  20.804  0.00  0.00    +0.000 C 
ATOM     12  H   UNL     1       4.074   1.665  21.558  0.00  0.00    +0.000 HD
ENDROOT
BRANCH   1  15
ATOM     13  C   UNL     1       6.083   4.733  16.190  0.00  0.00    +0.000 C 
ATOM     14  C   UNL     1       4.610   5.129  16.373  0.00  0.00    +0.000 C 
ATOM     15  N   UNL     1       4.444   5.989  17.545  0.00  0.00    +0.000 N 
ATOM     16  C   UNL     1       5.355   7.145  17.562  0.00  0.00    +0.000 C 
ATOM     17  C   UNL     1       6.802   6.678  17.309  0.00  0.00    +0.000 C 
ATOM     18  O   UNL     1       6.923   5.903  16.097  0.00  0.00    +0.000 OA
BRANCH  13  19
ATOM     19  C   UNL     1       6.252   3.843  14.940  0.00  0.00    +0.000 C 
BRANCH  19  20
ATOM     20  N   UNL     1       6.841   4.546  13.796  0.00  0.00    +0.000 NA
ATOM     21  H   UNL     1       7.857   4.546  13.886  0.00  0.00    +0.000 HD
ATOM     22  H   UNL     1       6.551   5.526  13.848  0.00  0.00    +0.000 HD
ENDBRANCH  19  20
ENDBRANCH  13  19
ENDBRANCH   1  15
BRANCH   3  23
ATOM     23  C   UNL     1       1.489   8.441  20.324  0.00  0.00    +0.000 A 
ATOM     24  C   UNL     1       1.096   9.471  19.447  0.00  0.00    +0.000 A 
ATOM     25  C   UNL     1       0.630  10.692  19.928  0.00  0.00    +0.000 A 
ATOM     26  C   UNL     1       0.561  10.866  21.296  0.00  0.00    +0.000 A 
ATOM     27  N   UNL     1       0.912   9.915  22.186  0.00  0.00    +0.000 NA
ATOM     28  C   UNL     1       1.363   8.733  21.679  0.00  0.00    +0.000 A 
ENDBRANCH   3  23
TORSDOF 4
ENDMDL
MODEL 8
REMARK VINA RESULT:      -7.5      1.699      2.184
REMARK  Name = 
REMARK  4 active torsions:
REMARK  status: ('A' for Active; 'I' for Inactive)
REMARK    1  A    between atoms: N_1  and  C_2
REMARK    2  A    between atoms: C_2  and  C_3
REMARK    3  A    between atoms: N_5  and  C_6
REMARK    4  A    between atoms: C_8  and  C_9
REMARK                            x       y       z     vdW  Elec       q    Type
REMARK                         _______ _______ _______ _____ _____    ______ ____
ROOT
ATOM      1  C   UNL     1       3.459   5.823  18.731  0.00  0.00    +0.000 A 
ATOM      2  N   UNL     1       2.956   7.036  19.070  0.00  0.00    +0.000 NA
ATOM      3  C   UNL     1       1.946   7.104  19.957  0.00  0.00    +0.000 A 
ATOM      4  N   UNL     1       1.370   6.038  20.524  0.00  0.00    +0.000 NA
ATOM      5  C   UNL     1       1.841   4.835  20.168  0.00  0.00    +0.000 A 
ATOM      6  C   UNL     1       2.885   4.664  19.262  0.00  0.00    +0.000 A 
ATOM      7  C   UNL     1       3.304   3.237  18.980  0.00  0.00    +0.000 C 
ATOM      8  C   UNL     1       4.029   2.636  20.199  0.00  0.00    +0.000 C 
ATOM      9  N   UNL     1       3.123   2.020  21.174  0.00  0.00    +0.000 NA
ATOM     10  C   UNL     1       2.217   2.976  21.827  0.00  0.00    +0.000 C 
ATOM     11  C   UNL     1       1.216   3.661  20.885  0.00  0.00    +0.000 C 
ATOM     12  H   UNL     1       3.686   1.569  21.897  0.00  0.00    +0.000 HD
ENDROOT
BRANCH   1  15
ATOM     13  C   UNL     1       6.581   7.127  17.239  0.00  0.00    +0.000 C 
ATOM     14  C   UNL     1       5.913   6.289  18.340  0.00  0.00    +0.000 C 
ATOM     15  N   UNL     1       4.578   5.856  17.927  0.00  0.00    +0.000 N 
ATOM     16  C   UNL     1       4.553   5.199  16.610  0.00  0.00    +0.000 C 
ATOM     17  C   UNL     1       5.295   6.066  15.574  0.00  0.00    +0.000 C 
ATOM     18  O   UNL     1       6.636   6.395  15.997  0.00  0.00    +0.000 OA
BRANCH  13  19
ATOM     19  C   UNL     1       7.997   7.561  17.675  0.00  0.00    +0.000 C 
BRANCH  19  20
ATOM     20  N   UNL     1       8.111   8.996  17.955  0.00  0.00    +0.000 NA
ATOM     21  H   UNL     1       7.505   9.236  18.739  0.00  0.00    +0.000 HD
ATOM     22  H   UNL     1       7.741   9.502  17.146  0.00  0.00    +0.000 HD
ENDBRANCH  19  20
ENDBRANCH  13  19
ENDBRANCH   1  15
BRANCH   3  23
ATOM     23  C   UNL     1       1.445   8.413  20.399  0.00  0.00    +0.000 A 
ATOM     24  C   UNL     1       1.069   9.412  19.479  0.00  0.00    +0.000 A 
ATOM     25  C   UNL     1       0.598  10.651  19.909  0.00  0.00    +0.000 A 
ATOM     26  C   UNL     1       0.506  10.873  21.269  0.00  0.00    +0.000 A 
ATOM     27  N   UNL     1       0.839   9.952  22.197  0.00  0.00    +0.000 NA
ATOM     28  C   UNL     1       1.295   8.752  21.740  0.00  0.00    +0.000 A 
ENDBRANCH   3  23
TORSDOF 4
ENDMDL
MODEL 9
REMARK VINA RESULT:      -7.3      1.885      2.459
REMARK  Name = 
REMARK  4 active torsions:
REMARK  status: ('A' for Active; 'I' for Inactive)
REMARK    1  A    between atoms: N_1  and  C_2
REMARK    2  A    between atoms: C_2  and  C_3
REMARK    3  A    between atoms: N_5  and  C_6
REMARK    4  A    between atoms: C_8  and  C_9
REMARK                            x       y       z     vdW  Elec       q    Type
REMARK                         _______ _______ _______ _____ _____    ______ ____
ROOT
ATOM      1  C   UNL     1       3.472   5.767  19.014  0.00  0.00    +0.000 A 
ATOM      2  N   UNL     1       3.000   6.995  19.343  0.00  0.00    +0.000 NA
ATOM      3  C   UNL     1       1.872   7.092  20.071  0.00  0.00    +0.000 A 
ATOM      4  N   UNL     1       1.151   6.043  20.483  0.00  0.00    +0.000 NA
ATOM      5  C   UNL     1       1.594   4.828  20.133  0.00  0.00    +0.000 A 
ATOM      6  C   UNL     1       2.752   4.628  19.386  0.00  0.00    +0.000 A 
ATOM      7  C   UNL     1       3.120   3.189  19.087  0.00  0.00    +0.000 C 
ATOM      8  C   UNL     1       3.610   2.481  20.364  0.00  0.00    +0.000 C 
ATOM      9  N   UNL     1       2.528   1.885  21.155  0.00  0.00    +0.000 NA
ATOM     10  C   UNL     1       1.595   2.870  21.719  0.00  0.00    +0.000 C 
ATOM     11  C   UNL     1       0.795   3.668  20.680  0.00  0.00    +0.000 C 
ATOM     12  H   UNL     1       2.945   1.361  21.927  0.00  0.00    +0.000 HD
ENDROOT
BRANCH   1  15
ATOM     13  C   UNL     1       7.127   6.167  18.615  0.00  0.00    +0.000 C 
ATOM     14  C   UNL     1       5.946   5.247  18.962  0.00  0.00    +0.000 C 
ATOM     15  N   UNL     1       4.701   5.760  18.390  0.00  0.00    +0.000 N 
ATOM     16  C   UNL     1       4.793   6.058  16.952  0.00  0.00    +0.000 C 
ATOM     17  C   UNL     1       6.034   6.930  16.673  0.00  0.00    +0.000 C 
ATOM     18  O   UNL     1       7.245   6.336  17.187  0.00  0.00    +0.000 OA
BRANCH  13  19
ATOM     19  C   UNL     1       8.439   5.607  19.205  0.00  0.00    +0.000 C 
BRANCH  19  20
ATOM     20  N   UNL     1       8.340   5.253  20.625  0.00  0.00    +0.000 NA
ATOM     21  H   UNL     1       7.372   5.022  20.849  0.00  0.00    +0.000 HD
ATOM     22  H   UNL     1       8.566   6.088  21.171  0.00  0.00    +0.000 HD
ENDBRANCH  19  20
ENDBRANCH  13  19
ENDBRANCH   1  15
BRANCH   3  23
ATOM     23  C   UNL     1       1.391   8.410  20.508  0.00  0.00    +0.000 A 
ATOM     24  C   UNL     1       0.970   9.388  19.586  0.00  0.00    +0.000 A 
ATOM     25  C   UNL     1       0.520  10.636  20.011  0.00  0.00    +0.000 A 
ATOM     26  C   UNL     1       0.493  10.888  21.368  0.00  0.00    +0.000 A 
ATOM     27  N   UNL     1       0.873   9.988  22.300  0.00  0.00    +0.000 NA
ATOM     28  C   UNL     1       1.308   8.779  21.848  0.00  0.00    +0.000 A 
ENDBRANCH   3  23
TORSDOF 4
ENDMDL
