MODEL 1
REMARK VINA RESULT:      -8.1      0.000      0.000
REMARK  Name = 
REMARK  6 active torsions:
REMARK  status: ('A' for Active; 'I' for Inactive)
REMARK    1  A    between atoms: C_1  and  C_2
REMARK    2  A    between atoms: N_6  and  N_7
REMARK    3  A    between atoms: N_7  and  C_8
REMARK    4  A    between atoms: C_11  and  C_12
REMARK    5  A    between atoms: C_20  and  C_21
REMARK    6  A    between atoms: C_21  and  O_23
REMARK                            x       y       z     vdW  Elec       q    Type
REMARK                         _______ _______ _______ _____ _____    ______ ____
ROOT
ATOM      1  C   UNL     1       1.857   2.794  18.329  0.00  0.00    +0.000 C 
ATOM      2  C   UNL     1       2.943   3.484  19.166  0.00  0.00    +0.000 C 
ATOM      3  C   UNL     1       2.422   3.871  20.547  0.00  0.00    +0.000 C 
ATOM      4  C   UNL     1       1.463   5.038  20.444  0.00  0.00    +0.000 C 
ATOM      5  C   UNL     1       2.230   6.216  19.903  0.00  0.00    +0.000 C 
ATOM      6  N   UNL     1       2.142   7.433  20.356  0.00  0.00    +0.000 NA
ATOM      7  C   UNL     1       3.149   5.945  18.707  0.00  0.00    +0.000 A 
ATOM      8  N   UNL     1       3.565   6.950  18.001  0.00  0.00    +0.000 NA
ATOM      9  C   UNL     1       4.396   6.690  16.944  0.00  0.00    +0.000 A 
ATOM     10  C   UNL     1       4.832   5.478  16.580  0.00  0.00    +0.000 A 
ATOM     11  C   UNL     1       4.368   4.347  17.396  0.00  0.00    +0.000 A 
ATOM     12  O   UNL     1       4.743   3.210  17.099  0.00  0.00    +0.000 OA
ATOM     13  N   UNL     1       3.513   4.630  18.447  0.00  0.00    +0.000 N 
ENDROOT
BRANCH   6  14
ATOM     14  N   UNL     1       1.273   7.636  21.390  0.00  0.00    +0.000 N 
ATOM     15  H   UNL     1       1.604   7.367  22.318  0.00  0.00    +0.000 HD
BRANCH  14  16
ATOM     16  C   UNL     1       0.622   8.892  21.458  0.00  0.00    +0.000 A 
ATOM     17  C   UNL     1       0.283   9.625  20.317  0.00  0.00    +0.000 A 
ATOM     18  C   UNL     1      -0.440  10.819  20.415  0.00  0.00    +0.000 A 
ATOM     19  C   UNL     1      -0.885  11.306  21.653  0.00  0.00    +0.000 A 
ATOM     20  C   UNL     1      -0.558  10.553  22.791  0.00  0.00    +0.000 A 
ATOM     21  C   UNL     1       0.172   9.362  22.697  0.00  0.00    +0.000 A 
BRANCH  19  22
ATOM     22  C   UNL     1      -1.656  12.600  21.757  0.00  0.00    +0.000 C 
ATOM     23  C   UNL     1      -2.692  12.961  20.717  0.00  0.00    +0.000 C 
ATOM     24  C   UNL     1      -3.129  12.573  22.097  0.00  0.00    +0.000 C 
ENDBRANCH  19  22
ENDBRANCH  14  16
ENDBRANCH   6  14
BRANCH  10  25
ATOM     25  C   UNL     1       5.711   5.332  15.402  0.00  0.00    +0.000 C 
ATOM     26  O   UNL     1       6.774   5.923  15.278  0.00  0.00    +0.000 OA
BRANCH  25  27
ATOM     27  O   UNL     1       5.250   4.490  14.450  0.00  0.00    +0.000 OA
ATOM     28  H   UNL     1       4.673   4.912  13.768  0.00  0.00    +0.000 HD
ENDBRANCH  25  27
ENDBRANCH  10  25
TORSDOF 5
ENDMDL
MODEL 2
REMARK VINA RESULT:      -8.1      0.629      1.291
REMARK  Name = 
REMARK  6 active torsions:
REMARK  status: ('A' for Active; 'I' for Inactive)
REMARK    1  A    between atoms: C_1  and  C_2
REMARK    2  A    between atoms: N_6  and  N_7
REMARK    3  A    between atoms: N_7  and  C_8
REMARK    4  A    between atoms: C_11  and  C_12
REMARK    5  A    between atoms: C_20  and  C_21
REMARK    6  A    between atoms: C_21  and  O_23
REMARK                            x       y       z     vdW  Elec       q    Type
REMARK                         _______ _______ _______ _____ _____    ______ ____
ROOT
ATOM      1  C   UNL     1       1.849   2.747  18.296  0.00  0.00    +0.000 C 
ATOM      2  C   UNL     1       2.930   3.430  19.145  0.00  0.00    +0.000 C 
ATOM      3  C   UNL     1       2.402   3.801  20.528  0.00  0.00    +0.000 C 
ATOM      4  C   UNL     1       1.441   4.968  20.432  0.00  0.00    +0.000 C 
ATOM      5  C   UNL     1       2.210   6.152  19.908  0.00  0.00    +0.000 C 
ATOM      6  N   UNL     1       2.118   7.365  20.374  0.00  0.00    +0.000 NA
ATOM      7  C   UNL     1       3.135   5.896  18.714  0.00  0.00    +0.000 A 
ATOM      8  N   UNL     1       3.554   6.909  18.021  0.00  0.00    +0.000 NA
ATOM      9  C   UNL     1       4.390   6.662  16.966  0.00  0.00    +0.000 A 
ATOM     10  C   UNL     1       4.829   5.454  16.591  0.00  0.00    +0.000 A 
ATOM     11  C   UNL     1       4.363   4.313  17.392  0.00  0.00    +0.000 A 
ATOM     12  O   UNL     1       4.741   3.181  17.085  0.00  0.00    +0.000 OA
ATOM     13  N   UNL     1       3.502   4.584  18.441  0.00  0.00    +0.000 N 
ENDROOT
BRANCH   6  14
ATOM     14  N   UNL     1       1.244   7.555  21.406  0.00  0.00    +0.000 N 
ATOM     15  H   UNL     1       1.560   7.252  22.329  0.00  0.00    +0.000 HD
BRANCH  14  16
ATOM     16  C   UNL     1       0.618   8.822  21.505  0.00  0.00    +0.000 A 
ATOM     17  C   UNL     1      -0.019   9.255  22.672  0.00  0.00    +0.000 A 
ATOM     18  C   UNL     1      -0.549  10.547  22.768  0.00  0.00    +0.000 A 
ATOM     19  C   UNL     1      -0.430  11.467  21.716  0.00  0.00    +0.000 A 
ATOM     20  C   UNL     1       0.229  11.031  20.556  0.00  0.00    +0.000 A 
ATOM     21  C   UNL     1       0.754   9.736  20.454  0.00  0.00    +0.000 A 
BRANCH  19  22
ATOM     22  C   UNL     1      -1.012  12.856  21.817  0.00  0.00    +0.000 C 
ATOM     23  C   UNL     1      -1.157  13.530  23.162  0.00  0.00    +0.000 C 
ATOM     24  C   UNL     1      -0.123  14.019  22.195  0.00  0.00    +0.000 C 
ENDBRANCH  19  22
ENDBRANCH  14  16
ENDBRANCH   6  14
BRANCH  10  25
ATOM     25  C   UNL     1       5.715   5.322  15.416  0.00  0.00    +0.000 C 
ATOM     26  O   UNL     1       6.769   5.929  15.295  0.00  0.00    +0.000 OA
BRANCH  25  27
ATOM     27  O   UNL     1       5.270   4.474  14.461  0.00  0.00    +0.000 OA
ATOM     28  H   UNL     1       5.822   3.664  14.336  0.00  0.00    +0.000 HD
ENDBRANCH  25  27
ENDBRANCH  10  25
TORSDOF 5
ENDMDL
MODEL 3
REMARK VINA RESULT:      -8.0      0.512      1.104
REMARK  Name = 
REMARK  6 active torsions:
REMARK  status: ('A' for Active; 'I' for Inactive)
REMARK    1  A    between atoms: C_1  and  C_2
REMARK    2  A    between atoms: N_6  and  N_7
REMARK    3  A    between atoms: N_7  and  C_8
REMARK    4  A    between atoms: C_11  and  C_12
REMARK    5  A    between atoms: C_20  and  C_21
REMARK    6  A    between atoms: C_21  and  O_23
REMARK                            x       y       z     vdW  Elec       q    Type
REMARK                         _______ _______ _______ _____ _____    ______ ____
ROOT
ATOM      1  C   UNL     1       2.077   2.719  18.030  0.00  0.00    +0.000 C 
ATOM      2  C   UNL     1       3.144   3.373  18.919  0.00  0.00    +0.000 C 
ATOM      3  C   UNL     1       2.583   3.729  20.293  0.00  0.00    +0.000 C 
ATOM      4  C   UNL     1       1.640   4.910  20.191  0.00  0.00    +0.000 C 
ATOM      5  C   UNL     1       2.437   6.093  19.707  0.00  0.00    +0.000 C 
ATOM      6  N   UNL     1       2.349   7.298  20.190  0.00  0.00    +0.000 NA
ATOM      7  C   UNL     1       3.392   5.843  18.534  0.00  0.00    +0.000 A 
ATOM      8  N   UNL     1       3.842   6.861  17.870  0.00  0.00    +0.000 NA
ATOM      9  C   UNL     1       4.704   6.620  16.834  0.00  0.00    +0.000 A 
ATOM     10  C   UNL     1       5.137   5.413  16.451  0.00  0.00    +0.000 A 
ATOM     11  C   UNL     1       4.634   4.266  17.220  0.00  0.00    +0.000 A 
ATOM     12  O   UNL     1       5.007   3.133  16.905  0.00  0.00    +0.000 OA
ATOM     13  N   UNL     1       3.749   4.531  18.250  0.00  0.00    +0.000 N 
ENDROOT
BRANCH   6  14
ATOM     14  N   UNL     1       1.450   7.484  21.201  0.00  0.00    +0.000 N 
ATOM     15  H   UNL     1       1.783   7.285  22.146  0.00  0.00    +0.000 HD
BRANCH  14  16
ATOM     16  C   UNL     1       0.704   8.688  21.199  0.00  0.00    +0.000 A 
ATOM     17  C   UNL     1       0.130   9.218  22.358  0.00  0.00    +0.000 A 
ATOM     18  C   UNL     1      -0.523  10.456  22.339  0.00  0.00    +0.000 A 
ATOM     19  C   UNL     1      -0.595  11.227  21.170  0.00  0.00    +0.000 A 
ATOM     20  C   UNL     1       0.002  10.698  20.016  0.00  0.00    +0.000 A 
ATOM     21  C   UNL     1       0.650   9.456  20.030  0.00  0.00    +0.000 A 
BRANCH  19  22
ATOM     22  C   UNL     1      -1.309  12.557  21.149  0.00  0.00    +0.000 C 
ATOM     23  C   UNL     1      -1.464  13.323  19.855  0.00  0.00    +0.000 C 
ATOM     24  C   UNL     1      -2.661  12.675  20.481  0.00  0.00    +0.000 C 
ENDBRANCH  19  22
ENDBRANCH  14  16
ENDBRANCH   6  14
BRANCH  10  25
ATOM     25  C   UNL     1       6.053   5.288  15.298  0.00  0.00    +0.000 C 
ATOM     26  O   UNL     1       7.160   5.804  15.259  0.00  0.00    +0.000 OA
BRANCH  25  27
ATOM     27  O   UNL     1       5.572   4.557  14.267  0.00  0.00    +0.000 OA
ATOM     28  H   UNL     1       4.587   4.555  14.185  0.00  0.00    +0.000 HD
ENDBRANCH  25  27
ENDBRANCH  10  25
TORSDOF 5
ENDMDL
MODEL 4
REMARK VINA RESULT:      -8.0      0.837      1.001
REMARK  Name = 
REMARK  6 active torsions:
REMARK  status: ('A' for Active; 'I' for Inactive)
REMARK    1  A    between atoms: C_1  and  C_2
REMARK    2  A    between atoms: N_6  and  N_7
REMARK    3  A    between atoms: N_7  and  C_8
REMARK    4  A    between atoms: C_11  and  C_12
REMARK    5  A    between atoms: C_20  and  C_21
REMARK    6  A    between atoms: C_21  and  O_23
REMARK                            x       y       z     vdW  Elec       q    Type
REMARK                         _______ _______ _______ _____ _____    ______ ____
ROOT
ATOM      1  C   UNL     1       1.279   2.472  18.619  0.00  0.00    +0.000 C 
ATOM      2  C   UNL     1       2.455   3.039  19.426  0.00  0.00    +0.000 C 
ATOM      3  C   UNL     1       1.997   3.574  20.780  0.00  0.00    +0.000 C 
ATOM      4  C   UNL     1       1.221   4.863  20.606  0.00  0.00    +0.000 C 
ATOM      5  C   UNL     1       2.155   5.883  20.008  0.00  0.00    +0.000 C 
ATOM      6  N   UNL     1       2.249   7.122  20.394  0.00  0.00    +0.000 NA
ATOM      7  C   UNL     1       3.025   5.414  18.837  0.00  0.00    +0.000 A 
ATOM      8  N   UNL     1       3.586   6.305  18.081  0.00  0.00    +0.000 NA
ATOM      9  C   UNL     1       4.369   5.868  17.047  0.00  0.00    +0.000 A 
ATOM     10  C   UNL     1       4.621   4.586  16.753  0.00  0.00    +0.000 A 
ATOM     11  C   UNL     1       3.993   3.583  17.625  0.00  0.00    +0.000 A 
ATOM     12  O   UNL     1       4.196   2.388  17.393  0.00  0.00    +0.000 OA
ATOM     13  N   UNL     1       3.189   4.047  18.651  0.00  0.00    +0.000 N 
ENDROOT
BRANCH   6  14
ATOM     14  N   UNL     1       1.419   7.508  21.408  0.00  0.00    +0.000 N 
ATOM     15  H   UNL     1       1.765   7.359  22.357  0.00  0.00    +0.000 HD
BRANCH  14  16
ATOM     16  C   UNL     1       0.822   8.789  21.311  0.00  0.00    +0.000 A 
ATOM     17  C   UNL     1       0.775   9.507  20.113  0.00  0.00    +0.000 A 
ATOM     18  C   UNL     1       0.099  10.730  20.031  0.00  0.00    +0.000 A 
ATOM     19  C   UNL     1      -0.586  11.263  21.132  0.00  0.00    +0.000 A 
ATOM     20  C   UNL     1      -0.551  10.526  22.326  0.00  0.00    +0.000 A 
ATOM     21  C   UNL     1       0.131   9.306  22.413  0.00  0.00    +0.000 A 
BRANCH  19  22
ATOM     22  C   UNL     1      -1.305  12.588  21.044  0.00  0.00    +0.000 C 
ATOM     23  C   UNL     1      -1.385  13.331  19.730  0.00  0.00    +0.000 C 
ATOM     24  C   UNL     1      -2.614  12.685  20.293  0.00  0.00    +0.000 C 
ENDBRANCH  19  22
ENDBRANCH  14  16
ENDBRANCH   6  14
BRANCH  10  25
ATOM     25  C   UNL     1       5.469   4.247  15.593  0.00  0.00    +0.000 C 
ATOM     26  O   UNL     1       5.178   4.528  14.440  0.00  0.00    +0.000 OA
BRANCH  25  27
ATOM     27  O   UNL     1       6.609   3.587  15.897  0.00  0.00    +0.000 OA
ATOM     28  H   UNL     1       6.539   2.971  16.667  0.00  0.00    +0.000 HD
ENDBRANCH  25  27
ENDBRANCH  10  25
TORSDOF 5
ENDMDL
MODEL 5
REMARK VINA RESULT:      -7.9      0.963      1.539
REMARK  Name = 
REMARK  6 active torsions:
REMARK  status: ('A' for Active; 'I' for Inactive)
REMARK    1  A    between atoms: C_1  and  C_2
REMARK    2  A    between atoms: N_6  and  N_7
REMARK    3  A    between atoms: N_7  and  C_8
REMARK    4  A    between atoms: C_11  and  C_12
REMARK    5  A    between atoms: C_20  and  C_21
REMARK    6  A    between atoms: C_21  and  O_23
REMARK                            x       y       z     vdW  Elec       q    Type
REMARK                         _______ _______ _______ _____ _____    ______ ____
ROOT
ATOM      1  C   UNL     1       1.179   2.611  18.693  0.00  0.00    +0.000 C 
ATOM      2  C   UNL     1       2.379   3.171  19.470  0.00  0.00    +0.000 C 
ATOM      3  C   UNL     1       1.947   3.778  20.802  0.00  0.00    +0.000 C 
ATOM      4  C   UNL     1       1.214   5.084  20.576  0.00  0.00    +0.000 C 
ATOM      5  C   UNL     1       2.178   6.045  19.931  0.00  0.00    +0.000 C 
ATOM      6  N   UNL     1       2.316   7.296  20.264  0.00  0.00    +0.000 NA
ATOM      7  C   UNL     1       3.024   5.498  18.777  0.00  0.00    +0.000 A 
ATOM      8  N   UNL     1       3.611   6.336  17.982  0.00  0.00    +0.000 NA
ATOM      9  C   UNL     1       4.373   5.830  16.964  0.00  0.00    +0.000 A 
ATOM     10  C   UNL     1       4.579   4.529  16.724  0.00  0.00    +0.000 A 
ATOM     11  C   UNL     1       3.924   3.585  17.640  0.00  0.00    +0.000 A 
ATOM     12  O   UNL     1       4.085   2.376  17.459  0.00  0.00    +0.000 OA
ATOM     13  N   UNL     1       3.141   4.119  18.650  0.00  0.00    +0.000 N 
ENDROOT
BRANCH   6  14
ATOM     14  N   UNL     1       1.506   7.753  21.264  0.00  0.00    +0.000 N 
ATOM     15  H   UNL     1       1.926   7.819  22.192  0.00  0.00    +0.000 HD
BRANCH  14  16
ATOM     16  C   UNL     1       0.736   8.913  21.002  0.00  0.00    +0.000 A 
ATOM     17  C   UNL     1       0.088   9.627  22.014  0.00  0.00    +0.000 A 
ATOM     18  C   UNL     1      -0.590  10.820  21.734  0.00  0.00    +0.000 A 
ATOM     19  C   UNL     1      -0.614  11.362  20.441  0.00  0.00    +0.000 A 
ATOM     20  C   UNL     1       0.056  10.649  19.435  0.00  0.00    +0.000 A 
ATOM     21  C   UNL     1       0.729   9.451  19.710  0.00  0.00    +0.000 A 
BRANCH  19  22
ATOM     22  C   UNL     1      -1.355  12.642  20.139  0.00  0.00    +0.000 C 
ATOM     23  C   UNL     1      -1.523  13.700  21.206  0.00  0.00    +0.000 C 
ATOM     24  C   UNL     1      -0.598  13.948  20.054  0.00  0.00    +0.000 C 
ENDBRANCH  19  22
ENDBRANCH  14  16
ENDBRANCH   6  14
BRANCH  10  25
ATOM     25  C   UNL     1       5.409   4.112  15.575  0.00  0.00    +0.000 C 
ATOM     26  O   UNL     1       5.412   4.694  14.501  0.00  0.00    +0.000 OA
BRANCH  25  27
ATOM     27  O   UNL     1       6.175   3.019  15.794  0.00  0.00    +0.000 OA
ATOM     28  H   UNL     1       5.689   2.240  16.158  0.00  0.00    +0.000 HD
ENDBRANCH  25  27
ENDBRANCH  10  25
TORSDOF 5
ENDMDL
MODEL 6
REMARK VINA RESULT:      -7.8      1.305      1.922
REMARK  Name = 
REMARK  6 active torsions:
REMARK  status: ('A' for Active; 'I' for Inactive)
REMARK    1  A    between atoms: C_1  and  C_2
REMARK    2  A    between atoms: N_6  and  N_7
REMARK    3  A    between atoms: N_7  and  C_8
REMARK    4  A    between atoms: C_11  and  C_12
REMARK    5  A    between atoms: C_20  and  C_21
REMARK    6  A    between atoms: C_21  and  O_23
REMARK                            x       y       z     vdW  Elec       q    Type
REMARK                         _______ _______ _______ _____ _____    ______ ____
ROOT
ATOM      1  C   UNL     1       2.586   2.538  17.459  0.00  0.00    +0.000 C 
ATOM      2  C   UNL     1       3.664   3.242  18.295  0.00  0.00    +0.000 C 
ATOM      3  C   UNL     1       3.106   3.730  19.628  0.00  0.00    +0.000 C 
ATOM      4  C   UNL     1       2.193   4.921  19.417  0.00  0.00    +0.000 C 
ATOM      5  C   UNL     1       3.021   6.036  18.836  0.00  0.00    +0.000 C 
ATOM      6  N   UNL     1       2.960   7.282  19.210  0.00  0.00    +0.000 NA
ATOM      7  C   UNL     1       3.974   5.662  17.696  0.00  0.00    +0.000 A 
ATOM      8  N   UNL     1       4.452   6.606  16.947  0.00  0.00    +0.000 NA
ATOM      9  C   UNL     1       5.312   6.254  15.942  0.00  0.00    +0.000 A 
ATOM     10  C   UNL     1       5.718   5.008  15.669  0.00  0.00    +0.000 A 
ATOM     11  C   UNL     1       5.184   3.946  16.533  0.00  0.00    +0.000 A 
ATOM     12  O   UNL     1       5.529   2.781  16.321  0.00  0.00    +0.000 OA
ATOM     13  N   UNL     1       4.300   4.322  17.530  0.00  0.00    +0.000 N 
ENDROOT
BRANCH   6  14
ATOM     14  N   UNL     1       2.061   7.577  20.195  0.00  0.00    +0.000 N 
ATOM     15  H   UNL     1       2.431   7.628  21.146  0.00  0.00    +0.000 HD
BRANCH  14  16
ATOM     16  C   UNL     1       1.175   8.659  19.967  0.00  0.00    +0.000 A 
ATOM     17  C   UNL     1       0.374   9.198  20.977  0.00  0.00    +0.000 A 
ATOM     18  C   UNL     1      -0.424  10.324  20.741  0.00  0.00    +0.000 A 
ATOM     19  C   UNL     1      -0.423  10.975  19.499  0.00  0.00    +0.000 A 
ATOM     20  C   UNL     1       0.401  10.439  18.497  0.00  0.00    +0.000 A 
ATOM     21  C   UNL     1       1.194   9.308  18.727  0.00  0.00    +0.000 A 
BRANCH  19  22
ATOM     22  C   UNL     1      -1.292  12.182  19.243  0.00  0.00    +0.000 C 
ATOM     23  C   UNL     1      -1.740  13.060  20.389  0.00  0.00    +0.000 C 
ATOM     24  C   UNL     1      -0.721  13.571  19.417  0.00  0.00    +0.000 C 
ENDBRANCH  19  22
ENDBRANCH  14  16
ENDBRANCH   6  14
BRANCH  10  25
ATOM     25  C   UNL     1       6.635   4.760  14.538  0.00  0.00    +0.000 C 
ATOM     26  O   UNL     1       7.600   5.467  14.286  0.00  0.00    +0.000 OA
BRANCH  25  27
ATOM     27  O   UNL     1       6.326   3.683  13.782  0.00  0.00    +0.000 OA
ATOM     28  H   UNL     1       5.563   3.149  14.113  0.00  0.00    +0.000 HD
ENDBRANCH  25  27
ENDBRANCH  10  25
TORSDOF 5
ENDMDL
MODEL 7
REMARK VINA RESULT:      -7.7      1.689      2.139
REMARK  Name = 
REMARK  6 active torsions:
REMARK  status: ('A' for Active; 'I' for Inactive)
REMARK    1  A    between atoms: C_1  and  C_2
REMARK    2  A    between atoms: N_6  and  N_7
REMARK    3  A    between atoms: N_7  and  C_8
REMARK    4  A    between atoms: C_11  and  C_12
REMARK    5  A    between atoms: C_20  and  C_21
REMARK    6  A    between atoms: C_21  and  O_23
REMARK                            x       y       z     vdW  Elec       q    Type
REMARK                         _______ _______ _______ _____ _____    ______ ____
ROOT
ATOM      1  C   UNL     1       2.604   2.719  17.444  0.00  0.00    +0.000 C 
ATOM      2  C   UNL     1       3.676   3.472  18.244  0.00  0.00    +0.000 C 
ATOM      3  C   UNL     1       3.103   4.054  19.533  0.00  0.00    +0.000 C 
ATOM      4  C   UNL     1       2.201   5.233  19.228  0.00  0.00    +0.000 C 
ATOM      5  C   UNL     1       3.046   6.301  18.584  0.00  0.00    +0.000 C 
ATOM      6  N   UNL     1       2.988   7.569  18.872  0.00  0.00    +0.000 NA
ATOM      7  C   UNL     1       4.011   5.844  17.486  0.00  0.00    +0.000 A 
ATOM      8  N   UNL     1       4.506   6.732  16.681  0.00  0.00    +0.000 NA
ATOM      9  C   UNL     1       5.377   6.307  15.715  0.00  0.00    +0.000 A 
ATOM     10  C   UNL     1       5.778   5.042  15.534  0.00  0.00    +0.000 A 
ATOM     11  C   UNL     1       5.224   4.044  16.460  0.00  0.00    +0.000 A 
ATOM     12  O   UNL     1       5.564   2.866  16.333  0.00  0.00    +0.000 OA
ATOM     13  N   UNL     1       4.330   4.493  17.417  0.00  0.00    +0.000 N 
ENDROOT
BRANCH   6  14
ATOM     14  N   UNL     1       2.078   7.937  19.822  0.00  0.00    +0.000 N 
ATOM     15  H   UNL     1       2.453   8.161  20.745  0.00  0.00    +0.000 HD
BRANCH  14  16
ATOM     16  C   UNL     1       1.103   8.896  19.454  0.00  0.00    +0.000 A 
ATOM     17  C   UNL     1       0.838   9.226  18.122  0.00  0.00    +0.000 A 
ATOM     18  C   UNL     1      -0.193  10.111  17.789  0.00  0.00    +0.000 A 
ATOM     19  C   UNL     1      -1.023  10.671  18.771  0.00  0.00    +0.000 A 
ATOM     20  C   UNL     1      -0.764  10.319  20.105  0.00  0.00    +0.000 A 
ATOM     21  C   UNL     1       0.273   9.439  20.442  0.00  0.00    +0.000 A 
BRANCH  19  22
ATOM     22  C   UNL     1      -2.128  11.634  18.411  0.00  0.00    +0.000 C 
ATOM     23  C   UNL     1      -2.822  11.538  17.071  0.00  0.00    +0.000 C 
ATOM     24  C   UNL     1      -3.555  11.142  18.316  0.00  0.00    +0.000 C 
ENDBRANCH  19  22
ENDBRANCH  14  16
ENDBRANCH   6  14
BRANCH  10  25
ATOM     25  C   UNL     1       6.708   4.712  14.435  0.00  0.00    +0.000 C 
ATOM     26  O   UNL     1       7.706   5.369  14.178  0.00  0.00    +0.000 OA
BRANCH  25  27
ATOM     27  O   UNL     1       6.372   3.618  13.715  0.00  0.00    +0.000 OA
ATOM     28  H   UNL     1       7.127   3.177  13.255  0.00  0.00    +0.000 HD
ENDBRANCH  25  27
ENDBRANCH  10  25
TORSDOF 5
ENDMDL
MODEL 8
REMARK VINA RESULT:      -7.5      2.641      3.190
REMARK  Name = 
REMARK  6 active torsions:
REMARK  status: ('A' for Active; 'I' for Inactive)
REMARK    1  A    between atoms: C_1  and  C_2
REMARK    2  A    between atoms: N_6  and  N_7
REMARK    3  A    between atoms: N_7  and  C_8
REMARK    4  A    between atoms: C_11  and  C_12
REMARK    5  A    between atoms: C_20  and  C_21
REMARK    6  A    between atoms: C_21  and  O_23
REMARK                            x       y       z     vdW  Elec       q    Type
REMARK                         _______ _______ _______ _____ _____    ______ ____
ROOT
ATOM      1  C   UNL     1       2.736   3.824  19.333  0.00  0.00    +0.000 C 
ATOM      2  C   UNL     1       3.479   5.106  19.735  0.00  0.00    +0.000 C 
ATOM      3  C   UNL     1       2.513   6.173  20.244  0.00  0.00    +0.000 C 
ATOM      4  C   UNL     1       1.706   6.748  19.099  0.00  0.00    +0.000 C 
ATOM      5  C   UNL     1       2.666   7.419  18.153  0.00  0.00    +0.000 C 
ATOM      6  N   UNL     1       2.474   8.581  17.598  0.00  0.00    +0.000 NA
ATOM      7  C   UNL     1       3.941   6.644  17.803  0.00  0.00    +0.000 A 
ATOM      8  N   UNL     1       4.626   7.007  16.764  0.00  0.00    +0.000 NA
ATOM      9  C   UNL     1       5.769   6.311  16.475  0.00  0.00    +0.000 A 
ATOM     10  C   UNL     1       6.254   5.286  17.186  0.00  0.00    +0.000 A 
ATOM     11  C   UNL     1       5.480   4.892  18.372  0.00  0.00    +0.000 A 
ATOM     12  O   UNL     1       5.887   3.953  19.060  0.00  0.00    +0.000 OA
ATOM     13  N   UNL     1       4.317   5.596  18.634  0.00  0.00    +0.000 N 
ENDROOT
BRANCH   6  14
ATOM     14  N   UNL     1       1.302   9.213  17.900  0.00  0.00    +0.000 N 
ATOM     15  H   UNL     1       0.630   8.680  18.454  0.00  0.00    +0.000 HD
BRANCH  14  16
ATOM     16  C   UNL     1       1.383  10.540  18.391  0.00  0.00    +0.000 A 
ATOM     17  C   UNL     1       2.340  11.451  17.937  0.00  0.00    +0.000 A 
ATOM     18  C   UNL     1       2.336  12.780  18.376  0.00  0.00    +0.000 A 
ATOM     19  C   UNL     1       1.354  13.257  19.256  0.00  0.00    +0.000 A 
ATOM     20  C   UNL     1       0.384  12.340  19.691  0.00  0.00    +0.000 A 
ATOM     21  C   UNL     1       0.390  11.008  19.259  0.00  0.00    +0.000 A 
BRANCH  19  22
ATOM     22  C   UNL     1       1.357  14.688  19.738  0.00  0.00    +0.000 C 
ATOM     23  C   UNL     1       2.231  15.721  19.062  0.00  0.00    +0.000 C 
ATOM     24  C   UNL     1       0.745  15.772  18.880  0.00  0.00    +0.000 C 
ENDBRANCH  19  22
ENDBRANCH  14  16
ENDBRANCH   6  14
BRANCH  10  25
ATOM     25  C   UNL     1       7.490   4.605  16.752  0.00  0.00    +0.000 C 
ATOM     26  O   UNL     1       7.828   4.504  15.582  0.00  0.00    +0.000 OA
BRANCH  25  27
ATOM     27  O   UNL     1       8.234   4.084  17.755  0.00  0.00    +0.000 OA
ATOM     28  H   UNL     1       8.078   3.125  17.931  0.00  0.00    +0.000 HD
ENDBRANCH  25  27
ENDBRANCH  10  25
TORSDOF 5
ENDMDL
MODEL 9
REMARK VINA RESULT:      -7.4      5.332      9.557
REMARK  Name = 
REMARK  6 active torsions:
REMARK  status: ('A' for Active; 'I' for Inactive)
REMARK    1  A    between atoms: C_1  and  C_2
REMARK    2  A    between atoms: N_6  and  N_7
REMARK    3  A    between atoms: N_7  and  C_8
REMARK    4  A    between atoms: C_11  and  C_12
REMARK    5  A    between atoms: C_20  and  C_21
REMARK    6  A    between atoms: C_21  and  O_23
REMARK                            x       y       z     vdW  Elec       q    Type
REMARK                         _______ _______ _______ _____ _____    ______ ____
ROOT
ATOM      1  C   UNL     1      -3.440  11.597  18.554  0.00  0.00    +0.000 C 
ATOM      2  C   UNL     1      -2.186  12.325  19.060  0.00  0.00    +0.000 C 
ATOM      3  C   UNL     1      -0.973  12.018  18.187  0.00  0.00    +0.000 C 
ATOM      4  C   UNL     1      -0.499  10.597  18.419  0.00  0.00    +0.000 C 
ATOM      5  C   UNL     1      -0.063  10.488  19.856  0.00  0.00    +0.000 C 
ATOM      6  N   UNL     1       1.018   9.888  20.263  0.00  0.00    +0.000 NA
ATOM      7  C   UNL     1      -0.994  11.105  20.905  0.00  0.00    +0.000 A 
ATOM      8  N   UNL     1      -0.852  10.760  22.146  0.00  0.00    +0.000 NA
ATOM      9  C   UNL     1      -1.684  11.331  23.071  0.00  0.00    +0.000 A 
ATOM     10  C   UNL     1      -2.635  12.235  22.804  0.00  0.00    +0.000 A 
ATOM     11  C   UNL     1      -2.779  12.633  21.396  0.00  0.00    +0.000 A 
ATOM     12  O   UNL     1      -3.641  13.464  21.102  0.00  0.00    +0.000 OA
ATOM     13  N   UNL     1      -1.940  12.028  20.476  0.00  0.00    +0.000 N 
ENDROOT
BRANCH   6  14
ATOM     14  N   UNL     1       1.792   9.310  19.297  0.00  0.00    +0.000 N 
ATOM     15  H   UNL     1       2.684   9.768  19.097  0.00  0.00    +0.000 HD
BRANCH  14  16
ATOM     16  C   UNL     1       1.978   7.907  19.363  0.00  0.00    +0.000 A 
ATOM     17  C   UNL     1       1.683   7.163  20.508  0.00  0.00    +0.000 A 
ATOM     18  C   UNL     1       1.792   5.768  20.511  0.00  0.00    +0.000 A 
ATOM     19  C   UNL     1       2.164   5.061  19.358  0.00  0.00    +0.000 A 
ATOM     20  C   UNL     1       2.438   5.814  18.206  0.00  0.00    +0.000 A 
ATOM     21  C   UNL     1       2.337   7.211  18.203  0.00  0.00    +0.000 A 
BRANCH  19  22
ATOM     22  C   UNL     1       2.292   3.557  19.366  0.00  0.00    +0.000 C 
ATOM     23  C   UNL     1       1.231   2.701  20.020  0.00  0.00    +0.000 C 
ATOM     24  C   UNL     1       1.354   2.717  18.527  0.00  0.00    +0.000 C 
ENDBRANCH  19  22
ENDBRANCH  14  16
ENDBRANCH   6  14
BRANCH  10  25
ATOM     25  C   UNL     1      -3.483  12.759  23.894  0.00  0.00    +0.000 C 
ATOM     26  O   UNL     1      -4.291  12.077  24.505  0.00  0.00    +0.000 OA
BRANCH  25  27
ATOM     27  O   UNL     1      -3.306  14.070  24.171  0.00  0.00    +0.000 OA
ATOM     28  H   UNL     1      -2.648  14.258  24.885  0.00  0.00    +0.000 HD
ENDBRANCH  25  27
ENDBRANCH  10  25
TORSDOF 5
ENDMDL
