MODEL 1
REMARK VINA RESULT:      -7.3      0.000      0.000
REMARK  Name = 
REMARK  10 active torsions:
REMARK  status: ('A' for Active; 'I' for Inactive)
REMARK    1  A    between atoms: C_1  and  C_2
REMARK    2  A    between atoms: C_2  and  C_3
REMARK    3  A    between atoms: C_2  and  C_4
REMARK    4  A    between atoms: C_2  and  C_5
REMARK    5  A    between atoms: C_5  and  N_6
REMARK    6  A    between atoms: N_6  and  C_7
REMARK    7  A    between atoms: C_8  and  C_9
REMARK    8  A    between atoms: C_11  and  C_12
REMARK    9  A    between atoms: C_20  and  S_21
REMARK   10  A    between atoms: S_21  and  C_22
REMARK                            x       y       z     vdW  Elec       q    Type
REMARK                         _______ _______ _______ _____ _____    ______ ____
ROOT
ATOM      1  C   UNL     1       2.861   5.351  18.819  0.00  0.00    +0.000 A 
ATOM      2  C   UNL     1       2.826   4.111  19.436  0.00  0.00    +0.000 A 
ATOM      3  C   UNL     1       2.220   4.302  20.691  0.00  0.00    +0.000 A 
ATOM      4  N   UNL     1       1.933   5.590  20.908  0.00  0.00    +0.000 NA
ATOM      5  N   UNL     1       2.257   6.229  19.743  0.00  0.00    +0.000 N 
ATOM      6  C   UNL     1       1.927   7.618  19.594  0.00  0.00    +0.000 A 
ATOM      7  C   UNL     1       1.286   8.270  20.660  0.00  0.00    +0.000 A 
ATOM      8  C   UNL     1       0.900   9.602  20.514  0.00  0.00    +0.000 A 
ATOM      9  C   UNL     1       1.171  10.240  19.309  0.00  0.00    +0.000 A 
ATOM     10  C   UNL     1       1.794   9.534  18.294  0.00  0.00    +0.000 A 
ATOM     11  N   UNL     1       2.190   8.243  18.413  0.00  0.00    +0.000 NA
ENDROOT
BRANCH   9  12
ATOM     12  S   UNL     1       0.606  11.880  18.999  0.00  0.00    +0.000 S 
ATOM     13  C   UNL     1       0.377  12.582  20.609  0.00  0.00    +0.000 C 
ATOM     14  O   UNL     1       1.690  12.590  18.350  0.00  0.00    +0.000 OA
ATOM     15  O   UNL     1      -0.695  11.772  18.367  0.00  0.00    +0.000 OA
ENDBRANCH   9  12
BRANCH   3  16
ATOM     16  C   UNL     1       1.881   3.256  21.699  0.00  0.00    +0.000 C 
ATOM     17  F   UNL     1       0.869   2.462  21.252  0.00  0.00    +0.000 F 
ATOM     18  F   UNL     1       2.940   2.434  21.928  0.00  0.00    +0.000 F 
ENDBRANCH   3  16
BRANCH   1  19
ATOM     19  N   UNL     1       3.316   5.748  17.584  0.00  0.00    +0.000 N 
ATOM     20  H   UNL     1       2.893   5.291  16.770  0.00  0.00    +0.000 HD
BRANCH  19  21
ATOM     21  C   UNL     1       4.664   6.294  17.390  0.00  0.00    +0.000 C 
BRANCH  21  23
ATOM     22  C   UNL     1       5.083   4.200  16.013  0.00  0.00    +0.000 C 
ATOM     23  C   UNL     1       5.715   5.251  16.937  0.00  0.00    +0.000 C 
ATOM     24  C   UNL     1       6.351   4.550  18.146  0.00  0.00    +0.000 C 
ATOM     25  C   UNL     1       6.827   5.976  16.141  0.00  0.00    +0.000 C 
ENDBRANCH  21  23
ENDBRANCH  19  21
ENDBRANCH   1  19
BRANCH   2  26
ATOM     26  C   UNL     1       3.249   2.868  18.895  0.00  0.00    +0.000 C 
ATOM     27  N   UNL     1       3.613   1.865  18.423  0.00  0.00    +0.000 NA
ENDBRANCH   2  26
TORSDOF 6
ENDMDL
MODEL 2
REMARK VINA RESULT:      -7.3      0.979      1.286
REMARK  Name = 
REMARK  10 active torsions:
REMARK  status: ('A' for Active; 'I' for Inactive)
REMARK    1  A    between atoms: C_1  and  C_2
REMARK    2  A    between atoms: C_2  and  C_3
REMARK    3  A    between atoms: C_2  and  C_4
REMARK    4  A    between atoms: C_2  and  C_5
REMARK    5  A    between atoms: C_5  and  N_6
REMARK    6  A    between atoms: N_6  and  C_7
REMARK    7  A    between atoms: C_8  and  C_9
REMARK    8  A    between atoms: C_11  and  C_12
REMARK    9  A    between atoms: C_20  and  S_21
REMARK   10  A    between atoms: S_21  and  C_22
REMARK                            x       y       z     vdW  Elec       q    Type
REMARK                         _______ _______ _______ _____ _____    ______ ____
ROOT
ATOM      1  C   UNL     1       2.822   5.151  18.835  0.00  0.00    +0.000 A 
ATOM      2  C   UNL     1       2.812   3.820  19.221  0.00  0.00    +0.000 A 
ATOM      3  C   UNL     1       2.193   3.771  20.484  0.00  0.00    +0.000 A 
ATOM      4  N   UNL     1       1.875   4.993  20.923  0.00  0.00    +0.000 NA
ATOM      5  N   UNL     1       2.192   5.837  19.894  0.00  0.00    +0.000 N 
ATOM      6  C   UNL     1       1.831   7.223  19.991  0.00  0.00    +0.000 A 
ATOM      7  C   UNL     1       1.168   7.660  21.150  0.00  0.00    +0.000 A 
ATOM      8  C   UNL     1       0.752   8.988  21.239  0.00  0.00    +0.000 A 
ATOM      9  C   UNL     1       1.016   9.836  20.170  0.00  0.00    +0.000 A 
ATOM     10  C   UNL     1       1.662   9.336  19.053  0.00  0.00    +0.000 A 
ATOM     11  N   UNL     1       2.087   8.054  18.944  0.00  0.00    +0.000 NA
ENDROOT
BRANCH   9  12
ATOM     12  S   UNL     1       0.415  11.492  20.151  0.00  0.00    +0.000 S 
ATOM     13  C   UNL     1       1.408  12.312  18.936  0.00  0.00    +0.000 C 
ATOM     14  O   UNL     1      -0.949  11.447  19.659  0.00  0.00    +0.000 OA
ATOM     15  O   UNL     1       0.718  12.072  21.445  0.00  0.00    +0.000 OA
ENDBRANCH   9  12
BRANCH   3  16
ATOM     16  C   UNL     1       1.872   2.555  21.286  0.00  0.00    +0.000 C 
ATOM     17  F   UNL     1       2.949   2.161  22.020  0.00  0.00    +0.000 F 
ATOM     18  F   UNL     1       0.873   2.803  22.175  0.00  0.00    +0.000 F 
ENDBRANCH   3  16
BRANCH   1  19
ATOM     19  N   UNL     1       3.276   5.771  17.696  0.00  0.00    +0.000 N 
ATOM     20  H   UNL     1       2.882   5.445  16.808  0.00  0.00    +0.000 HD
BRANCH  19  21
ATOM     21  C   UNL     1       4.602   6.394  17.624  0.00  0.00    +0.000 C 
BRANCH  21  23
ATOM     22  C   UNL     1       5.179   4.545  15.980  0.00  0.00    +0.000 C 
ATOM     23  C   UNL     1       5.717   5.461  17.088  0.00  0.00    +0.000 C 
ATOM     24  C   UNL     1       6.307   4.604  18.217  0.00  0.00    +0.000 C 
ATOM     25  C   UNL     1       6.845   6.329  16.481  0.00  0.00    +0.000 C 
ENDBRANCH  21  23
ENDBRANCH  19  21
ENDBRANCH   1  19
BRANCH   2  26
ATOM     26  C   UNL     1       3.268   2.703  18.472  0.00  0.00    +0.000 C 
ATOM     27  N   UNL     1       3.620   1.765  17.876  0.00  0.00    +0.000 NA
ENDBRANCH   2  26
TORSDOF 6
ENDMDL
MODEL 3
REMARK VINA RESULT:      -7.3      0.741      1.232
REMARK  Name = 
REMARK  10 active torsions:
REMARK  status: ('A' for Active; 'I' for Inactive)
REMARK    1  A    between atoms: C_1  and  C_2
REMARK    2  A    between atoms: C_2  and  C_3
REMARK    3  A    between atoms: C_2  and  C_4
REMARK    4  A    between atoms: C_2  and  C_5
REMARK    5  A    between atoms: C_5  and  N_6
REMARK    6  A    between atoms: N_6  and  C_7
REMARK    7  A    between atoms: C_8  and  C_9
REMARK    8  A    between atoms: C_11  and  C_12
REMARK    9  A    between atoms: C_20  and  S_21
REMARK   10  A    between atoms: S_21  and  C_22
REMARK                            x       y       z     vdW  Elec       q    Type
REMARK                         _______ _______ _______ _____ _____    ______ ____
ROOT
ATOM      1  C   UNL     1       2.869   5.411  18.894  0.00  0.00    +0.000 A 
ATOM      2  C   UNL     1       2.845   4.152  19.471  0.00  0.00    +0.000 A 
ATOM      3  C   UNL     1       2.217   4.293  20.721  0.00  0.00    +0.000 A 
ATOM      4  N   UNL     1       1.906   5.569  20.974  0.00  0.00    +0.000 NA
ATOM      5  N   UNL     1       2.237   6.250  19.835  0.00  0.00    +0.000 N 
ATOM      6  C   UNL     1       1.888   7.638  19.725  0.00  0.00    +0.000 A 
ATOM      7  C   UNL     1       1.220   8.245  20.801  0.00  0.00    +0.000 A 
ATOM      8  C   UNL     1       0.815   9.575  20.691  0.00  0.00    +0.000 A 
ATOM      9  C   UNL     1       1.094  10.255  19.511  0.00  0.00    +0.000 A 
ATOM     10  C   UNL     1       1.744   9.591  18.484  0.00  0.00    +0.000 A 
ATOM     11  N   UNL     1       2.158   8.304  18.569  0.00  0.00    +0.000 NA
ENDROOT
BRANCH   9  12
ATOM     12  S   UNL     1       0.507  11.895  19.244  0.00  0.00    +0.000 S 
ATOM     13  C   UNL     1      -1.023  11.684  18.378  0.00  0.00    +0.000 C 
ATOM     14  O   UNL     1       0.212  12.460  20.547  0.00  0.00    +0.000 OA
ATOM     15  O   UNL     1       1.444  12.545  18.348  0.00  0.00    +0.000 OA
ENDBRANCH   9  12
BRANCH   3  16
ATOM     16  C   UNL     1       1.879   3.211  21.691  0.00  0.00    +0.000 C 
ATOM     17  F   UNL     1       0.891   2.413  21.201  0.00  0.00    +0.000 F 
ATOM     18  F   UNL     1       2.949   2.401  21.914  0.00  0.00    +0.000 F 
ENDBRANCH   3  16
BRANCH   1  19
ATOM     19  N   UNL     1       3.337   5.854  17.679  0.00  0.00    +0.000 N 
ATOM     20  H   UNL     1       2.913   5.437  16.845  0.00  0.00    +0.000 HD
BRANCH  19  21
ATOM     21  C   UNL     1       4.692   6.392  17.516  0.00  0.00    +0.000 C 
BRANCH  21  23
ATOM     22  C   UNL     1       6.866   6.072  16.241  0.00  0.00    +0.000 C 
ATOM     23  C   UNL     1       5.726   5.366  16.989  0.00  0.00    +0.000 C 
ATOM     24  C   UNL     1       5.060   4.343  16.057  0.00  0.00    +0.000 C 
ATOM     25  C   UNL     1       6.342   4.614  18.193  0.00  0.00    +0.000 C 
ENDBRANCH  21  23
ENDBRANCH  19  21
ENDBRANCH   1  19
BRANCH   2  26
ATOM     26  C   UNL     1       3.296   2.934  18.898  0.00  0.00    +0.000 C 
ATOM     27  N   UNL     1       3.634   1.926  18.416  0.00  0.00    +0.000 NA
ENDBRANCH   2  26
TORSDOF 6
ENDMDL
MODEL 4
REMARK VINA RESULT:      -7.2      0.734      1.216
REMARK  Name = 
REMARK  10 active torsions:
REMARK  status: ('A' for Active; 'I' for Inactive)
REMARK    1  A    between atoms: C_1  and  C_2
REMARK    2  A    between atoms: C_2  and  C_3
REMARK    3  A    between atoms: C_2  and  C_4
REMARK    4  A    between atoms: C_2  and  C_5
REMARK    5  A    between atoms: C_5  and  N_6
REMARK    6  A    between atoms: N_6  and  C_7
REMARK    7  A    between atoms: C_8  and  C_9
REMARK    8  A    between atoms: C_11  and  C_12
REMARK    9  A    between atoms: C_20  and  S_21
REMARK   10  A    between atoms: S_21  and  C_22
REMARK                            x       y       z     vdW  Elec       q    Type
REMARK                         _______ _______ _______ _____ _____    ______ ____
ROOT
ATOM      1  C   UNL     1       2.851   5.341  18.849  0.00  0.00    +0.000 A 
ATOM      2  C   UNL     1       2.817   4.080  19.424  0.00  0.00    +0.000 A 
ATOM      3  C   UNL     1       2.210   4.228  20.684  0.00  0.00    +0.000 A 
ATOM      4  N   UNL     1       1.920   5.507  20.944  0.00  0.00    +0.000 NA
ATOM      5  N   UNL     1       2.243   6.186  19.801  0.00  0.00    +0.000 N 
ATOM      6  C   UNL     1       1.911   7.578  19.699  0.00  0.00    +0.000 A 
ATOM      7  C   UNL     1       1.268   8.192  20.786  0.00  0.00    +0.000 A 
ATOM      8  C   UNL     1       0.879   9.527  20.685  0.00  0.00    +0.000 A 
ATOM      9  C   UNL     1       1.150  10.207  19.502  0.00  0.00    +0.000 A 
ATOM     10  C   UNL     1       1.775   9.537  18.465  0.00  0.00    +0.000 A 
ATOM     11  N   UNL     1       2.174   8.244  18.541  0.00  0.00    +0.000 NA
ENDROOT
BRANCH   9  12
ATOM     12  S   UNL     1       0.581  11.855  19.248  0.00  0.00    +0.000 S 
ATOM     13  C   UNL     1       1.912  12.658  18.400  0.00  0.00    +0.000 C 
ATOM     14  O   UNL     1      -0.549  11.782  18.342  0.00  0.00    +0.000 OA
ATOM     15  O   UNL     1       0.446  12.468  20.555  0.00  0.00    +0.000 OA
ENDBRANCH   9  12
BRANCH   3  16
ATOM     16  C   UNL     1       1.872   3.147  21.656  0.00  0.00    +0.000 C 
ATOM     17  F   UNL     1       0.940   2.302  21.135  0.00  0.00    +0.000 F 
ATOM     18  F   UNL     1       2.962   2.386  21.942  0.00  0.00    +0.000 F 
ENDBRANCH   3  16
BRANCH   1  19
ATOM     19  N   UNL     1       3.306   5.780  17.629  0.00  0.00    +0.000 N 
ATOM     20  H   UNL     1       2.892   5.343  16.800  0.00  0.00    +0.000 HD
BRANCH  19  21
ATOM     21  C   UNL     1       4.648   6.348  17.458  0.00  0.00    +0.000 C 
BRANCH  21  23
ATOM     22  C   UNL     1       6.326   4.578  18.172  0.00  0.00    +0.000 C 
ATOM     23  C   UNL     1       5.714   5.331  16.981  0.00  0.00    +0.000 C 
ATOM     24  C   UNL     1       6.831   6.032  16.194  0.00  0.00    +0.000 C 
ATOM     25  C   UNL     1       5.035   4.290  16.059  0.00  0.00    +0.000 C 
ENDBRANCH  21  23
ENDBRANCH  19  21
ENDBRANCH   1  19
BRANCH   2  26
ATOM     26  C   UNL     1       3.244   2.858  18.842  0.00  0.00    +0.000 C 
ATOM     27  N   UNL     1       3.571   1.858  18.337  0.00  0.00    +0.000 NA
ENDBRANCH   2  26
TORSDOF 6
ENDMDL
MODEL 5
REMARK VINA RESULT:      -7.2      0.470      1.031
REMARK  Name = 
REMARK  10 active torsions:
REMARK  status: ('A' for Active; 'I' for Inactive)
REMARK    1  A    between atoms: C_1  and  C_2
REMARK    2  A    between atoms: C_2  and  C_3
REMARK    3  A    between atoms: C_2  and  C_4
REMARK    4  A    between atoms: C_2  and  C_5
REMARK    5  A    between atoms: C_5  and  N_6
REMARK    6  A    between atoms: N_6  and  C_7
REMARK    7  A    between atoms: C_8  and  C_9
REMARK    8  A    between atoms: C_11  and  C_12
REMARK    9  A    between atoms: C_20  and  S_21
REMARK   10  A    between atoms: S_21  and  C_22
REMARK                            x       y       z     vdW  Elec       q    Type
REMARK                         _______ _______ _______ _____ _____    ______ ____
ROOT
ATOM      1  C   UNL     1       2.971   5.391  18.969  0.00  0.00    +0.000 A 
ATOM      2  C   UNL     1       2.927   4.144  19.571  0.00  0.00    +0.000 A 
ATOM      3  C   UNL     1       2.227   4.305  20.781  0.00  0.00    +0.000 A 
ATOM      4  N   UNL     1       1.890   5.583  20.987  0.00  0.00    +0.000 NA
ATOM      5  N   UNL     1       2.278   6.242  19.854  0.00  0.00    +0.000 N 
ATOM      6  C   UNL     1       1.921   7.624  19.694  0.00  0.00    +0.000 A 
ATOM      7  C   UNL     1       1.188   8.246  20.717  0.00  0.00    +0.000 A 
ATOM      8  C   UNL     1       0.776   9.569  20.555  0.00  0.00    +0.000 A 
ATOM      9  C   UNL     1       1.114  10.227  19.378  0.00  0.00    +0.000 A 
ATOM     10  C   UNL     1       1.827   9.549  18.404  0.00  0.00    +0.000 A 
ATOM     11  N   UNL     1       2.250   8.268  18.540  0.00  0.00    +0.000 NA
ENDROOT
BRANCH   9  12
ATOM     12  S   UNL     1       0.527  11.854  19.043  0.00  0.00    +0.000 S 
ATOM     13  C   UNL     1       0.227  12.556  20.641  0.00  0.00    +0.000 C 
ATOM     14  O   UNL     1       1.619  12.585  18.429  0.00  0.00    +0.000 OA
ATOM     15  O   UNL     1      -0.748  11.717  18.365  0.00  0.00    +0.000 OA
ENDBRANCH   9  12
BRANCH   3  16
ATOM     16  C   UNL     1       1.847   3.240  21.753  0.00  0.00    +0.000 C 
ATOM     17  F   UNL     1       0.828   2.481  21.265  0.00  0.00    +0.000 F 
ATOM     18  F   UNL     1       2.883   2.389  21.980  0.00  0.00    +0.000 F 
ENDBRANCH   3  16
BRANCH   1  19
ATOM     19  N   UNL     1       3.502   5.813  17.773  0.00  0.00    +0.000 N 
ATOM     20  H   UNL     1       3.017   5.510  16.923  0.00  0.00    +0.000 HD
BRANCH  19  21
ATOM     21  C   UNL     1       4.925   6.137  17.624  0.00  0.00    +0.000 C 
BRANCH  21  23
ATOM     22  C   UNL     1       7.093   5.463  16.485  0.00  0.00    +0.000 C 
ATOM     23  C   UNL     1       5.571   5.591  16.327  0.00  0.00    +0.000 C 
ATOM     24  C   UNL     1       5.258   6.501  15.131  0.00  0.00    +0.000 C 
ATOM     25  C   UNL     1       5.003   4.181  16.041  0.00  0.00    +0.000 C 
ENDBRANCH  21  23
ENDBRANCH  19  21
ENDBRANCH   1  19
BRANCH   2  26
ATOM     26  C   UNL     1       3.422   2.919  19.051  0.00  0.00    +0.000 C 
ATOM     27  N   UNL     1       3.860   1.918  18.644  0.00  0.00    +0.000 NA
ENDBRANCH   2  26
TORSDOF 6
ENDMDL
MODEL 6
REMARK VINA RESULT:      -7.2      1.046      1.295
REMARK  Name = 
REMARK  10 active torsions:
REMARK  status: ('A' for Active; 'I' for Inactive)
REMARK    1  A    between atoms: C_1  and  C_2
REMARK    2  A    between atoms: C_2  and  C_3
REMARK    3  A    between atoms: C_2  and  C_4
REMARK    4  A    between atoms: C_2  and  C_5
REMARK    5  A    between atoms: C_5  and  N_6
REMARK    6  A    between atoms: N_6  and  C_7
REMARK    7  A    between atoms: C_8  and  C_9
REMARK    8  A    between atoms: C_11  and  C_12
REMARK    9  A    between atoms: C_20  and  S_21
REMARK   10  A    between atoms: S_21  and  C_22
REMARK                            x       y       z     vdW  Elec       q    Type
REMARK                         _______ _______ _______ _____ _____    ______ ____
ROOT
ATOM      1  C   UNL     1       2.880   5.047  18.884  0.00  0.00    +0.000 A 
ATOM      2  C   UNL     1       2.831   3.723  19.290  0.00  0.00    +0.000 A 
ATOM      3  C   UNL     1       2.167   3.706  20.530  0.00  0.00    +0.000 A 
ATOM      4  N   UNL     1       1.856   4.941  20.939  0.00  0.00    +0.000 NA
ATOM      5  N   UNL     1       2.225   5.761  19.909  0.00  0.00    +0.000 N 
ATOM      6  C   UNL     1       1.886   7.155  19.971  0.00  0.00    +0.000 A 
ATOM      7  C   UNL     1       1.190   7.622  21.098  0.00  0.00    +0.000 A 
ATOM      8  C   UNL     1       0.796   8.959  21.151  0.00  0.00    +0.000 A 
ATOM      9  C   UNL     1       1.113   9.785  20.079  0.00  0.00    +0.000 A 
ATOM     10  C   UNL     1       1.790   9.255  18.994  0.00  0.00    +0.000 A 
ATOM     11  N   UNL     1       2.195   7.964  18.921  0.00  0.00    +0.000 NA
ENDROOT
BRANCH   9  12
ATOM     12  S   UNL     1       0.544  11.451  20.013  0.00  0.00    +0.000 S 
ATOM     13  C   UNL     1      -1.216  11.313  19.869  0.00  0.00    +0.000 C 
ATOM     14  O   UNL     1       0.842  12.056  21.297  0.00  0.00    +0.000 OA
ATOM     15  O   UNL     1       1.052  12.029  18.784  0.00  0.00    +0.000 OA
ENDBRANCH   9  12
BRANCH   3  16
ATOM     16  C   UNL     1       1.795   2.509  21.339  0.00  0.00    +0.000 C 
ATOM     17  F   UNL     1       2.865   2.050  22.045  0.00  0.00    +0.000 F 
ATOM     18  F   UNL     1       0.835   2.813  22.253  0.00  0.00    +0.000 F 
ENDBRANCH   3  16
BRANCH   1  19
ATOM     19  N   UNL     1       3.386   5.641  17.752  0.00  0.00    +0.000 N 
ATOM     20  H   UNL     1       2.954   5.374  16.862  0.00  0.00    +0.000 HD
BRANCH  19  21
ATOM     21  C   UNL     1       4.768   6.127  17.680  0.00  0.00    +0.000 C 
BRANCH  21  23
ATOM     22  C   UNL     1       5.115   4.312  15.935  0.00  0.00    +0.000 C 
ATOM     23  C   UNL     1       5.519   5.723  16.386  0.00  0.00    +0.000 C 
ATOM     24  C   UNL     1       7.039   5.777  16.593  0.00  0.00    +0.000 C 
ATOM     25  C   UNL     1       5.135   6.710  15.258  0.00  0.00    +0.000 C 
ENDBRANCH  21  23
ENDBRANCH  19  21
ENDBRANCH   1  19
BRANCH   2  26
ATOM     26  C   UNL     1       3.293   2.586  18.576  0.00  0.00    +0.000 C 
ATOM     27  N   UNL     1       3.706   1.667  17.988  0.00  0.00    +0.000 NA
ENDBRANCH   2  26
TORSDOF 6
ENDMDL
MODEL 7
REMARK VINA RESULT:      -7.2      0.880      1.323
REMARK  Name = 
REMARK  10 active torsions:
REMARK  status: ('A' for Active; 'I' for Inactive)
REMARK    1  A    between atoms: C_1  and  C_2
REMARK    2  A    between atoms: C_2  and  C_3
REMARK    3  A    between atoms: C_2  and  C_4
REMARK    4  A    between atoms: C_2  and  C_5
REMARK    5  A    between atoms: C_5  and  N_6
REMARK    6  A    between atoms: N_6  and  C_7
REMARK    7  A    between atoms: C_8  and  C_9
REMARK    8  A    between atoms: C_11  and  C_12
REMARK    9  A    between atoms: C_20  and  S_21
REMARK   10  A    between atoms: S_21  and  C_22
REMARK                            x       y       z     vdW  Elec       q    Type
REMARK                         _______ _______ _______ _____ _____    ______ ____
ROOT
ATOM      1  C   UNL     1       3.057   4.686  18.616  0.00  0.00    +0.000 A 
ATOM      2  C   UNL     1       2.975   3.423  19.178  0.00  0.00    +0.000 A 
ATOM      3  C   UNL     1       2.335   3.576  20.422  0.00  0.00    +0.000 A 
ATOM      4  N   UNL     1       2.071   4.860  20.685  0.00  0.00    +0.000 NA
ATOM      5  N   UNL     1       2.445   5.539  19.558  0.00  0.00    +0.000 N 
ATOM      6  C   UNL     1       2.152   6.941  19.458  0.00  0.00    +0.000 A 
ATOM      7  C   UNL     1       1.494   7.563  20.532  0.00  0.00    +0.000 A 
ATOM      8  C   UNL     1       1.144   8.909  20.431  0.00  0.00    +0.000 A 
ATOM      9  C   UNL     1       1.465   9.590  19.263  0.00  0.00    +0.000 A 
ATOM     10  C   UNL     1       2.103   8.912  18.238  0.00  0.00    +0.000 A 
ATOM     11  N   UNL     1       2.465   7.608  18.314  0.00  0.00    +0.000 NA
ENDROOT
BRANCH   9  12
ATOM     12  S   UNL     1       0.947  11.255  19.007  0.00  0.00    +0.000 S 
ATOM     13  C   UNL     1       0.819  11.935  20.637  0.00  0.00    +0.000 C 
ATOM     14  O   UNL     1       2.027  11.937  18.320  0.00  0.00    +0.000 OA
ATOM     15  O   UNL     1      -0.384  11.205  18.434  0.00  0.00    +0.000 OA
ENDBRANCH   9  12
BRANCH   3  16
ATOM     16  C   UNL     1       1.942   2.497  21.375  0.00  0.00    +0.000 C 
ATOM     17  F   UNL     1       3.011   2.089  22.111  0.00  0.00    +0.000 F 
ATOM     18  F   UNL     1       1.012   2.942  22.263  0.00  0.00    +0.000 F 
ENDBRANCH   3  16
BRANCH   1  19
ATOM     19  N   UNL     1       3.559   5.123  17.413  0.00  0.00    +0.000 N 
ATOM     20  H   UNL     1       2.942   5.713  16.845  0.00  0.00    +0.000 HD
BRANCH  19  21
ATOM     21  C   UNL     1       4.591   4.379  16.684  0.00  0.00    +0.000 C 
BRANCH  21  23
ATOM     22  C   UNL     1       5.094   6.713  15.815  0.00  0.00    +0.000 C 
ATOM     23  C   UNL     1       5.610   5.272  15.933  0.00  0.00    +0.000 C 
ATOM     24  C   UNL     1       5.899   4.717  14.531  0.00  0.00    +0.000 C 
ATOM     25  C   UNL     1       6.933   5.305  16.736  0.00  0.00    +0.000 C 
ENDBRANCH  21  23
ENDBRANCH  19  21
ENDBRANCH   1  19
BRANCH   2  26
ATOM     26  C   UNL     1       3.386   2.194  18.598  0.00  0.00    +0.000 C 
ATOM     27  N   UNL     1       3.750   1.182  18.146  0.00  0.00    +0.000 NA
ENDBRANCH   2  26
TORSDOF 6
ENDMDL
MODEL 8
REMARK VINA RESULT:      -7.2      0.982      1.524
REMARK  Name = 
REMARK  10 active torsions:
REMARK  status: ('A' for Active; 'I' for Inactive)
REMARK    1  A    between atoms: C_1  and  C_2
REMARK    2  A    between atoms: C_2  and  C_3
REMARK    3  A    between atoms: C_2  and  C_4
REMARK    4  A    between atoms: C_2  and  C_5
REMARK    5  A    between atoms: C_5  and  N_6
REMARK    6  A    between atoms: N_6  and  C_7
REMARK    7  A    between atoms: C_8  and  C_9
REMARK    8  A    between atoms: C_11  and  C_12
REMARK    9  A    between atoms: C_20  and  S_21
REMARK   10  A    between atoms: S_21  and  C_22
REMARK                            x       y       z     vdW  Elec       q    Type
REMARK                         _______ _______ _______ _____ _____    ______ ____
ROOT
ATOM      1  C   UNL     1       3.004   4.871  18.632  0.00  0.00    +0.000 A 
ATOM      2  C   UNL     1       2.956   3.584  19.142  0.00  0.00    +0.000 A 
ATOM      3  C   UNL     1       2.328   3.672  20.398  0.00  0.00    +0.000 A 
ATOM      4  N   UNL     1       2.039   4.938  20.716  0.00  0.00    +0.000 NA
ATOM      5  N   UNL     1       2.385   5.671  19.615  0.00  0.00    +0.000 N 
ATOM      6  C   UNL     1       2.060   7.069  19.576  0.00  0.00    +0.000 A 
ATOM      7  C   UNL     1       1.401   7.631  20.682  0.00  0.00    +0.000 A 
ATOM      8  C   UNL     1       1.020   8.972  20.640  0.00  0.00    +0.000 A 
ATOM      9  C   UNL     1       1.313   9.708  19.498  0.00  0.00    +0.000 A 
ATOM     10  C   UNL     1       1.953   9.087  18.439  0.00  0.00    +0.000 A 
ATOM     11  N   UNL     1       2.345   7.789  18.457  0.00  0.00    +0.000 NA
ENDROOT
BRANCH   9  12
ATOM     12  S   UNL     1       0.756  11.369  19.316  0.00  0.00    +0.000 S 
ATOM     13  C   UNL     1       2.071  12.188  18.457  0.00  0.00    +0.000 C 
ATOM     14  O   UNL     1      -0.400  11.339  18.442  0.00  0.00    +0.000 OA
ATOM     15  O   UNL     1       0.666  11.938  20.647  0.00  0.00    +0.000 OA
ENDBRANCH   9  12
BRANCH   3  16
ATOM     16  C   UNL     1       1.969   2.546  21.309  0.00  0.00    +0.000 C 
ATOM     17  F   UNL     1       3.045   2.159  22.047  0.00  0.00    +0.000 F 
ATOM     18  F   UNL     1       1.010   2.921  22.198  0.00  0.00    +0.000 F 
ENDBRANCH   3  16
BRANCH   1  19
ATOM     19  N   UNL     1       3.482   5.369  17.442  0.00  0.00    +0.000 N 
ATOM     20  H   UNL     1       2.834   5.937  16.889  0.00  0.00    +0.000 HD
BRANCH  19  21
ATOM     21  C   UNL     1       4.556   4.704  16.697  0.00  0.00    +0.000 C 
BRANCH  21  23
ATOM     22  C   UNL     1       5.819   6.874  17.086  0.00  0.00    +0.000 C 
ATOM     23  C   UNL     1       5.949   5.360  16.864  0.00  0.00    +0.000 C 
ATOM     24  C   UNL     1       6.832   5.099  15.635  0.00  0.00    +0.000 C 
ATOM     25  C   UNL     1       6.640   4.755  18.110  0.00  0.00    +0.000 C 
ENDBRANCH  21  23
ENDBRANCH  19  21
ENDBRANCH   1  19
BRANCH   2  26
ATOM     26  C   UNL     1       3.387   2.390  18.507  0.00  0.00    +0.000 C 
ATOM     27  N   UNL     1       3.749   1.395  18.018  0.00  0.00    +0.000 NA
ENDBRANCH   2  26
TORSDOF 6
ENDMDL
MODEL 9
REMARK VINA RESULT:      -7.1      2.715      4.406
REMARK  Name = 
REMARK  10 active torsions:
REMARK  status: ('A' for Active; 'I' for Inactive)
REMARK    1  A    between atoms: C_1  and  C_2
REMARK    2  A    between atoms: C_2  and  C_3
REMARK    3  A    between atoms: C_2  and  C_4
REMARK    4  A    between atoms: C_2  and  C_5
REMARK    5  A    between atoms: C_5  and  N_6
REMARK    6  A    between atoms: N_6  and  C_7
REMARK    7  A    between atoms: C_8  and  C_9
REMARK    8  A    between atoms: C_11  and  C_12
REMARK    9  A    between atoms: C_20  and  S_21
REMARK   10  A    between atoms: S_21  and  C_22
REMARK                            x       y       z     vdW  Elec       q    Type
REMARK                         _______ _______ _______ _____ _____    ______ ____
ROOT
ATOM      1  C   UNL     1       3.248   6.086  19.318  0.00  0.00    +0.000 A 
ATOM      2  C   UNL     1       4.153   5.650  18.365  0.00  0.00    +0.000 A 
ATOM      3  C   UNL     1       4.177   6.629  17.355  0.00  0.00    +0.000 A 
ATOM      4  N   UNL     1       3.301   7.610  17.600  0.00  0.00    +0.000 NA
ATOM      5  N   UNL     1       2.779   7.323  18.831  0.00  0.00    +0.000 N 
ATOM      6  C   UNL     1       1.905   8.274  19.456  0.00  0.00    +0.000 A 
ATOM      7  C   UNL     1       1.615   9.465  18.772  0.00  0.00    +0.000 A 
ATOM      8  C   UNL     1       0.819  10.431  19.387  0.00  0.00    +0.000 A 
ATOM      9  C   UNL     1       0.335  10.172  20.664  0.00  0.00    +0.000 A 
ATOM     10  C   UNL     1       0.670   8.983  21.287  0.00  0.00    +0.000 A 
ATOM     11  N   UNL     1       1.432   8.023  20.708  0.00  0.00    +0.000 NA
ENDROOT
BRANCH   9  12
ATOM     12  S   UNL     1      -0.572  11.390  21.558  0.00  0.00    +0.000 S 
ATOM     13  C   UNL     1      -1.032  10.583  23.066  0.00  0.00    +0.000 C 
ATOM     14  O   UNL     1       0.353  12.458  21.885  0.00  0.00    +0.000 OA
ATOM     15  O   UNL     1      -1.782  11.661  20.806  0.00  0.00    +0.000 OA
ENDBRANCH   9  12
BRANCH   3  16
ATOM     16  C   UNL     1       5.052   6.660  16.147  0.00  0.00    +0.000 C 
ATOM     17  F   UNL     1       6.362   6.765  16.501  0.00  0.00    +0.000 F 
ATOM     18  F   UNL     1       4.941   5.509  15.430  0.00  0.00    +0.000 F 
ENDBRANCH   3  16
BRANCH   1  19
ATOM     19  N   UNL     1       2.848   5.544  20.518  0.00  0.00    +0.000 N 
ATOM     20  H   UNL     1       3.582   5.374  21.212  0.00  0.00    +0.000 HD
BRANCH  19  21
ATOM     21  C   UNL     1       1.644   4.715  20.634  0.00  0.00    +0.000 C 
BRANCH  21  23
ATOM     22  C   UNL     1       3.402   2.915  20.986  0.00  0.00    +0.000 C 
ATOM     23  C   UNL     1       1.921   3.192  20.691  0.00  0.00    +0.000 C 
ATOM     24  C   UNL     1       1.528   2.512  19.372  0.00  0.00    +0.000 C 
ATOM     25  C   UNL     1       1.085   2.575  21.838  0.00  0.00    +0.000 C 
ENDBRANCH  21  23
ENDBRANCH  19  21
ENDBRANCH   1  19
BRANCH   2  26
ATOM     26  C   UNL     1       4.959   4.482  18.413  0.00  0.00    +0.000 C 
ATOM     27  N   UNL     1       5.629   3.530  18.487  0.00  0.00    +0.000 NA
ENDBRANCH   2  26
TORSDOF 6
ENDMDL
