MODEL 1
REMARK VINA RESULT:      -6.6      0.000      0.000
REMARK  Name = 
REMARK  4 active torsions:
REMARK  status: ('A' for Active; 'I' for Inactive)
REMARK    1  A    between atoms: C_2  and  C_3
REMARK    2  A    between atoms: C_3  and  O_4
REMARK    3  A    between atoms: O_4  and  C_5
REMARK    4  A    between atoms: C_7  and  O_8
REMARK                            x       y       z     vdW  Elec       q    Type
REMARK                         _______ _______ _______ _____ _____    ______ ____
ROOT
ATOM      1  C   UNL     1       6.248   4.298  17.021  0.00  0.00    +0.000 A 
ATOM      2  C   UNL     1       7.387   4.812  17.637  0.00  0.00    +0.000 A 
ATOM      3  C   UNL     1       7.226   5.429  18.860  0.00  0.00    +0.000 A 
ATOM      4  N   UNL     1       6.054   5.560  19.497  0.00  0.00    +0.000 NA
ATOM      5  C   UNL     1       4.956   5.064  18.905  0.00  0.00    +0.000 A 
ATOM      6  C   UNL     1       3.724   5.257  19.517  0.00  0.00    +0.000 A 
ATOM      7  C   UNL     1       2.534   4.816  18.934  0.00  0.00    +0.000 A 
ATOM      8  C   UNL     1       2.572   4.119  17.734  0.00  0.00    +0.000 A 
ATOM      9  C   UNL     1       3.798   3.894  17.110  0.00  0.00    +0.000 A 
ATOM     10  C   UNL     1       4.996   4.392  17.667  0.00  0.00    +0.000 A 
ENDROOT
BRANCH   3  11
ATOM     11  O   UNL     1       8.286   5.997  19.505  0.00  0.00    +0.000 OA
ATOM     12  H   UNL     1       7.949   6.561  20.215  0.00  0.00    +0.000 HD
ENDBRANCH   3  11
BRANCH   1  13
ATOM     13  O   UNL     1       6.273   3.694  15.785  0.00  0.00    +0.000 OA
BRANCH  13  14
ATOM     14  C   UNL     1       6.616   4.553  14.689  0.00  0.00    +0.000 C 
BRANCH  14  16
ATOM     15  C   UNL     1       5.981   3.392  12.369  0.00  0.00    +0.000 C 
ATOM     16  C   UNL     1       6.271   3.893  13.420  0.00  0.00    +0.000 C 
ENDBRANCH  14  16
ENDBRANCH  13  14
ENDBRANCH   1  13
TORSDOF 4
ENDMDL
MODEL 2
REMARK VINA RESULT:      -6.4      1.013      1.013
REMARK  Name = 
REMARK  4 active torsions:
REMARK  status: ('A' for Active; 'I' for Inactive)
REMARK    1  A    between atoms: C_2  and  C_3
REMARK    2  A    between atoms: C_3  and  O_4
REMARK    3  A    between atoms: O_4  and  C_5
REMARK    4  A    between atoms: C_7  and  O_8
REMARK                            x       y       z     vdW  Elec       q    Type
REMARK                         _______ _______ _______ _____ _____    ______ ____
ROOT
ATOM      1  C   UNL     1       6.220   5.303  16.768  0.00  0.00    +0.000 A 
ATOM      2  C   UNL     1       7.268   5.878  17.481  0.00  0.00    +0.000 A 
ATOM      3  C   UNL     1       7.304   5.665  18.844  0.00  0.00    +0.000 A 
ATOM      4  N   UNL     1       6.406   4.937  19.523  0.00  0.00    +0.000 NA
ATOM      5  C   UNL     1       5.396   4.381  18.836  0.00  0.00    +0.000 A 
ATOM      6  C   UNL     1       4.417   3.687  19.535  0.00  0.00    +0.000 A 
ATOM      7  C   UNL     1       3.309   3.128  18.893  0.00  0.00    +0.000 A 
ATOM      8  C   UNL     1       3.196   3.216  17.512  0.00  0.00    +0.000 A 
ATOM      9  C   UNL     1       4.176   3.889  16.786  0.00  0.00    +0.000 A 
ATOM     10  C   UNL     1       5.265   4.508  17.438  0.00  0.00    +0.000 A 
ENDROOT
BRANCH   3  11
ATOM     11  O   UNL     1       8.274   6.231  19.619  0.00  0.00    +0.000 OA
ATOM     12  H   UNL     1       8.420   7.138  19.314  0.00  0.00    +0.000 HD
ENDBRANCH   3  11
BRANCH   1  13
ATOM     13  O   UNL     1       6.054   5.474  15.412  0.00  0.00    +0.000 OA
BRANCH  13  14
ATOM     14  C   UNL     1       7.021   4.810  14.587  0.00  0.00    +0.000 C 
BRANCH  14  16
ATOM     15  C   UNL     1       5.743   3.455  12.673  0.00  0.00    +0.000 C 
ATOM     16  C   UNL     1       6.331   4.072  13.517  0.00  0.00    +0.000 C 
ENDBRANCH  14  16
ENDBRANCH  13  14
ENDBRANCH   1  13
TORSDOF 4
ENDMDL
MODEL 3
REMARK VINA RESULT:      -6.4      2.903      4.494
REMARK  Name = 
REMARK  4 active torsions:
REMARK  status: ('A' for Active; 'I' for Inactive)
REMARK    1  A    between atoms: C_2  and  C_3
REMARK    2  A    between atoms: C_3  and  O_4
REMARK    3  A    between atoms: O_4  and  C_5
REMARK    4  A    between atoms: C_7  and  O_8
REMARK                            x       y       z     vdW  Elec       q    Type
REMARK                         _______ _______ _______ _____ _____    ______ ____
ROOT
ATOM      1  C   UNL     1       3.379   5.393  18.489  0.00  0.00    +0.000 A 
ATOM      2  C   UNL     1       4.711   5.306  18.091  0.00  0.00    +0.000 A 
ATOM      3  C   UNL     1       5.465   4.276  18.612  0.00  0.00    +0.000 A 
ATOM      4  N   UNL     1       5.003   3.351  19.465  0.00  0.00    +0.000 NA
ATOM      5  C   UNL     1       3.719   3.433  19.849  0.00  0.00    +0.000 A 
ATOM      6  C   UNL     1       3.245   2.528  20.789  0.00  0.00    +0.000 A 
ATOM      7  C   UNL     1       1.936   2.586  21.274  0.00  0.00    +0.000 A 
ATOM      8  C   UNL     1       1.058   3.538  20.774  0.00  0.00    +0.000 A 
ATOM      9  C   UNL     1       1.503   4.444  19.814  0.00  0.00    +0.000 A 
ATOM     10  C   UNL     1       2.842   4.427  19.367  0.00  0.00    +0.000 A 
ENDROOT
BRANCH   3  11
ATOM     11  O   UNL     1       6.789   4.149  18.306  0.00  0.00    +0.000 OA
ATOM     12  H   UNL     1       7.238   3.724  19.050  0.00  0.00    +0.000 HD
ENDBRANCH   3  11
BRANCH   1  13
ATOM     13  O   UNL     1       2.535   6.396  18.069  0.00  0.00    +0.000 OA
BRANCH  13  14
ATOM     14  C   UNL     1       3.174   7.636  17.737  0.00  0.00    +0.000 C 
BRANCH  14  16
ATOM     15  C   UNL     1       1.439   9.649  18.000  0.00  0.00    +0.000 C 
ATOM     16  C   UNL     1       2.219   8.743  17.904  0.00  0.00    +0.000 C 
ENDBRANCH  14  16
ENDBRANCH  13  14
ENDBRANCH   1  13
TORSDOF 4
ENDMDL
MODEL 4
REMARK VINA RESULT:      -6.3      1.627      4.603
REMARK  Name = 
REMARK  4 active torsions:
REMARK  status: ('A' for Active; 'I' for Inactive)
REMARK    1  A    between atoms: C_2  and  C_3
REMARK    2  A    between atoms: C_3  and  O_4
REMARK    3  A    between atoms: O_4  and  C_5
REMARK    4  A    between atoms: C_7  and  O_8
REMARK                            x       y       z     vdW  Elec       q    Type
REMARK                         _______ _______ _______ _____ _____    ______ ____
ROOT
ATOM      1  C   UNL     1       4.823   4.825  18.233  0.00  0.00    +0.000 A 
ATOM      2  C   UNL     1       5.571   5.121  19.371  0.00  0.00    +0.000 A 
ATOM      3  C   UNL     1       6.924   5.334  19.206  0.00  0.00    +0.000 A 
ATOM      4  N   UNL     1       7.563   5.284  18.030  0.00  0.00    +0.000 NA
ATOM      5  C   UNL     1       6.844   4.999  16.933  0.00  0.00    +0.000 A 
ATOM      6  C   UNL     1       7.504   4.870  15.718  0.00  0.00    +0.000 A 
ATOM      7  C   UNL     1       6.828   4.524  14.545  0.00  0.00    +0.000 A 
ATOM      8  C   UNL     1       5.452   4.350  14.568  0.00  0.00    +0.000 A 
ATOM      9  C   UNL     1       4.763   4.495  15.771  0.00  0.00    +0.000 A 
ATOM     10  C   UNL     1       5.451   4.785  16.970  0.00  0.00    +0.000 A 
ENDROOT
BRANCH   3  11
ATOM     11  O   UNL     1       7.731   5.585  20.278  0.00  0.00    +0.000 OA
ATOM     12  H   UNL     1       7.253   5.349  21.085  0.00  0.00    +0.000 HD
ENDBRANCH   3  11
BRANCH   1  13
ATOM     13  O   UNL     1       3.474   4.556  18.273  0.00  0.00    +0.000 OA
BRANCH  13  14
ATOM     14  C   UNL     1       2.709   5.383  19.160  0.00  0.00    +0.000 C 
BRANCH  14  16
ATOM     15  C   UNL     1       1.048   3.828  20.558  0.00  0.00    +0.000 C 
ATOM     16  C   UNL     1       1.786   4.545  19.941  0.00  0.00    +0.000 C 
ENDBRANCH  14  16
ENDBRANCH  13  14
ENDBRANCH   1  13
TORSDOF 4
ENDMDL
MODEL 5
REMARK VINA RESULT:      -6.2      1.805      4.250
REMARK  Name = 
REMARK  4 active torsions:
REMARK  status: ('A' for Active; 'I' for Inactive)
REMARK    1  A    between atoms: C_2  and  C_3
REMARK    2  A    between atoms: C_3  and  O_4
REMARK    3  A    between atoms: O_4  and  C_5
REMARK    4  A    between atoms: C_7  and  O_8
REMARK                            x       y       z     vdW  Elec       q    Type
REMARK                         _______ _______ _______ _____ _____    ______ ____
ROOT
ATOM      1  C   UNL     1       4.829   4.960  18.315  0.00  0.00    +0.000 A 
ATOM      2  C   UNL     1       5.610   5.221  19.439  0.00  0.00    +0.000 A 
ATOM      3  C   UNL     1       6.972   5.340  19.254  0.00  0.00    +0.000 A 
ATOM      4  N   UNL     1       7.591   5.230  18.070  0.00  0.00    +0.000 NA
ATOM      5  C   UNL     1       6.839   4.980  16.986  0.00  0.00    +0.000 A 
ATOM      6  C   UNL     1       7.472   4.790  15.765  0.00  0.00    +0.000 A 
ATOM      7  C   UNL     1       6.759   4.474  14.606  0.00  0.00    +0.000 A 
ATOM      8  C   UNL     1       5.374   4.394  14.650  0.00  0.00    +0.000 A 
ATOM      9  C   UNL     1       4.713   4.602  15.859  0.00  0.00    +0.000 A 
ATOM     10  C   UNL     1       5.435   4.861  17.045  0.00  0.00    +0.000 A 
ENDROOT
BRANCH   3  11
ATOM     11  O   UNL     1       7.809   5.550  20.311  0.00  0.00    +0.000 OA
ATOM     12  H   UNL     1       7.708   6.466  20.606  0.00  0.00    +0.000 HD
ENDBRANCH   3  11
BRANCH   1  13
ATOM     13  O   UNL     1       3.465   4.784  18.376  0.00  0.00    +0.000 OA
BRANCH  13  14
ATOM     14  C   UNL     1       2.752   5.770  19.132  0.00  0.00    +0.000 C 
BRANCH  14  16
ATOM     15  C   UNL     1       2.686   8.067  17.771  0.00  0.00    +0.000 C 
ATOM     16  C   UNL     1       2.697   7.029  18.372  0.00  0.00    +0.000 C 
ENDBRANCH  14  16
ENDBRANCH  13  14
ENDBRANCH   1  13
TORSDOF 4
ENDMDL
MODEL 6
REMARK VINA RESULT:      -6.2      2.503      3.517
REMARK  Name = 
REMARK  4 active torsions:
REMARK  status: ('A' for Active; 'I' for Inactive)
REMARK    1  A    between atoms: C_2  and  C_3
REMARK    2  A    between atoms: C_3  and  O_4
REMARK    3  A    between atoms: O_4  and  C_5
REMARK    4  A    between atoms: C_7  and  O_8
REMARK                            x       y       z     vdW  Elec       q    Type
REMARK                         _______ _______ _______ _____ _____    ______ ____
ROOT
ATOM      1  C   UNL     1       4.958   5.282  17.515  0.00  0.00    +0.000 A 
ATOM      2  C   UNL     1       5.305   4.049  18.064  0.00  0.00    +0.000 A 
ATOM      3  C   UNL     1       4.629   3.643  19.196  0.00  0.00    +0.000 A 
ATOM      4  N   UNL     1       3.660   4.347  19.796  0.00  0.00    +0.000 NA
ATOM      5  C   UNL     1       3.324   5.535  19.268  0.00  0.00    +0.000 A 
ATOM      6  C   UNL     1       2.373   6.309  19.920  0.00  0.00    +0.000 A 
ATOM      7  C   UNL     1       2.013   7.578  19.457  0.00  0.00    +0.000 A 
ATOM      8  C   UNL     1       2.574   8.070  18.287  0.00  0.00    +0.000 A 
ATOM      9  C   UNL     1       3.514   7.302  17.602  0.00  0.00    +0.000 A 
ATOM     10  C   UNL     1       3.926   6.046  18.100  0.00  0.00    +0.000 A 
ENDROOT
BRANCH   3  11
ATOM     11  O   UNL     1       4.942   2.469  19.818  0.00  0.00    +0.000 OA
ATOM     12  H   UNL     1       4.403   1.764  19.434  0.00  0.00    +0.000 HD
ENDBRANCH   3  11
BRANCH   1  13
ATOM     13  O   UNL     1       5.585   5.812  16.411  0.00  0.00    +0.000 OA
BRANCH  13  14
ATOM     14  C   UNL     1       7.017   5.839  16.471  0.00  0.00    +0.000 C 
BRANCH  14  16
ATOM     15  C   UNL     1       7.827   7.988  17.834  0.00  0.00    +0.000 C 
ATOM     16  C   UNL     1       7.456   7.036  17.205  0.00  0.00    +0.000 C 
ENDBRANCH  14  16
ENDBRANCH  13  14
ENDBRANCH   1  13
TORSDOF 4
ENDMDL
MODEL 7
REMARK VINA RESULT:      -6.2      1.531      1.567
REMARK  Name = 
REMARK  4 active torsions:
REMARK  status: ('A' for Active; 'I' for Inactive)
REMARK    1  A    between atoms: C_2  and  C_3
REMARK    2  A    between atoms: C_3  and  O_4
REMARK    3  A    between atoms: O_4  and  C_5
REMARK    4  A    between atoms: C_7  and  O_8
REMARK                            x       y       z     vdW  Elec       q    Type
REMARK                         _______ _______ _______ _____ _____    ______ ____
ROOT
ATOM      1  C   UNL     1       5.701   4.644  16.015  0.00  0.00    +0.000 A 
ATOM      2  C   UNL     1       6.613   5.691  16.125  0.00  0.00    +0.000 A 
ATOM      3  C   UNL     1       6.308   6.711  17.002  0.00  0.00    +0.000 A 
ATOM      4  N   UNL     1       5.201   6.758  17.757  0.00  0.00    +0.000 NA
ATOM      5  C   UNL     1       4.322   5.749  17.652  0.00  0.00    +0.000 A 
ATOM      6  C   UNL     1       3.137   5.820  18.372  0.00  0.00    +0.000 A 
ATOM      7  C   UNL     1       2.153   4.833  18.271  0.00  0.00    +0.000 A 
ATOM      8  C   UNL     1       2.373   3.720  17.472  0.00  0.00    +0.000 A 
ATOM      9  C   UNL     1       3.565   3.615  16.756  0.00  0.00    +0.000 A 
ATOM     10  C   UNL     1       4.534   4.640  16.808  0.00  0.00    +0.000 A 
ENDROOT
BRANCH   3  11
ATOM     11  O   UNL     1       7.128   7.793  17.134  0.00  0.00    +0.000 OA
ATOM     12  H   UNL     1       8.041   7.482  17.198  0.00  0.00    +0.000 HD
ENDBRANCH   3  11
BRANCH   1  13
ATOM     13  O   UNL     1       5.875   3.588  15.148  0.00  0.00    +0.000 OA
BRANCH  13  14
ATOM     14  C   UNL     1       6.521   3.911  13.910  0.00  0.00    +0.000 C 
BRANCH  14  16
ATOM     15  C   UNL     1       4.926   3.209  11.887  0.00  0.00    +0.000 C 
ATOM     16  C   UNL     1       5.659   3.511  12.786  0.00  0.00    +0.000 C 
ENDBRANCH  14  16
ENDBRANCH  13  14
ENDBRANCH   1  13
TORSDOF 4
ENDMDL
MODEL 8
REMARK VINA RESULT:      -6.2      2.267      2.808
REMARK  Name = 
REMARK  4 active torsions:
REMARK  status: ('A' for Active; 'I' for Inactive)
REMARK    1  A    between atoms: C_2  and  C_3
REMARK    2  A    between atoms: C_3  and  O_4
REMARK    3  A    between atoms: O_4  and  C_5
REMARK    4  A    between atoms: C_7  and  O_8
REMARK                            x       y       z     vdW  Elec       q    Type
REMARK                         _______ _______ _______ _____ _____    ______ ____
ROOT
ATOM      1  C   UNL     1       4.882   5.031  17.500  0.00  0.00    +0.000 A 
ATOM      2  C   UNL     1       4.689   6.410  17.528  0.00  0.00    +0.000 A 
ATOM      3  C   UNL     1       3.428   6.871  17.845  0.00  0.00    +0.000 A 
ATOM      4  N   UNL     1       2.382   6.084  18.134  0.00  0.00    +0.000 NA
ATOM      5  C   UNL     1       2.567   4.755  18.108  0.00  0.00    +0.000 A 
ATOM      6  C   UNL     1       1.475   3.926  18.332  0.00  0.00    +0.000 A 
ATOM      7  C   UNL     1       1.582   2.535  18.268  0.00  0.00    +0.000 A 
ATOM      8  C   UNL     1       2.816   1.948  18.025  0.00  0.00    +0.000 A 
ATOM      9  C   UNL     1       3.931   2.758  17.818  0.00  0.00    +0.000 A 
ATOM     10  C   UNL     1       3.815   4.165  17.821  0.00  0.00    +0.000 A 
ENDROOT
BRANCH   3  11
ATOM     11  O   UNL     1       3.149   8.207  17.850  0.00  0.00    +0.000 OA
ATOM     12  H   UNL     1       3.928   8.685  17.536  0.00  0.00    +0.000 HD
ENDBRANCH   3  11
BRANCH   1  13
ATOM     13  O   UNL     1       6.083   4.450  17.161  0.00  0.00    +0.000 OA
BRANCH  13  14
ATOM     14  C   UNL     1       6.781   5.071  16.074  0.00  0.00    +0.000 C 
BRANCH  14  16
ATOM     15  C   UNL     1       6.041   3.904  13.789  0.00  0.00    +0.000 C 
ATOM     16  C   UNL     1       6.370   4.449  14.806  0.00  0.00    +0.000 C 
ENDBRANCH  14  16
ENDBRANCH  13  14
ENDBRANCH   1  13
TORSDOF 4
ENDMDL
MODEL 9
REMARK VINA RESULT:      -6.1      1.710      4.056
REMARK  Name = 
REMARK  4 active torsions:
REMARK  status: ('A' for Active; 'I' for Inactive)
REMARK    1  A    between atoms: C_2  and  C_3
REMARK    2  A    between atoms: C_3  and  O_4
REMARK    3  A    between atoms: O_4  and  C_5
REMARK    4  A    between atoms: C_7  and  O_8
REMARK                            x       y       z     vdW  Elec       q    Type
REMARK                         _______ _______ _______ _____ _____    ______ ____
ROOT
ATOM      1  C   UNL     1       4.846   5.029  18.296  0.00  0.00    +0.000 A 
ATOM      2  C   UNL     1       5.632   5.285  19.417  0.00  0.00    +0.000 A 
ATOM      3  C   UNL     1       6.996   5.370  19.233  0.00  0.00    +0.000 A 
ATOM      4  N   UNL     1       7.613   5.233  18.051  0.00  0.00    +0.000 NA
ATOM      5  C   UNL     1       6.857   4.987  16.969  0.00  0.00    +0.000 A 
ATOM      6  C   UNL     1       7.487   4.768  15.751  0.00  0.00    +0.000 A 
ATOM      7  C   UNL     1       6.767   4.455  14.595  0.00  0.00    +0.000 A 
ATOM      8  C   UNL     1       5.381   4.407  14.638  0.00  0.00    +0.000 A 
ATOM      9  C   UNL     1       4.724   4.644  15.844  0.00  0.00    +0.000 A 
ATOM     10  C   UNL     1       5.451   4.901  17.027  0.00  0.00    +0.000 A 
ENDROOT
BRANCH   3  11
ATOM     11  O   UNL     1       7.837   5.574  20.288  0.00  0.00    +0.000 OA
ATOM     12  H   UNL     1       7.368   5.346  21.103  0.00  0.00    +0.000 HD
ENDBRANCH   3  11
BRANCH   1  13
ATOM     13  O   UNL     1       3.479   4.884  18.357  0.00  0.00    +0.000 OA
BRANCH  13  14
ATOM     14  C   UNL     1       3.006   3.914  19.302  0.00  0.00    +0.000 C 
BRANCH  14  16
ATOM     15  C   UNL     1       3.495   1.459  18.371  0.00  0.00    +0.000 C 
ATOM     16  C   UNL     1       3.294   2.560  18.803  0.00  0.00    +0.000 C 
ENDBRANCH  14  16
ENDBRANCH  13  14
ENDBRANCH   1  13
TORSDOF 4
ENDMDL
