MODEL 1
REMARK VINA RESULT:      -7.5      0.000      0.000
REMARK  Name = 
REMARK  4 active torsions:
REMARK  status: ('A' for Active; 'I' for Inactive)
REMARK    1  A    between atoms: C_1  and  N_2
REMARK    2  A    between atoms: C_8  and  C_9
REMARK    3  A    between atoms: C_19  and  C_20
REMARK    4  A    between atoms: C_19  and  C_21
REMARK                            x       y       z     vdW  Elec       q    Type
REMARK                         _______ _______ _______ _____ _____    ______ ____
ROOT
ATOM      1  C   UNL     1       1.155   5.117  20.430  0.00  0.00    +0.000 C 
ATOM      2  N   UNL     1       2.441   4.557  20.077  0.00  0.00    +0.000 N 
ATOM      3  C   UNL     1       3.158   5.430  19.261  0.00  0.00    +0.000 C 
ATOM      4  O   UNL     1       3.381   6.561  19.682  0.00  0.00    +0.000 OA
ATOM      5  C   UNL     1       3.844   4.757  18.035  0.00  0.00    +0.000 C 
ATOM      6  S   UNL     1       2.742   3.670  17.061  0.00  0.00    +0.000 S 
ATOM      7  S   UNL     1       2.037   2.392  18.445  0.00  0.00    +0.000 S 
ATOM      8  C   UNL     1       2.772   3.128  19.946  0.00  0.00    +0.000 C 
ATOM      9  C   UNL     1       2.169   2.282  21.072  0.00  0.00    +0.000 C 
ATOM     10  C   UNL     1       4.427   3.117  19.787  0.00  0.00    +0.000 C 
ATOM     11  O   UNL     1       5.165   2.421  20.477  0.00  0.00    +0.000 OA
ATOM     12  N   UNL     1       4.871   4.029  18.783  0.00  0.00    +0.000 N 
ATOM     13  C   UNL     1       6.045   4.860  18.724  0.00  0.00    +0.000 A 
ATOM     14  C   UNL     1       7.224   4.843  19.444  0.00  0.00    +0.000 A 
ATOM     15  C   UNL     1       8.150   5.906  19.254  0.00  0.00    +0.000 A 
ATOM     16  C   UNL     1       7.884   6.978  18.376  0.00  0.00    +0.000 A 
ATOM     17  C   UNL     1       6.705   6.984  17.647  0.00  0.00    +0.000 A 
ATOM     18  C   UNL     1       5.819   5.936  17.824  0.00  0.00    +0.000 A 
ATOM     19  C   UNL     1       4.504   5.800  17.099  0.00  0.00    +0.000 C 
ATOM     20  C   UNL     1       4.836   5.341  15.659  0.00  0.00    +0.000 C 
ATOM     21  C   UNL     1       3.609   7.045  16.978  0.00  0.00    +0.000 C 
ENDROOT
TORSDOF 0
ENDMDL
MODEL 2
REMARK VINA RESULT:      -7.0      1.765      5.137
REMARK  Name = 
REMARK  4 active torsions:
REMARK  status: ('A' for Active; 'I' for Inactive)
REMARK    1  A    between atoms: C_1  and  N_2
REMARK    2  A    between atoms: C_8  and  C_9
REMARK    3  A    between atoms: C_19  and  C_20
REMARK    4  A    between atoms: C_19  and  C_21
REMARK                            x       y       z     vdW  Elec       q    Type
REMARK                         _______ _______ _______ _____ _____    ______ ____
ROOT
ATOM      1  C   UNL     1       7.901   4.834  18.409  0.00  0.00    +0.000 C 
ATOM      2  N   UNL     1       6.541   5.286  18.211  0.00  0.00    +0.000 N 
ATOM      3  C   UNL     1       5.629   4.328  18.650  0.00  0.00    +0.000 C 
ATOM      4  O   UNL     1       5.699   3.957  19.817  0.00  0.00    +0.000 OA
ATOM      5  C   UNL     1       4.440   4.071  17.676  0.00  0.00    +0.000 C 
ATOM      6  S   UNL     1       4.940   3.785  15.940  0.00  0.00    +0.000 S 
ATOM      7  S   UNL     1       6.042   5.414  15.519  0.00  0.00    +0.000 S 
ATOM      8  C   UNL     1       6.064   6.205  17.164  0.00  0.00    +0.000 C 
ATOM      9  C   UNL     1       7.004   7.397  16.959  0.00  0.00    +0.000 C 
ATOM     10  C   UNL     1       4.498   6.538  17.614  0.00  0.00    +0.000 C 
ATOM     11  O   UNL     1       4.056   7.678  17.720  0.00  0.00    +0.000 OA
ATOM     12  N   UNL     1       3.758   5.349  17.886  0.00  0.00    +0.000 N 
ATOM     13  C   UNL     1       2.742   5.081  18.870  0.00  0.00    +0.000 A 
ATOM     14  C   UNL     1       1.971   5.920  19.652  0.00  0.00    +0.000 A 
ATOM     15  C   UNL     1       1.146   5.342  20.656  0.00  0.00    +0.000 A 
ATOM     16  C   UNL     1       1.115   3.950  20.885  0.00  0.00    +0.000 A 
ATOM     17  C   UNL     1       1.880   3.112  20.089  0.00  0.00    +0.000 A 
ATOM     18  C   UNL     1       2.666   3.682  19.103  0.00  0.00    +0.000 A 
ATOM     19  C   UNL     1       3.544   2.903  18.157  0.00  0.00    +0.000 C 
ATOM     20  C   UNL     1       2.605   2.259  17.108  0.00  0.00    +0.000 C 
ATOM     21  C   UNL     1       4.411   1.772  18.735  0.00  0.00    +0.000 C 
ENDROOT
TORSDOF 0
ENDMDL
MODEL 3
REMARK VINA RESULT:      -6.9      2.135      4.941
REMARK  Name = 
REMARK  4 active torsions:
REMARK  status: ('A' for Active; 'I' for Inactive)
REMARK    1  A    between atoms: C_1  and  N_2
REMARK    2  A    between atoms: C_8  and  C_9
REMARK    3  A    between atoms: C_19  and  C_20
REMARK    4  A    between atoms: C_19  and  C_21
REMARK                            x       y       z     vdW  Elec       q    Type
REMARK                         _______ _______ _______ _____ _____    ______ ____
ROOT
ATOM      1  C   UNL     1       7.791   4.445  18.106  0.00  0.00    +0.000 C 
ATOM      2  N   UNL     1       6.612   5.087  17.567  0.00  0.00    +0.000 N 
ATOM      3  C   UNL     1       5.571   5.077  18.494  0.00  0.00    +0.000 C 
ATOM      4  O   UNL     1       5.770   5.591  19.590  0.00  0.00    +0.000 OA
ATOM      5  C   UNL     1       4.185   4.676  17.907  0.00  0.00    +0.000 C 
ATOM      6  S   UNL     1       4.209   3.150  16.898  0.00  0.00    +0.000 S 
ATOM      7  S   UNL     1       5.627   3.543  15.527  0.00  0.00    +0.000 S 
ATOM      8  C   UNL     1       6.218   5.155  16.150  0.00  0.00    +0.000 C 
ATOM      9  C   UNL     1       7.402   5.464  15.228  0.00  0.00    +0.000 C 
ATOM     10  C   UNL     1       4.947   6.226  16.143  0.00  0.00    +0.000 C 
ATOM     11  O   UNL     1       4.889   7.198  15.396  0.00  0.00    +0.000 OA
ATOM     12  N   UNL     1       3.965   5.892  17.123  0.00  0.00    +0.000 N 
ATOM     13  C   UNL     1       3.141   6.735  17.951  0.00  0.00    +0.000 A 
ATOM     14  C   UNL     1       2.828   8.078  17.876  0.00  0.00    +0.000 A 
ATOM     15  C   UNL     1       2.096   8.664  18.945  0.00  0.00    +0.000 A 
ATOM     16  C   UNL     1       1.709   7.919  20.079  0.00  0.00    +0.000 A 
ATOM     17  C   UNL     1       2.014   6.568  20.143  0.00  0.00    +0.000 A 
ATOM     18  C   UNL     1       2.710   6.003  19.089  0.00  0.00    +0.000 A 
ATOM     19  C   UNL     1       3.106   4.550  19.012  0.00  0.00    +0.000 C 
ATOM     20  C   UNL     1       1.825   3.758  18.657  0.00  0.00    +0.000 C 
ATOM     21  C   UNL     1       3.706   3.893  20.267  0.00  0.00    +0.000 C 
ENDROOT
TORSDOF 0
ENDMDL
MODEL 4
REMARK VINA RESULT:      -6.7      2.075      3.277
REMARK  Name = 
REMARK  4 active torsions:
REMARK  status: ('A' for Active; 'I' for Inactive)
REMARK    1  A    between atoms: C_1  and  N_2
REMARK    2  A    between atoms: C_8  and  C_9
REMARK    3  A    between atoms: C_19  and  C_20
REMARK    4  A    between atoms: C_19  and  C_21
REMARK                            x       y       z     vdW  Elec       q    Type
REMARK                         _______ _______ _______ _____ _____    ______ ____
ROOT
ATOM      1  C   UNL     1       3.616   2.506  20.985  0.00  0.00    +0.000 C 
ATOM      2  N   UNL     1       3.416   3.047  19.658  0.00  0.00    +0.000 N 
ATOM      3  C   UNL     1       4.561   3.705  19.211  0.00  0.00    +0.000 C 
ATOM      4  O   UNL     1       5.610   3.071  19.167  0.00  0.00    +0.000 OA
ATOM      5  C   UNL     1       4.294   5.084  18.537  0.00  0.00    +0.000 C 
ATOM      6  S   UNL     1       3.209   6.195  19.504  0.00  0.00    +0.000 S 
ATOM      7  S   UNL     1       1.570   5.068  19.803  0.00  0.00    +0.000 S 
ATOM      8  C   UNL     1       2.141   3.494  19.074  0.00  0.00    +0.000 C 
ATOM      9  C   UNL     1       0.987   2.535  19.383  0.00  0.00    +0.000 C 
ATOM     10  C   UNL     1       2.508   3.754  17.473  0.00  0.00    +0.000 C 
ATOM     11  O   UNL     1       1.863   3.271  16.547  0.00  0.00    +0.000 OA
ATOM     12  N   UNL     1       3.668   4.570  17.319  0.00  0.00    +0.000 N 
ATOM     13  C   UNL     1       4.723   4.526  16.338  0.00  0.00    +0.000 A 
ATOM     14  C   UNL     1       4.815   3.900  15.110  0.00  0.00    +0.000 A 
ATOM     15  C   UNL     1       6.064   3.920  14.432  0.00  0.00    +0.000 A 
ATOM     16  C   UNL     1       7.205   4.536  14.988  0.00  0.00    +0.000 A 
ATOM     17  C   UNL     1       7.104   5.174  16.215  0.00  0.00    +0.000 A 
ATOM     18  C   UNL     1       5.879   5.165  16.859  0.00  0.00    +0.000 A 
ATOM     19  C   UNL     1       5.612   5.820  18.191  0.00  0.00    +0.000 C 
ATOM     20  C   UNL     1       5.520   7.343  17.926  0.00  0.00    +0.000 C 
ATOM     21  C   UNL     1       6.642   5.623  19.317  0.00  0.00    +0.000 C 
ENDROOT
TORSDOF 0
ENDMDL
MODEL 5
REMARK VINA RESULT:      -6.4      1.219      1.347
REMARK  Name = 
REMARK  4 active torsions:
REMARK  status: ('A' for Active; 'I' for Inactive)
REMARK    1  A    between atoms: C_1  and  N_2
REMARK    2  A    between atoms: C_8  and  C_9
REMARK    3  A    between atoms: C_19  and  C_20
REMARK    4  A    between atoms: C_19  and  C_21
REMARK                            x       y       z     vdW  Elec       q    Type
REMARK                         _______ _______ _______ _____ _____    ______ ____
ROOT
ATOM      1  C   UNL     1       1.404   5.127  18.230  0.00  0.00    +0.000 C 
ATOM      2  N   UNL     1       2.756   4.689  18.500  0.00  0.00    +0.000 N 
ATOM      3  C   UNL     1       3.681   5.481  17.823  0.00  0.00    +0.000 C 
ATOM      4  O   UNL     1       3.666   6.690  18.028  0.00  0.00    +0.000 OA
ATOM      5  C   UNL     1       4.818   4.686  17.113  0.00  0.00    +0.000 C 
ATOM      6  S   UNL     1       4.230   3.295  16.080  0.00  0.00    +0.000 S 
ATOM      7  S   UNL     1       3.122   2.219  17.368  0.00  0.00    +0.000 S 
ATOM      8  C   UNL     1       3.188   3.319  18.824  0.00  0.00    +0.000 C 
ATOM      9  C   UNL     1       2.248   2.629  19.818  0.00  0.00    +0.000 C 
ATOM     10  C   UNL     1       4.777   3.502  19.279  0.00  0.00    +0.000 C 
ATOM     11  O   UNL     1       5.233   3.056  20.327  0.00  0.00    +0.000 OA
ATOM     12  N   UNL     1       5.520   4.259  18.324  0.00  0.00    +0.000 N 
ATOM     13  C   UNL     1       6.582   5.215  18.506  0.00  0.00    +0.000 A 
ATOM     14  C   UNL     1       7.397   5.494  19.586  0.00  0.00    +0.000 A 
ATOM     15  C   UNL     1       8.266   6.616  19.507  0.00  0.00    +0.000 A 
ATOM     16  C   UNL     1       8.297   7.456  18.374  0.00  0.00    +0.000 A 
ATOM     17  C   UNL     1       7.486   7.165  17.288  0.00  0.00    +0.000 A 
ATOM     18  C   UNL     1       6.657   6.059  17.366  0.00  0.00    +0.000 A 
ATOM     19  C   UNL     1       5.727   5.612  16.268  0.00  0.00    +0.000 C 
ATOM     20  C   UNL     1       6.607   4.938  15.187  0.00  0.00    +0.000 C 
ATOM     21  C   UNL     1       4.880   6.679  15.553  0.00  0.00    +0.000 C 
ENDROOT
TORSDOF 0
ENDMDL
MODEL 6
REMARK VINA RESULT:      -6.3      2.222      4.800
REMARK  Name = 
REMARK  4 active torsions:
REMARK  status: ('A' for Active; 'I' for Inactive)
REMARK    1  A    between atoms: C_1  and  N_2
REMARK    2  A    between atoms: C_8  and  C_9
REMARK    3  A    between atoms: C_19  and  C_20
REMARK    4  A    between atoms: C_19  and  C_21
REMARK                            x       y       z     vdW  Elec       q    Type
REMARK                         _______ _______ _______ _____ _____    ______ ____
ROOT
ATOM      1  C   UNL     1       5.344   3.939  15.280  0.00  0.00    +0.000 C 
ATOM      2  N   UNL     1       5.256   4.209  16.699  0.00  0.00    +0.000 N 
ATOM      3  C   UNL     1       3.929   4.214  17.124  0.00  0.00    +0.000 C 
ATOM      4  O   UNL     1       3.255   3.209  16.924  0.00  0.00    +0.000 OA
ATOM      5  C   UNL     1       3.557   5.395  18.070  0.00  0.00    +0.000 C 
ATOM      6  S   UNL     1       4.081   7.039  17.463  0.00  0.00    +0.000 S 
ATOM      7  S   UNL     1       6.053   6.792  17.153  0.00  0.00    +0.000 S 
ATOM      8  C   UNL     1       6.198   5.006  17.503  0.00  0.00    +0.000 C 
ATOM      9  C   UNL     1       7.660   4.707  17.157  0.00  0.00    +0.000 C 
ATOM     10  C   UNL     1       5.714   4.730  19.069  0.00  0.00    +0.000 C 
ATOM     11  O   UNL     1       6.481   4.369  19.957  0.00  0.00    +0.000 OA
ATOM     12  N   UNL     1       4.312   4.933  19.236  0.00  0.00    +0.000 N 
ATOM     13  C   UNL     1       3.355   4.240  20.060  0.00  0.00    +0.000 A 
ATOM     14  C   UNL     1       3.510   3.380  21.129  0.00  0.00    +0.000 A 
ATOM     15  C   UNL     1       2.358   2.729  21.648  0.00  0.00    +0.000 A 
ATOM     16  C   UNL     1       1.078   2.920  21.087  0.00  0.00    +0.000 A 
ATOM     17  C   UNL     1       0.925   3.794  20.022  0.00  0.00    +0.000 A 
ATOM     18  C   UNL     1       2.050   4.438  19.536  0.00  0.00    +0.000 A 
ATOM     19  C   UNL     1       2.042   5.419  18.392  0.00  0.00    +0.000 C 
ATOM     20  C   UNL     1       1.461   6.743  18.945  0.00  0.00    +0.000 C 
ATOM     21  C   UNL     1       1.227   5.064  17.136  0.00  0.00    +0.000 C 
ENDROOT
TORSDOF 0
ENDMDL
MODEL 7
REMARK VINA RESULT:      -5.9     10.042     11.168
REMARK  Name = 
REMARK  4 active torsions:
REMARK  status: ('A' for Active; 'I' for Inactive)
REMARK    1  A    between atoms: C_1  and  N_2
REMARK    2  A    between atoms: C_8  and  C_9
REMARK    3  A    between atoms: C_19  and  C_20
REMARK    4  A    between atoms: C_19  and  C_21
REMARK                            x       y       z     vdW  Elec       q    Type
REMARK                         _______ _______ _______ _____ _____    ______ ____
ROOT
ATOM      1  C   UNL     1       6.099  15.167  21.738  0.00  0.00    +0.000 C 
ATOM      2  N   UNL     1       6.785  14.822  20.512  0.00  0.00    +0.000 N 
ATOM      3  C   UNL     1       8.147  14.634  20.740  0.00  0.00    +0.000 C 
ATOM      4  O   UNL     1       8.483  13.794  21.569  0.00  0.00    +0.000 OA
ATOM      5  C   UNL     1       9.079  15.310  19.689  0.00  0.00    +0.000 C 
ATOM      6  S   UNL     1       8.683  17.063  19.353  0.00  0.00    +0.000 S 
ATOM      7  S   UNL     1       6.740  16.992  18.839  0.00  0.00    +0.000 S 
ATOM      8  C   UNL     1       6.404  15.224  19.148  0.00  0.00    +0.000 C 
ATOM      9  C   UNL     1       4.896  15.114  18.905  0.00  0.00    +0.000 C 
ATOM     10  C   UNL     1       7.401  14.316  18.175  0.00  0.00    +0.000 C 
ATOM     11  O   UNL     1       6.990  13.629  17.245  0.00  0.00    +0.000 OA
ATOM     12  N   UNL     1       8.767  14.415  18.574  0.00  0.00    +0.000 N 
ATOM     13  C   UNL     1       9.819  13.431  18.570  0.00  0.00    +0.000 A 
ATOM     14  C   UNL     1       9.934  12.206  17.942  0.00  0.00    +0.000 A 
ATOM     15  C   UNL     1      11.050  11.384  18.259  0.00  0.00    +0.000 A 
ATOM     16  C   UNL     1      12.018  11.775  19.207  0.00  0.00    +0.000 A 
ATOM     17  C   UNL     1      11.906  13.011  19.825  0.00  0.00    +0.000 A 
ATOM     18  C   UNL     1      10.826  13.812  19.496  0.00  0.00    +0.000 A 
ATOM     19  C   UNL     1      10.573  15.180  20.077  0.00  0.00    +0.000 C 
ATOM     20  C   UNL     1      11.565  16.147  19.386  0.00  0.00    +0.000 C 
ATOM     21  C   UNL     1      10.746  15.369  21.594  0.00  0.00    +0.000 C 
ENDROOT
TORSDOF 0
ENDMDL
MODEL 8
REMARK VINA RESULT:      -5.8      7.733      9.378
REMARK  Name = 
REMARK  4 active torsions:
REMARK  status: ('A' for Active; 'I' for Inactive)
REMARK    1  A    between atoms: C_1  and  N_2
REMARK    2  A    between atoms: C_8  and  C_9
REMARK    3  A    between atoms: C_19  and  C_20
REMARK    4  A    between atoms: C_19  and  C_21
REMARK                            x       y       z     vdW  Elec       q    Type
REMARK                         _______ _______ _______ _____ _____    ______ ____
ROOT
ATOM      1  C   UNL     1      -0.510  15.306  21.435  0.00  0.00    +0.000 C 
ATOM      2  N   UNL     1      -0.671  13.879  21.607  0.00  0.00    +0.000 N 
ATOM      3  C   UNL     1      -0.426  13.203  20.413  0.00  0.00    +0.000 C 
ATOM      4  O   UNL     1       0.664  13.362  19.874  0.00  0.00    +0.000 OA
ATOM      5  C   UNL     1      -1.465  12.093  20.072  0.00  0.00    +0.000 C 
ATOM      6  S   UNL     1      -3.208  12.631  20.200  0.00  0.00    +0.000 S 
ATOM      7  S   UNL     1      -3.319  13.345  22.077  0.00  0.00    +0.000 S 
ATOM      8  C   UNL     1      -1.564  13.204  22.564  0.00  0.00    +0.000 C 
ATOM      9  C   UNL     1      -1.539  13.857  23.949  0.00  0.00    +0.000 C 
ATOM     10  C   UNL     1      -1.113  11.607  22.467  0.00  0.00    +0.000 C 
ATOM     11  O   UNL     1      -0.832  10.925  23.448  0.00  0.00    +0.000 OA
ATOM     12  N   UNL     1      -1.066  11.148  21.116  0.00  0.00    +0.000 N 
ATOM     13  C   UNL     1      -0.171  10.222  20.470  0.00  0.00    +0.000 A 
ATOM     14  C   UNL     1       0.716   9.292  20.976  0.00  0.00    +0.000 A 
ATOM     15  C   UNL     1       1.584   8.622  20.071  0.00  0.00    +0.000 A 
ATOM     16  C   UNL     1       1.577   8.899  18.688  0.00  0.00    +0.000 A 
ATOM     17  C   UNL     1       0.676   9.824  18.184  0.00  0.00    +0.000 A 
ATOM     18  C   UNL     1      -0.177  10.458  19.070  0.00  0.00    +0.000 A 
ATOM     19  C   UNL     1      -1.213  11.479  18.672  0.00  0.00    +0.000 C 
ATOM     20  C   UNL     1      -2.382  10.698  18.026  0.00  0.00    +0.000 C 
ATOM     21  C   UNL     1      -0.804  12.579  17.676  0.00  0.00    +0.000 C 
ENDROOT
TORSDOF 0
ENDMDL
MODEL 9
REMARK VINA RESULT:      -5.7      7.127      8.806
REMARK  Name = 
REMARK  4 active torsions:
REMARK  status: ('A' for Active; 'I' for Inactive)
REMARK    1  A    between atoms: C_1  and  N_2
REMARK    2  A    between atoms: C_8  and  C_9
REMARK    3  A    between atoms: C_19  and  C_20
REMARK    4  A    between atoms: C_19  and  C_21
REMARK                            x       y       z     vdW  Elec       q    Type
REMARK                         _______ _______ _______ _____ _____    ______ ____
ROOT
ATOM      1  C   UNL     1       0.661  14.756  21.662  0.00  0.00    +0.000 C 
ATOM      2  N   UNL     1       0.147  13.410  21.789  0.00  0.00    +0.000 N 
ATOM      3  C   UNL     1       0.575  12.610  20.731  0.00  0.00    +0.000 C 
ATOM      4  O   UNL     1       1.783  12.500  20.544  0.00  0.00    +0.000 OA
ATOM      5  C   UNL     1      -0.536  11.717  20.103  0.00  0.00    +0.000 C 
ATOM      6  S   UNL     1      -2.078  12.612  19.695  0.00  0.00    +0.000 S 
ATOM      7  S   UNL     1      -2.572  13.471  21.445  0.00  0.00    +0.000 S 
ATOM      8  C   UNL     1      -1.112  13.007  22.439  0.00  0.00    +0.000 C 
ATOM      9  C   UNL     1      -1.350  13.743  23.761  0.00  0.00    +0.000 C 
ATOM     10  C   UNL     1      -1.015  11.349  22.496  0.00  0.00    +0.000 C 
ATOM     11  O   UNL     1      -1.189  10.699  23.523  0.00  0.00    +0.000 OA
ATOM     12  N   UNL     1      -0.677  10.791  21.227  0.00  0.00    +0.000 N 
ATOM     13  C   UNL     1       0.141   9.655  20.889  0.00  0.00    +0.000 A 
ATOM     14  C   UNL     1       0.615   8.601  21.647  0.00  0.00    +0.000 A 
ATOM     15  C   UNL     1       1.539   7.700  21.052  0.00  0.00    +0.000 A 
ATOM     16  C   UNL     1       1.998   7.869  19.729  0.00  0.00    +0.000 A 
ATOM     17  C   UNL     1       1.510   8.920  18.968  0.00  0.00    +0.000 A 
ATOM     18  C   UNL     1       0.596   9.781  19.550  0.00  0.00    +0.000 A 
ATOM     19  C   UNL     1      -0.027  10.962  18.850  0.00  0.00    +0.000 C 
ATOM     20  C   UNL     1      -1.099  10.393  17.888  0.00  0.00    +0.000 C 
ATOM     21  C   UNL     1       0.885  11.876  18.013  0.00  0.00    +0.000 C 
ENDROOT
TORSDOF 0
ENDMDL
