MODEL 1
REMARK VINA RESULT:      -7.3      0.000      0.000
REMARK  Name = 
REMARK  8 active torsions:
REMARK  status: ('A' for Active; 'I' for Inactive)
REMARK    1  A    between atoms: C_1  and  C_2
REMARK    2  A    between atoms: C_2  and  C_3
REMARK    3  A    between atoms: C_2  and  C_4
REMARK    4  A    between atoms: N_6  and  C_7
REMARK    5  A    between atoms: N_15  and  C_16
REMARK    6  A    between atoms: C_16  and  C_17
REMARK    7  A    between atoms: C_17  and  C_18
REMARK    8  A    between atoms: C_18  and  O_20
REMARK                            x       y       z     vdW  Elec       q    Type
REMARK                         _______ _______ _______ _____ _____    ______ ____
ROOT
ATOM      1  C   UNL     1       5.086   4.997  15.556  0.00  0.00    +0.000 A 
ATOM      2  C   UNL     1       5.096   6.363  15.926  0.00  0.00    +0.000 A 
ATOM      3  C   UNL     1       4.395   6.833  17.040  0.00  0.00    +0.000 A 
ATOM      4  C   UNL     1       3.680   5.909  17.763  0.00  0.00    +0.000 A 
ATOM      5  C   UNL     1       3.650   4.572  17.415  0.00  0.00    +0.000 A 
ATOM      6  C   UNL     1       4.340   4.083  16.316  0.00  0.00    +0.000 A 
ATOM      7  C   UNL     1       2.772   3.899  18.376  0.00  0.00    +0.000 C 
ATOM      8  O   UNL     1       2.542   2.706  18.361  0.00  0.00    +0.000 OA
ATOM      9  N   UNL     1       2.299   4.868  19.221  0.00  0.00    +0.000 N 
ATOM     10  C   UNL     1       2.822   6.095  18.926  0.00  0.00    +0.000 C 
ATOM     11  O   UNL     1       2.622   7.165  19.466  0.00  0.00    +0.000 OA
ENDROOT
BRANCH   1  14
ATOM     12  C   UNL     1       7.057   4.877  14.033  0.00  0.00    +0.000 C 
ATOM     13  O   UNL     1       7.844   5.510  14.734  0.00  0.00    +0.000 OA
ATOM     14  N   UNL     1       5.769   4.523  14.408  0.00  0.00    +0.000 N 
ATOM     15  H   UNL     1       5.306   3.812  13.857  0.00  0.00    +0.000 HD
BRANCH  12  17
ATOM     16  C   UNL     1       6.420   3.443  12.058  0.00  0.00    +0.000 C 
ATOM     17  C   UNL     1       7.468   4.388  12.643  0.00  0.00    +0.000 C 
ATOM     18  C   UNL     1       7.658   5.587  11.708  0.00  0.00    +0.000 C 
ENDBRANCH  12  17
ENDBRANCH   1  14
BRANCH   9  19
ATOM     19  C   UNL     1       1.380   4.634  20.328  0.00  0.00    +0.000 C 
BRANCH  19  20
ATOM     20  C   UNL     1       2.121   4.324  21.627  0.00  0.00    +0.000 C 
BRANCH  20  21
ATOM     21  C   UNL     1       2.205   2.841  21.857  0.00  0.00    +0.000 C 
ATOM     22  O   UNL     1       1.332   2.157  22.364  0.00  0.00    +0.000 OA
BRANCH  21  23
ATOM     23  O   UNL     1       3.380   2.318  21.434  0.00  0.00    +0.000 OA
ATOM     24  H   UNL     1       3.856   2.875  20.788  0.00  0.00    +0.000 HD
ENDBRANCH  21  23
ENDBRANCH  20  21
ENDBRANCH  19  20
ENDBRANCH   9  19
TORSDOF 6
ENDMDL
MODEL 2
REMARK VINA RESULT:      -7.3      3.039      7.591
REMARK  Name = 
REMARK  8 active torsions:
REMARK  status: ('A' for Active; 'I' for Inactive)
REMARK    1  A    between atoms: C_1  and  C_2
REMARK    2  A    between atoms: C_2  and  C_3
REMARK    3  A    between atoms: C_2  and  C_4
REMARK    4  A    between atoms: N_6  and  C_7
REMARK    5  A    between atoms: N_15  and  C_16
REMARK    6  A    between atoms: C_16  and  C_17
REMARK    7  A    between atoms: C_17  and  C_18
REMARK    8  A    between atoms: C_18  and  O_20
REMARK                            x       y       z     vdW  Elec       q    Type
REMARK                         _______ _______ _______ _____ _____    ______ ____
ROOT
ATOM      1  C   UNL     1       2.250   7.836  18.784  0.00  0.00    +0.000 A 
ATOM      2  C   UNL     1       2.300   6.852  19.800  0.00  0.00    +0.000 A 
ATOM      3  C   UNL     1       3.219   5.799  19.767  0.00  0.00    +0.000 A 
ATOM      4  C   UNL     1       4.075   5.752  18.694  0.00  0.00    +0.000 A 
ATOM      5  C   UNL     1       4.040   6.698  17.688  0.00  0.00    +0.000 A 
ATOM      6  C   UNL     1       3.139   7.753  17.701  0.00  0.00    +0.000 A 
ATOM      7  C   UNL     1       5.058   6.316  16.705  0.00  0.00    +0.000 C 
ATOM      8  O   UNL     1       5.297   6.952  15.697  0.00  0.00    +0.000 OA
ATOM      9  N   UNL     1       5.620   5.151  17.155  0.00  0.00    +0.000 N 
ATOM     10  C   UNL     1       5.095   4.767  18.357  0.00  0.00    +0.000 C 
ATOM     11  O   UNL     1       5.359   3.794  19.035  0.00  0.00    +0.000 OA
ENDROOT
BRANCH   1  14
ATOM     12  C   UNL     1       0.786   9.494  19.934  0.00  0.00    +0.000 C 
ATOM     13  O   UNL     1       1.216   9.330  21.074  0.00  0.00    +0.000 OA
ATOM     14  N   UNL     1       1.298   8.885  18.797  0.00  0.00    +0.000 N 
ATOM     15  H   UNL     1       1.025   9.271  17.903  0.00  0.00    +0.000 HD
BRANCH  12  17
ATOM     16  C   UNL     1       0.024  11.899  19.915  0.00  0.00    +0.000 C 
ATOM     17  C   UNL     1      -0.382  10.447  19.669  0.00  0.00    +0.000 C 
ATOM     18  C   UNL     1      -0.863  10.286  18.223  0.00  0.00    +0.000 C 
ENDBRANCH  12  17
ENDBRANCH   1  14
BRANCH   9  19
ATOM     19  C   UNL     1       6.676   4.415  16.472  0.00  0.00    +0.000 C 
BRANCH  19  20
ATOM     20  C   UNL     1       6.162   3.720  15.211  0.00  0.00    +0.000 C 
BRANCH  20  21
ATOM     21  C   UNL     1       6.762   4.334  13.977  0.00  0.00    +0.000 C 
ATOM     22  O   UNL     1       6.581   3.941  12.837  0.00  0.00    +0.000 OA
BRANCH  21  23
ATOM     23  O   UNL     1       7.548   5.400  14.258  0.00  0.00    +0.000 OA
ATOM     24  H   UNL     1       8.353   5.459  13.708  0.00  0.00    +0.000 HD
ENDBRANCH  21  23
ENDBRANCH  20  21
ENDBRANCH  19  20
ENDBRANCH   9  19
TORSDOF 6
ENDMDL
MODEL 3
REMARK VINA RESULT:      -7.2      1.470      1.771
REMARK  Name = 
REMARK  8 active torsions:
REMARK  status: ('A' for Active; 'I' for Inactive)
REMARK    1  A    between atoms: C_1  and  C_2
REMARK    2  A    between atoms: C_2  and  C_3
REMARK    3  A    between atoms: C_2  and  C_4
REMARK    4  A    between atoms: N_6  and  C_7
REMARK    5  A    between atoms: N_15  and  C_16
REMARK    6  A    between atoms: C_16  and  C_17
REMARK    7  A    between atoms: C_17  and  C_18
REMARK    8  A    between atoms: C_18  and  O_20
REMARK                            x       y       z     vdW  Elec       q    Type
REMARK                         _______ _______ _______ _____ _____    ______ ____
ROOT
ATOM      1  C   UNL     1       5.669   5.573  16.138  0.00  0.00    +0.000 A 
ATOM      2  C   UNL     1       4.993   6.797  16.355  0.00  0.00    +0.000 A 
ATOM      3  C   UNL     1       4.101   6.973  17.417  0.00  0.00    +0.000 A 
ATOM      4  C   UNL     1       3.898   5.896  18.245  0.00  0.00    +0.000 A 
ATOM      5  C   UNL     1       4.542   4.689  18.048  0.00  0.00    +0.000 A 
ATOM      6  C   UNL     1       5.432   4.493  17.003  0.00  0.00    +0.000 A 
ATOM      7  C   UNL     1       4.063   3.774  19.088  0.00  0.00    +0.000 C 
ATOM      8  O   UNL     1       4.447   2.627  19.207  0.00  0.00    +0.000 OA
ATOM      9  N   UNL     1       3.139   4.465  19.825  0.00  0.00    +0.000 N 
ATOM     10  C   UNL     1       3.008   5.754  19.391  0.00  0.00    +0.000 C 
ATOM     11  O   UNL     1       2.286   6.637  19.811  0.00  0.00    +0.000 OA
ENDROOT
BRANCH   1  14
ATOM     12  C   UNL     1       6.296   4.576  13.940  0.00  0.00    +0.000 C 
ATOM     13  O   UNL     1       5.211   4.061  13.678  0.00  0.00    +0.000 OA
ATOM     14  N   UNL     1       6.547   5.381  15.043  0.00  0.00    +0.000 N 
ATOM     15  H   UNL     1       7.394   5.934  15.028  0.00  0.00    +0.000 HD
BRANCH  12  17
ATOM     16  C   UNL     1       7.074   3.765  11.681  0.00  0.00    +0.000 C 
ATOM     17  C   UNL     1       7.498   4.382  13.013  0.00  0.00    +0.000 C 
ATOM     18  C   UNL     1       8.179   5.731  12.760  0.00  0.00    +0.000 C 
ENDBRANCH  12  17
ENDBRANCH   1  14
BRANCH   9  19
ATOM     19  C   UNL     1       2.403   3.925  20.961  0.00  0.00    +0.000 C 
BRANCH  19  20
ATOM     20  C   UNL     1       1.006   3.452  20.562  0.00  0.00    +0.000 C 
BRANCH  20  21
ATOM     21  C   UNL     1       1.038   2.738  19.239  0.00  0.00    +0.000 C 
ATOM     22  O   UNL     1       0.621   3.190  18.186  0.00  0.00    +0.000 OA
BRANCH  21  23
ATOM     23  O   UNL     1       1.590   1.506  19.329  0.00  0.00    +0.000 OA
ATOM     24  H   UNL     1       2.485   1.496  19.723  0.00  0.00    +0.000 HD
ENDBRANCH  21  23
ENDBRANCH  20  21
ENDBRANCH  19  20
ENDBRANCH   9  19
TORSDOF 6
ENDMDL
MODEL 4
REMARK VINA RESULT:      -7.0      2.641      7.722
REMARK  Name = 
REMARK  8 active torsions:
REMARK  status: ('A' for Active; 'I' for Inactive)
REMARK    1  A    between atoms: C_1  and  C_2
REMARK    2  A    between atoms: C_2  and  C_3
REMARK    3  A    between atoms: C_2  and  C_4
REMARK    4  A    between atoms: N_6  and  C_7
REMARK    5  A    between atoms: N_15  and  C_16
REMARK    6  A    between atoms: C_16  and  C_17
REMARK    7  A    between atoms: C_17  and  C_18
REMARK    8  A    between atoms: C_18  and  O_20
REMARK                            x       y       z     vdW  Elec       q    Type
REMARK                         _______ _______ _______ _____ _____    ______ ____
ROOT
ATOM      1  C   UNL     1       2.008   6.372  20.291  0.00  0.00    +0.000 A 
ATOM      2  C   UNL     1       1.416   5.087  20.299  0.00  0.00    +0.000 A 
ATOM      3  C   UNL     1       1.912   4.038  19.518  0.00  0.00    +0.000 A 
ATOM      4  C   UNL     1       3.002   4.310  18.728  0.00  0.00    +0.000 A 
ATOM      5  C   UNL     1       3.591   5.560  18.699  0.00  0.00    +0.000 A 
ATOM      6  C   UNL     1       3.118   6.614  19.467  0.00  0.00    +0.000 A 
ATOM      7  C   UNL     1       4.690   5.493  17.732  0.00  0.00    +0.000 C 
ATOM      8  O   UNL     1       5.426   6.427  17.479  0.00  0.00    +0.000 OA
ATOM      9  N   UNL     1       4.678   4.226  17.211  0.00  0.00    +0.000 N 
ATOM     10  C   UNL     1       3.706   3.454  17.782  0.00  0.00    +0.000 C 
ATOM     11  O   UNL     1       3.417   2.295  17.560  0.00  0.00    +0.000 OA
ENDROOT
BRANCH   1  14
ATOM     12  C   UNL     1       1.205   8.715  20.573  0.00  0.00    +0.000 C 
ATOM     13  O   UNL     1       1.200   9.031  19.385  0.00  0.00    +0.000 OA
ATOM     14  N   UNL     1       1.488   7.445  21.056  0.00  0.00    +0.000 N 
ATOM     15  H   UNL     1       1.233   7.248  22.015  0.00  0.00    +0.000 HD
BRANCH  12  17
ATOM     16  C   UNL     1       0.218  10.988  21.049  0.00  0.00    +0.000 C 
ATOM     17  C   UNL     1       0.857   9.739  21.655  0.00  0.00    +0.000 C 
ATOM     18  C   UNL     1      -0.104   9.112  22.671  0.00  0.00    +0.000 C 
ENDBRANCH  12  17
ENDBRANCH   1  14
BRANCH   9  19
ATOM     19  C   UNL     1       5.603   3.730  16.200  0.00  0.00    +0.000 C 
BRANCH  19  20
ATOM     20  C   UNL     1       5.538   4.554  14.915  0.00  0.00    +0.000 C 
BRANCH  20  21
ATOM     21  C   UNL     1       6.888   5.121  14.572  0.00  0.00    +0.000 C 
ATOM     22  O   UNL     1       7.368   5.165  13.451  0.00  0.00    +0.000 OA
BRANCH  21  23
ATOM     23  O   UNL     1       7.543   5.593  15.658  0.00  0.00    +0.000 OA
ATOM     24  H   UNL     1       7.421   6.550  15.813  0.00  0.00    +0.000 HD
ENDBRANCH  21  23
ENDBRANCH  20  21
ENDBRANCH  19  20
ENDBRANCH   9  19
TORSDOF 6
ENDMDL
MODEL 5
REMARK VINA RESULT:      -7.0      1.337      1.644
REMARK  Name = 
REMARK  8 active torsions:
REMARK  status: ('A' for Active; 'I' for Inactive)
REMARK    1  A    between atoms: C_1  and  C_2
REMARK    2  A    between atoms: C_2  and  C_3
REMARK    3  A    between atoms: C_2  and  C_4
REMARK    4  A    between atoms: N_6  and  C_7
REMARK    5  A    between atoms: N_15  and  C_16
REMARK    6  A    between atoms: C_16  and  C_17
REMARK    7  A    between atoms: C_17  and  C_18
REMARK    8  A    between atoms: C_18  and  O_20
REMARK                            x       y       z     vdW  Elec       q    Type
REMARK                         _______ _______ _______ _____ _____    ______ ____
ROOT
ATOM      1  C   UNL     1       5.258   4.481  15.902  0.00  0.00    +0.000 A 
ATOM      2  C   UNL     1       4.833   5.802  16.181  0.00  0.00    +0.000 A 
ATOM      3  C   UNL     1       4.203   6.140  17.382  0.00  0.00    +0.000 A 
ATOM      4  C   UNL     1       4.001   5.126  18.286  0.00  0.00    +0.000 A 
ATOM      5  C   UNL     1       4.401   3.828  18.032  0.00  0.00    +0.000 A 
ATOM      6  C   UNL     1       5.031   3.471  16.849  0.00  0.00    +0.000 A 
ATOM      7  C   UNL     1       3.998   3.022  19.188  0.00  0.00    +0.000 C 
ATOM      8  O   UNL     1       4.217   1.830  19.290  0.00  0.00    +0.000 OA
ATOM      9  N   UNL     1       3.352   3.867  20.050  0.00  0.00    +0.000 N 
ATOM     10  C   UNL     1       3.339   5.152  19.584  0.00  0.00    +0.000 C 
ATOM     11  O   UNL     1       2.856   6.146  20.088  0.00  0.00    +0.000 OA
ENDROOT
BRANCH   1  14
ATOM     12  C   UNL     1       7.025   4.693  14.156  0.00  0.00    +0.000 C 
ATOM     13  O   UNL     1       7.776   5.446  14.773  0.00  0.00    +0.000 OA
ATOM     14  N   UNL     1       5.867   4.130  14.672  0.00  0.00    +0.000 N 
ATOM     15  H   UNL     1       5.465   3.352  14.164  0.00  0.00    +0.000 HD
BRANCH  12  17
ATOM     16  C   UNL     1       6.191   3.486  12.104  0.00  0.00    +0.000 C 
ATOM     17  C   UNL     1       7.342   4.282  12.717  0.00  0.00    +0.000 C 
ATOM     18  C   UNL     1       7.612   5.529  11.869  0.00  0.00    +0.000 C 
ENDBRANCH  12  17
ENDBRANCH   1  14
BRANCH   9  19
ATOM     19  C   UNL     1       2.776   3.474  21.330  0.00  0.00    +0.000 C 
BRANCH  19  20
ATOM     20  C   UNL     1       1.569   2.555  21.153  0.00  0.00    +0.000 C 
BRANCH  20  21
ATOM     21  C   UNL     1       0.657   3.067  20.074  0.00  0.00    +0.000 C 
ATOM     22  O   UNL     1       0.322   2.442  19.081  0.00  0.00    +0.000 OA
BRANCH  21  23
ATOM     23  O   UNL     1       0.228   4.329  20.313  0.00  0.00    +0.000 OA
ATOM     24  H   UNL     1       0.552   4.989  19.670  0.00  0.00    +0.000 HD
ENDBRANCH  21  23
ENDBRANCH  20  21
ENDBRANCH  19  20
ENDBRANCH   9  19
TORSDOF 6
ENDMDL
MODEL 6
REMARK VINA RESULT:      -7.0      1.283      1.346
REMARK  Name = 
REMARK  8 active torsions:
REMARK  status: ('A' for Active; 'I' for Inactive)
REMARK    1  A    between atoms: C_1  and  C_2
REMARK    2  A    between atoms: C_2  and  C_3
REMARK    3  A    between atoms: C_2  and  C_4
REMARK    4  A    between atoms: N_6  and  C_7
REMARK    5  A    between atoms: N_15  and  C_16
REMARK    6  A    between atoms: C_16  and  C_17
REMARK    7  A    between atoms: C_17  and  C_18
REMARK    8  A    between atoms: C_18  and  O_20
REMARK                            x       y       z     vdW  Elec       q    Type
REMARK                         _______ _______ _______ _____ _____    ______ ____
ROOT
ATOM      1  C   UNL     1       5.568   5.746  15.970  0.00  0.00    +0.000 A 
ATOM      2  C   UNL     1       4.917   7.002  16.005  0.00  0.00    +0.000 A 
ATOM      3  C   UNL     1       4.053   7.360  17.045  0.00  0.00    +0.000 A 
ATOM      4  C   UNL     1       3.851   6.431  18.036  0.00  0.00    +0.000 A 
ATOM      5  C   UNL     1       4.471   5.196  18.018  0.00  0.00    +0.000 A 
ATOM      6  C   UNL     1       5.333   4.820  16.999  0.00  0.00    +0.000 A 
ATOM      7  C   UNL     1       4.001   4.465  19.198  0.00  0.00    +0.000 C 
ATOM      8  O   UNL     1       4.368   3.343  19.489  0.00  0.00    +0.000 OA
ATOM      9  N   UNL     1       3.105   5.281  19.836  0.00  0.00    +0.000 N 
ATOM     10  C   UNL     1       2.985   6.489  19.206  0.00  0.00    +0.000 C 
ATOM     11  O   UNL     1       2.287   7.440  19.497  0.00  0.00    +0.000 OA
ENDROOT
BRANCH   1  14
ATOM     12  C   UNL     1       6.088   4.483  13.884  0.00  0.00    +0.000 C 
ATOM     13  O   UNL     1       4.959   4.046  13.672  0.00  0.00    +0.000 OA
ATOM     14  N   UNL     1       6.417   5.367  14.902  0.00  0.00    +0.000 N 
ATOM     15  H   UNL     1       7.312   5.836  14.835  0.00  0.00    +0.000 HD
BRANCH  12  17
ATOM     16  C   UNL     1       6.791   3.233  11.809  0.00  0.00    +0.000 C 
ATOM     17  C   UNL     1       7.260   4.090  12.984  0.00  0.00    +0.000 C 
ATOM     18  C   UNL     1       7.953   5.350  12.456  0.00  0.00    +0.000 C 
ENDBRANCH  12  17
ENDBRANCH   1  14
BRANCH   9  19
ATOM     19  C   UNL     1       2.386   4.941  21.057  0.00  0.00    +0.000 C 
BRANCH  19  20
ATOM     20  C   UNL     1       1.153   4.085  20.772  0.00  0.00    +0.000 C 
BRANCH  20  21
ATOM     21  C   UNL     1       1.417   2.640  21.091  0.00  0.00    +0.000 C 
ATOM     22  O   UNL     1       1.401   2.152  22.208  0.00  0.00    +0.000 OA
BRANCH  21  23
ATOM     23  O   UNL     1       1.683   1.906  19.985  0.00  0.00    +0.000 OA
ATOM     24  H   UNL     1       1.317   1.000  20.009  0.00  0.00    +0.000 HD
ENDBRANCH  21  23
ENDBRANCH  20  21
ENDBRANCH  19  20
ENDBRANCH   9  19
TORSDOF 6
ENDMDL
MODEL 7
REMARK VINA RESULT:      -7.0      1.940      2.512
REMARK  Name = 
REMARK  8 active torsions:
REMARK  status: ('A' for Active; 'I' for Inactive)
REMARK    1  A    between atoms: C_1  and  C_2
REMARK    2  A    between atoms: C_2  and  C_3
REMARK    3  A    between atoms: C_2  and  C_4
REMARK    4  A    between atoms: N_6  and  C_7
REMARK    5  A    between atoms: N_15  and  C_16
REMARK    6  A    between atoms: C_16  and  C_17
REMARK    7  A    between atoms: C_17  and  C_18
REMARK    8  A    between atoms: C_18  and  O_20
REMARK                            x       y       z     vdW  Elec       q    Type
REMARK                         _______ _______ _______ _____ _____    ______ ____
ROOT
ATOM      1  C   UNL     1       5.855   3.983  14.379  0.00  0.00    +0.000 A 
ATOM      2  C   UNL     1       5.870   5.394  14.488  0.00  0.00    +0.000 A 
ATOM      3  C   UNL     1       5.356   6.056  15.607  0.00  0.00    +0.000 A 
ATOM      4  C   UNL     1       4.823   5.274  16.603  0.00  0.00    +0.000 A 
ATOM      5  C   UNL     1       4.791   3.896  16.514  0.00  0.00    +0.000 A 
ATOM      6  C   UNL     1       5.297   3.218  15.415  0.00  0.00    +0.000 A 
ATOM      7  C   UNL     1       4.129   3.404  17.725  0.00  0.00    +0.000 C 
ATOM      8  O   UNL     1       3.952   2.226  17.969  0.00  0.00    +0.000 OA
ATOM      9  N   UNL     1       3.770   4.508  18.453  0.00  0.00    +0.000 N 
ATOM     10  C   UNL     1       4.178   5.665  17.851  0.00  0.00    +0.000 C 
ATOM     11  O   UNL     1       4.029   6.814  18.215  0.00  0.00    +0.000 OA
ENDROOT
BRANCH   1  14
ATOM     12  C   UNL     1       5.594   2.980  12.111  0.00  0.00    +0.000 C 
ATOM     13  O   UNL     1       4.453   3.377  11.886  0.00  0.00    +0.000 OA
ATOM     14  N   UNL     1       6.343   3.311  13.231  0.00  0.00    +0.000 N 
ATOM     15  H   UNL     1       7.337   3.123  13.194  0.00  0.00    +0.000 HD
BRANCH  12  17
ATOM     16  C   UNL     1       7.828   2.274  11.176  0.00  0.00    +0.000 C 
ATOM     17  C   UNL     1       6.315   2.071  11.113  0.00  0.00    +0.000 C 
ATOM     18  C   UNL     1       5.981   0.606  11.412  0.00  0.00    +0.000 C 
ENDBRANCH  12  17
ENDBRANCH   1  14
BRANCH   9  19
ATOM     19  C   UNL     1       3.073   4.475  19.733  0.00  0.00    +0.000 C 
BRANCH  19  20
ATOM     20  C   UNL     1       1.557   4.414  19.554  0.00  0.00    +0.000 C 
BRANCH  20  21
ATOM     21  C   UNL     1       0.985   3.198  20.228  0.00  0.00    +0.000 C 
ATOM     22  O   UNL     1       1.253   2.830  21.360  0.00  0.00    +0.000 OA
BRANCH  21  23
ATOM     23  O   UNL     1       0.117   2.526  19.435  0.00  0.00    +0.000 OA
ATOM     24  H   UNL     1       0.075   2.859  18.517  0.00  0.00    +0.000 HD
ENDBRANCH  21  23
ENDBRANCH  20  21
ENDBRANCH  19  20
ENDBRANCH   9  19
TORSDOF 6
ENDMDL
MODEL 8
REMARK VINA RESULT:      -6.9      1.432      1.629
REMARK  Name = 
REMARK  8 active torsions:
REMARK  status: ('A' for Active; 'I' for Inactive)
REMARK    1  A    between atoms: C_1  and  C_2
REMARK    2  A    between atoms: C_2  and  C_3
REMARK    3  A    between atoms: C_2  and  C_4
REMARK    4  A    between atoms: N_6  and  C_7
REMARK    5  A    between atoms: N_15  and  C_16
REMARK    6  A    between atoms: C_16  and  C_17
REMARK    7  A    between atoms: C_17  and  C_18
REMARK    8  A    between atoms: C_18  and  O_20
REMARK                            x       y       z     vdW  Elec       q    Type
REMARK                         _______ _______ _______ _____ _____    ______ ____
ROOT
ATOM      1  C   UNL     1       5.586   4.428  15.145  0.00  0.00    +0.000 A 
ATOM      2  C   UNL     1       5.670   5.833  15.283  0.00  0.00    +0.000 A 
ATOM      3  C   UNL     1       4.967   6.524  16.275  0.00  0.00    +0.000 A 
ATOM      4  C   UNL     1       4.175   5.777  17.112  0.00  0.00    +0.000 A 
ATOM      5  C   UNL     1       4.072   4.404  16.991  0.00  0.00    +0.000 A 
ATOM      6  C   UNL     1       4.763   3.698  16.017  0.00  0.00    +0.000 A 
ATOM      7  C   UNL     1       3.126   3.953  18.016  0.00  0.00    +0.000 C 
ATOM      8  O   UNL     1       2.823   2.789  18.190  0.00  0.00    +0.000 OA
ATOM      9  N   UNL     1       2.690   5.076  18.668  0.00  0.00    +0.000 N 
ATOM     10  C   UNL     1       3.297   6.204  18.194  0.00  0.00    +0.000 C 
ATOM     11  O   UNL     1       3.148   7.360  18.540  0.00  0.00    +0.000 OA
ENDROOT
BRANCH   1  14
ATOM     12  C   UNL     1       5.743   3.394  12.881  0.00  0.00    +0.000 C 
ATOM     13  O   UNL     1       4.675   3.809  12.437  0.00  0.00    +0.000 OA
ATOM     14  N   UNL     1       6.271   3.729  14.120  0.00  0.00    +0.000 N 
ATOM     15  H   UNL     1       7.249   3.522  14.277  0.00  0.00    +0.000 HD
BRANCH  12  17
ATOM     16  C   UNL     1       5.776   1.478  11.240  0.00  0.00    +0.000 C 
ATOM     17  C   UNL     1       6.623   2.457  12.051  0.00  0.00    +0.000 C 
ATOM     18  C   UNL     1       7.506   3.279  11.106  0.00  0.00    +0.000 C 
ENDBRANCH  12  17
ENDBRANCH   1  14
BRANCH   9  19
ATOM     19  C   UNL     1       1.726   5.085  19.761  0.00  0.00    +0.000 C 
BRANCH  19  20
ATOM     20  C   UNL     1       2.270   4.385  21.006  0.00  0.00    +0.000 C 
BRANCH  20  21
ATOM     21  C   UNL     1       1.485   3.139  21.308  0.00  0.00    +0.000 C 
ATOM     22  O   UNL     1       1.611   2.454  22.309  0.00  0.00    +0.000 OA
BRANCH  21  23
ATOM     23  O   UNL     1       0.595   2.838  20.332  0.00  0.00    +0.000 OA
ATOM     24  H   UNL     1       0.647   3.422  19.551  0.00  0.00    +0.000 HD
ENDBRANCH  21  23
ENDBRANCH  20  21
ENDBRANCH  19  20
ENDBRANCH   9  19
TORSDOF 6
ENDMDL
MODEL 9
REMARK VINA RESULT:      -6.9      3.909      7.523
REMARK  Name = 
REMARK  8 active torsions:
REMARK  status: ('A' for Active; 'I' for Inactive)
REMARK    1  A    between atoms: C_1  and  C_2
REMARK    2  A    between atoms: C_2  and  C_3
REMARK    3  A    between atoms: C_2  and  C_4
REMARK    4  A    between atoms: N_6  and  C_7
REMARK    5  A    between atoms: N_15  and  C_16
REMARK    6  A    between atoms: C_16  and  C_17
REMARK    7  A    between atoms: C_17  and  C_18
REMARK    8  A    between atoms: C_18  and  O_20
REMARK                            x       y       z     vdW  Elec       q    Type
REMARK                         _______ _______ _______ _____ _____    ______ ____
ROOT
ATOM      1  C   UNL     1       0.990   9.019  19.570  0.00  0.00    +0.000 A 
ATOM      2  C   UNL     1       1.603   9.411  18.356  0.00  0.00    +0.000 A 
ATOM      3  C   UNL     1       2.537   8.603  17.702  0.00  0.00    +0.000 A 
ATOM      4  C   UNL     1       2.848   7.403  18.296  0.00  0.00    +0.000 A 
ATOM      5  C   UNL     1       2.267   7.003  19.484  0.00  0.00    +0.000 A 
ATOM      6  C   UNL     1       1.336   7.787  20.149  0.00  0.00    +0.000 A 
ATOM      7  C   UNL     1       2.853   5.705  19.831  0.00  0.00    +0.000 C 
ATOM      8  O   UNL     1       2.545   5.067  20.818  0.00  0.00    +0.000 OA
ATOM      9  N   UNL     1       3.773   5.417  18.858  0.00  0.00    +0.000 N 
ATOM     10  C   UNL     1       3.804   6.381  17.890  0.00  0.00    +0.000 C 
ATOM     11  O   UNL     1       4.494   6.446  16.892  0.00  0.00    +0.000 OA
ENDROOT
BRANCH   1  14
ATOM     12  C   UNL     1       0.402  10.870  21.133  0.00  0.00    +0.000 C 
ATOM     13  O   UNL     1       1.538  11.305  21.307  0.00  0.00    +0.000 OA
ATOM     14  N   UNL     1       0.069   9.850  20.252  0.00  0.00    +0.000 N 
ATOM     15  H   UNL     1      -0.911   9.741  20.021  0.00  0.00    +0.000 HD
BRANCH  12  17
ATOM     16  C   UNL     1      -1.081  10.677  23.165  0.00  0.00    +0.000 C 
ATOM     17  C   UNL     1      -0.787  11.465  21.890  0.00  0.00    +0.000 C 
ATOM     18  C   UNL     1      -0.495  12.927  22.245  0.00  0.00    +0.000 C 
ENDBRANCH  12  17
ENDBRANCH   1  14
BRANCH   9  19
ATOM     19  C   UNL     1       4.598   4.217  18.818  0.00  0.00    +0.000 C 
BRANCH  19  20
ATOM     20  C   UNL     1       4.033   3.168  17.861  0.00  0.00    +0.000 C 
BRANCH  20  21
ATOM     21  C   UNL     1       3.482   1.991  18.618  0.00  0.00    +0.000 C 
ATOM     22  O   UNL     1       2.487   2.012  19.322  0.00  0.00    +0.000 OA
BRANCH  21  23
ATOM     23  O   UNL     1       4.219   0.870  18.439  0.00  0.00    +0.000 OA
ATOM     24  H   UNL     1       3.917   0.105  18.968  0.00  0.00    +0.000 HD
ENDBRANCH  21  23
ENDBRANCH  20  21
ENDBRANCH  19  20
ENDBRANCH   9  19
TORSDOF 6
ENDMDL
