MODEL 1
REMARK VINA RESULT:      -5.9      0.000      0.000
REMARK  Name = 
REMARK  3 active torsions:
REMARK  status: ('A' for Active; 'I' for Inactive)
REMARK    1  A    between atoms: C_1  and  O_2
REMARK    2  A    between atoms: O_2  and  C_3
REMARK    3  A    between atoms: C_12  and  N_13
REMARK                            x       y       z     vdW  Elec       q    Type
REMARK                         _______ _______ _______ _____ _____    ______ ____
ROOT
ATOM      1  C   UNL     1       5.936   5.047  18.686  0.00  0.00    +0.000 A 
ATOM      2  C   UNL     1       6.018   5.911  17.589  0.00  0.00    +0.000 A 
ATOM      3  C   UNL     1       5.181   5.746  16.494  0.00  0.00    +0.000 A 
ATOM      4  C   UNL     1       4.259   4.701  16.476  0.00  0.00    +0.000 A 
ATOM      5  C   UNL     1       4.166   3.811  17.557  0.00  0.00    +0.000 A 
ATOM      6  C   UNL     1       5.001   3.994  18.672  0.00  0.00    +0.000 A 
ATOM      7  O   UNL     1       4.974   3.158  19.764  0.00  0.00    +0.000 OA
ATOM      8  C   UNL     1       3.821   2.321  19.865  0.00  0.00    +0.000 C 
ATOM      9  C   UNL     1       3.517   1.627  18.550  0.00  0.00    +0.000 C 
ATOM     10  C   UNL     1       3.173   2.678  17.498  0.00  0.00    +0.000 C 
ENDROOT
BRANCH  10  11
ATOM     11  N   UNL     1       1.808   3.193  17.662  0.00  0.00    +0.000 NA
ATOM     12  H   UNL     1       1.143   2.527  17.266  0.00  0.00    +0.000 HD
ATOM     13  H   UNL     1       1.701   4.058  17.140  0.00  0.00    +0.000 HD
ENDBRANCH  10  11
BRANCH   1  15
ATOM     14  C   UNL     1       8.019   5.782  19.526  0.00  0.00    +0.000 C 
ATOM     15  O   UNL     1       6.771   5.141  19.773  0.00  0.00    +0.000 OA
ENDBRANCH   1  15
TORSDOF 2
ENDMDL
MODEL 2
REMARK VINA RESULT:      -5.8      2.134      3.963
REMARK  Name = 
REMARK  3 active torsions:
REMARK  status: ('A' for Active; 'I' for Inactive)
REMARK    1  A    between atoms: C_1  and  O_2
REMARK    2  A    between atoms: O_2  and  C_3
REMARK    3  A    between atoms: C_12  and  N_13
REMARK                            x       y       z     vdW  Elec       q    Type
REMARK                         _______ _______ _______ _____ _____    ______ ____
ROOT
ATOM      1  C   UNL     1       4.375   3.899  19.135  0.00  0.00    +0.000 A 
ATOM      2  C   UNL     1       3.020   4.246  19.122  0.00  0.00    +0.000 A 
ATOM      3  C   UNL     1       2.585   5.378  18.444  0.00  0.00    +0.000 A 
ATOM      4  C   UNL     1       3.506   6.187  17.782  0.00  0.00    +0.000 A 
ATOM      5  C   UNL     1       4.873   5.870  17.791  0.00  0.00    +0.000 A 
ATOM      6  C   UNL     1       5.306   4.714  18.461  0.00  0.00    +0.000 A 
ATOM      7  O   UNL     1       6.629   4.343  18.522  0.00  0.00    +0.000 OA
ATOM      8  C   UNL     1       7.488   4.986  17.579  0.00  0.00    +0.000 C 
ATOM      9  C   UNL     1       7.269   6.487  17.556  0.00  0.00    +0.000 C 
ATOM     10  C   UNL     1       5.847   6.778  17.083  0.00  0.00    +0.000 C 
ENDROOT
BRANCH  10  11
ATOM     11  N   UNL     1       5.710   6.630  15.629  0.00  0.00    +0.000 NA
ATOM     12  H   UNL     1       4.749   6.838  15.355  0.00  0.00    +0.000 HD
ATOM     13  H   UNL     1       5.889   5.667  15.362  0.00  0.00    +0.000 HD
ENDBRANCH  10  11
BRANCH   1  15
ATOM     14  C   UNL     1       3.929   2.187  20.701  0.00  0.00    +0.000 C 
ATOM     15  O   UNL     1       4.861   2.816  19.827  0.00  0.00    +0.000 OA
ENDBRANCH   1  15
TORSDOF 2
ENDMDL
MODEL 3
REMARK VINA RESULT:      -5.8      2.301      3.232
REMARK  Name = 
REMARK  3 active torsions:
REMARK  status: ('A' for Active; 'I' for Inactive)
REMARK    1  A    between atoms: C_1  and  O_2
REMARK    2  A    between atoms: O_2  and  C_3
REMARK    3  A    between atoms: C_12  and  N_13
REMARK                            x       y       z     vdW  Elec       q    Type
REMARK                         _______ _______ _______ _____ _____    ______ ____
ROOT
ATOM      1  C   UNL     1       6.312   5.640  16.516  0.00  0.00    +0.000 A 
ATOM      2  C   UNL     1       7.360   6.249  17.215  0.00  0.00    +0.000 A 
ATOM      3  C   UNL     1       7.482   6.088  18.589  0.00  0.00    +0.000 A 
ATOM      4  C   UNL     1       6.545   5.327  19.285  0.00  0.00    +0.000 A 
ATOM      5  C   UNL     1       5.476   4.716  18.610  0.00  0.00    +0.000 A 
ATOM      6  C   UNL     1       5.368   4.866  17.218  0.00  0.00    +0.000 A 
ATOM      7  O   UNL     1       4.344   4.307  16.488  0.00  0.00    +0.000 OA
ATOM      8  C   UNL     1       3.607   3.281  17.156  0.00  0.00    +0.000 C 
ATOM      9  C   UNL     1       3.208   3.702  18.558  0.00  0.00    +0.000 C 
ATOM     10  C   UNL     1       4.466   3.917  19.394  0.00  0.00    +0.000 C 
ENDROOT
BRANCH  10  11
ATOM     11  N   UNL     1       5.058   2.647  19.832  0.00  0.00    +0.000 NA
ATOM     12  H   UNL     1       5.938   2.493  19.338  0.00  0.00    +0.000 HD
ATOM     13  H   UNL     1       4.445   1.876  19.583  0.00  0.00    +0.000 HD
ENDBRANCH  10  11
BRANCH   1  15
ATOM     14  C   UNL     1       6.888   4.938  14.335  0.00  0.00    +0.000 C 
ATOM     15  O   UNL     1       6.123   5.805  15.165  0.00  0.00    +0.000 OA
ENDBRANCH   1  15
TORSDOF 2
ENDMDL
MODEL 4
REMARK VINA RESULT:      -5.7      1.834      1.887
REMARK  Name = 
REMARK  3 active torsions:
REMARK  status: ('A' for Active; 'I' for Inactive)
REMARK    1  A    between atoms: C_1  and  O_2
REMARK    2  A    between atoms: O_2  and  C_3
REMARK    3  A    between atoms: C_12  and  N_13
REMARK                            x       y       z     vdW  Elec       q    Type
REMARK                         _______ _______ _______ _____ _____    ______ ____
ROOT
ATOM      1  C   UNL     1       5.314   4.929  18.518  0.00  0.00    +0.000 A 
ATOM      2  C   UNL     1       5.087   6.121  17.822  0.00  0.00    +0.000 A 
ATOM      3  C   UNL     1       3.796   6.603  17.646  0.00  0.00    +0.000 A 
ATOM      4  C   UNL     1       2.713   5.887  18.153  0.00  0.00    +0.000 A 
ATOM      5  C   UNL     1       2.912   4.681  18.843  0.00  0.00    +0.000 A 
ATOM      6  C   UNL     1       4.220   4.208  19.035  0.00  0.00    +0.000 A 
ATOM      7  O   UNL     1       4.494   3.031  19.692  0.00  0.00    +0.000 OA
ATOM      8  C   UNL     1       3.421   2.503  20.473  0.00  0.00    +0.000 C 
ATOM      9  C   UNL     1       2.119   2.486  19.695  0.00  0.00    +0.000 C 
ATOM     10  C   UNL     1       1.718   3.919  19.360  0.00  0.00    +0.000 C 
ENDROOT
BRANCH  10  11
ATOM     11  N   UNL     1       1.139   4.613  20.516  0.00  0.00    +0.000 NA
ATOM     12  H   UNL     1       0.772   3.926  21.177  0.00  0.00    +0.000 HD
ATOM     13  H   UNL     1       0.351   5.182  20.219  0.00  0.00    +0.000 HD
ENDBRANCH  10  11
BRANCH   1  15
ATOM     14  C   UNL     1       7.483   4.652  17.623  0.00  0.00    +0.000 C 
ATOM     15  O   UNL     1       6.567   4.388  18.680  0.00  0.00    +0.000 OA
ENDBRANCH   1  15
TORSDOF 2
ENDMDL
MODEL 5
REMARK VINA RESULT:      -5.7      2.256      3.982
REMARK  Name = 
REMARK  3 active torsions:
REMARK  status: ('A' for Active; 'I' for Inactive)
REMARK    1  A    between atoms: C_1  and  O_2
REMARK    2  A    between atoms: O_2  and  C_3
REMARK    3  A    between atoms: C_12  and  N_13
REMARK                            x       y       z     vdW  Elec       q    Type
REMARK                         _______ _______ _______ _____ _____    ______ ____
ROOT
ATOM      1  C   UNL     1       3.831   4.464  19.095  0.00  0.00    +0.000 A 
ATOM      2  C   UNL     1       3.023   3.870  18.119  0.00  0.00    +0.000 A 
ATOM      3  C   UNL     1       3.484   3.715  16.817  0.00  0.00    +0.000 A 
ATOM      4  C   UNL     1       4.755   4.168  16.472  0.00  0.00    +0.000 A 
ATOM      5  C   UNL     1       5.580   4.780  17.429  0.00  0.00    +0.000 A 
ATOM      6  C   UNL     1       5.119   4.917  18.748  0.00  0.00    +0.000 A 
ATOM      7  O   UNL     1       5.865   5.514  19.737  0.00  0.00    +0.000 OA
ATOM      8  C   UNL     1       7.256   5.662  19.449  0.00  0.00    +0.000 C 
ATOM      9  C   UNL     1       7.481   6.248  18.068  0.00  0.00    +0.000 C 
ATOM     10  C   UNL     1       6.943   5.279  17.019  0.00  0.00    +0.000 C 
ENDROOT
BRANCH  10  11
ATOM     11  N   UNL     1       7.851   4.147  16.799  0.00  0.00    +0.000 NA
ATOM     12  H   UNL     1       7.488   3.560  16.047  0.00  0.00    +0.000 HD
ATOM     13  H   UNL     1       7.885   3.566  17.632  0.00  0.00    +0.000 HD
ENDBRANCH  10  11
BRANCH   1  15
ATOM     14  C   UNL     1       1.998   4.825  20.541  0.00  0.00    +0.000 C 
ATOM     15  O   UNL     1       3.405   4.680  20.383  0.00  0.00    +0.000 OA
ENDBRANCH   1  15
TORSDOF 2
ENDMDL
MODEL 6
REMARK VINA RESULT:      -5.7      2.113      2.353
REMARK  Name = 
REMARK  3 active torsions:
REMARK  status: ('A' for Active; 'I' for Inactive)
REMARK    1  A    between atoms: C_1  and  O_2
REMARK    2  A    between atoms: O_2  and  C_3
REMARK    3  A    between atoms: C_12  and  N_13
REMARK                            x       y       z     vdW  Elec       q    Type
REMARK                         _______ _______ _______ _____ _____    ______ ____
ROOT
ATOM      1  C   UNL     1       4.776   4.888  17.213  0.00  0.00    +0.000 A 
ATOM      2  C   UNL     1       4.663   6.282  17.210  0.00  0.00    +0.000 A 
ATOM      3  C   UNL     1       3.540   6.902  17.742  0.00  0.00    +0.000 A 
ATOM      4  C   UNL     1       2.507   6.132  18.271  0.00  0.00    +0.000 A 
ATOM      5  C   UNL     1       2.589   4.731  18.274  0.00  0.00    +0.000 A 
ATOM      6  C   UNL     1       3.734   4.108  17.753  0.00  0.00    +0.000 A 
ATOM      7  O   UNL     1       3.883   2.741  17.713  0.00  0.00    +0.000 OA
ATOM      8  C   UNL     1       2.985   2.004  18.544  0.00  0.00    +0.000 C 
ATOM      9  C   UNL     1       1.553   2.474  18.374  0.00  0.00    +0.000 C 
ATOM     10  C   UNL     1       1.444   3.925  18.835  0.00  0.00    +0.000 C 
ENDROOT
BRANCH  10  11
ATOM     11  N   UNL     1       1.416   4.036  20.298  0.00  0.00    +0.000 NA
ATOM     12  H   UNL     1       2.331   3.786  20.676  0.00  0.00    +0.000 HD
ATOM     13  H   UNL     1       0.750   3.372  20.682  0.00  0.00    +0.000 HD
ENDBRANCH  10  11
BRANCH   1  15
ATOM     14  C   UNL     1       7.123   4.626  17.142  0.00  0.00    +0.000 C 
ATOM     15  O   UNL     1       5.845   4.225  16.659  0.00  0.00    +0.000 OA
ENDBRANCH   1  15
TORSDOF 2
ENDMDL
MODEL 7
REMARK VINA RESULT:      -5.7      2.001      4.008
REMARK  Name = 
REMARK  3 active torsions:
REMARK  status: ('A' for Active; 'I' for Inactive)
REMARK    1  A    between atoms: C_1  and  O_2
REMARK    2  A    between atoms: O_2  and  C_3
REMARK    3  A    between atoms: C_12  and  N_13
REMARK                            x       y       z     vdW  Elec       q    Type
REMARK                         _______ _______ _______ _____ _____    ______ ____
ROOT
ATOM      1  C   UNL     1       4.840   3.661  18.922  0.00  0.00    +0.000 A 
ATOM      2  C   UNL     1       3.805   3.299  18.054  0.00  0.00    +0.000 A 
ATOM      3  C   UNL     1       3.704   3.874  16.794  0.00  0.00    +0.000 A 
ATOM      4  C   UNL     1       4.631   4.833  16.391  0.00  0.00    +0.000 A 
ATOM      5  C   UNL     1       5.672   5.224  17.248  0.00  0.00    +0.000 A 
ATOM      6  C   UNL     1       5.782   4.626  18.514  0.00  0.00    +0.000 A 
ATOM      7  O   UNL     1       6.768   4.964  19.411  0.00  0.00    +0.000 OA
ATOM      8  C   UNL     1       7.874   5.683  18.862  0.00  0.00    +0.000 C 
ATOM      9  C   UNL     1       7.413   6.835  17.989  0.00  0.00    +0.000 C 
ATOM     10  C   UNL     1       6.647   6.280  16.792  0.00  0.00    +0.000 C 
ENDROOT
BRANCH  10  11
ATOM     11  N   UNL     1       7.547   5.729  15.771  0.00  0.00    +0.000 NA
ATOM     12  H   UNL     1       7.679   6.416  15.027  0.00  0.00    +0.000 HD
ATOM     13  H   UNL     1       7.122   4.912  15.342  0.00  0.00    +0.000 HD
ENDBRANCH  10  11
BRANCH   1  15
ATOM     14  C   UNL     1       4.553   1.799  20.347  0.00  0.00    +0.000 C 
ATOM     15  O   UNL     1       4.958   3.155  20.194  0.00  0.00    +0.000 OA
ENDBRANCH   1  15
TORSDOF 2
ENDMDL
MODEL 8
REMARK VINA RESULT:      -5.6      3.044      3.558
REMARK  Name = 
REMARK  3 active torsions:
REMARK  status: ('A' for Active; 'I' for Inactive)
REMARK    1  A    between atoms: C_1  and  O_2
REMARK    2  A    between atoms: O_2  and  C_3
REMARK    3  A    between atoms: C_12  and  N_13
REMARK                            x       y       z     vdW  Elec       q    Type
REMARK                         _______ _______ _______ _____ _____    ______ ____
ROOT
ATOM      1  C   UNL     1       3.234   5.679  18.247  0.00  0.00    +0.000 A 
ATOM      2  C   UNL     1       2.930   6.939  18.773  0.00  0.00    +0.000 A 
ATOM      3  C   UNL     1       2.167   7.059  19.927  0.00  0.00    +0.000 A 
ATOM      4  C   UNL     1       1.686   5.917  20.564  0.00  0.00    +0.000 A 
ATOM      5  C   UNL     1       1.966   4.641  20.050  0.00  0.00    +0.000 A 
ATOM      6  C   UNL     1       2.753   4.523  18.893  0.00  0.00    +0.000 A 
ATOM      7  O   UNL     1       3.061   3.309  18.326  0.00  0.00    +0.000 OA
ATOM      8  C   UNL     1       2.846   2.171  19.162  0.00  0.00    +0.000 C 
ATOM      9  C   UNL     1       1.482   2.214  19.824  0.00  0.00    +0.000 C 
ATOM     10  C   UNL     1       1.412   3.425  20.750  0.00  0.00    +0.000 C 
ENDROOT
BRANCH  10  11
ATOM     11  N   UNL     1       2.131   3.196  22.009  0.00  0.00    +0.000 NA
ATOM     12  H   UNL     1       1.527   3.438  22.795  0.00  0.00    +0.000 HD
ATOM     13  H   UNL     1       2.939   3.810  22.062  0.00  0.00    +0.000 HD
ENDBRANCH  10  11
BRANCH   1  15
ATOM     14  C   UNL     1       4.850   6.561  16.766  0.00  0.00    +0.000 C 
ATOM     15  O   UNL     1       3.946   5.508  17.084  0.00  0.00    +0.000 OA
ENDBRANCH   1  15
TORSDOF 2
ENDMDL
MODEL 9
REMARK VINA RESULT:      -5.6      2.661      3.175
REMARK  Name = 
REMARK  3 active torsions:
REMARK  status: ('A' for Active; 'I' for Inactive)
REMARK    1  A    between atoms: C_1  and  O_2
REMARK    2  A    between atoms: O_2  and  C_3
REMARK    3  A    between atoms: C_12  and  N_13
REMARK                            x       y       z     vdW  Elec       q    Type
REMARK                         _______ _______ _______ _____ _____    ______ ____
ROOT
ATOM      1  C   UNL     1       3.077   6.137  18.424  0.00  0.00    +0.000 A 
ATOM      2  C   UNL     1       4.011   6.031  17.387  0.00  0.00    +0.000 A 
ATOM      3  C   UNL     1       4.472   4.787  16.975  0.00  0.00    +0.000 A 
ATOM      4  C   UNL     1       4.014   3.632  17.606  0.00  0.00    +0.000 A 
ATOM      5  C   UNL     1       3.087   3.712  18.658  0.00  0.00    +0.000 A 
ATOM      6  C   UNL     1       2.609   4.970  19.059  0.00  0.00    +0.000 A 
ATOM      7  O   UNL     1       1.709   5.129  20.087  0.00  0.00    +0.000 OA
ATOM      8  C   UNL     1       1.018   3.942  20.483  0.00  0.00    +0.000 C 
ATOM      9  C   UNL     1       1.971   2.778  20.672  0.00  0.00    +0.000 C 
ATOM     10  C   UNL     1       2.628   2.445  19.335  0.00  0.00    +0.000 C 
ENDROOT
BRANCH  10  11
ATOM     11  N   UNL     1       1.725   1.699  18.450  0.00  0.00    +0.000 NA
ATOM     12  H   UNL     1       1.981   0.710  18.459  0.00  0.00    +0.000 HD
ATOM     13  H   UNL     1       1.836   2.021  17.493  0.00  0.00    +0.000 HD
ENDBRANCH  10  11
BRANCH   1  15
ATOM     14  C   UNL     1       2.369   8.330  17.903  0.00  0.00    +0.000 C 
ATOM     15  O   UNL     1       2.625   7.345  18.898  0.00  0.00    +0.000 OA
ENDBRANCH   1  15
TORSDOF 2
ENDMDL
