MODEL 1
REMARK VINA RESULT:      -8.3      0.000      0.000
REMARK  Name = 
REMARK  6 active torsions:
REMARK  status: ('A' for Active; 'I' for Inactive)
REMARK    1  A    between atoms: C_1  and  C_2
REMARK    2  A    between atoms: C_4  and  N_5
REMARK    3  A    between atoms: N_5  and  C_6
REMARK    4  A    between atoms: C_15  and  S_16
REMARK    5  A    between atoms: S_16  and  C_17
REMARK    6  A    between atoms: C_17  and  C_18
REMARK                            x       y       z     vdW  Elec       q    Type
REMARK                         _______ _______ _______ _____ _____    ______ ____
ROOT
ATOM      1  C   UNL     1       1.382   2.445  21.421  0.00  0.00    +0.000 C 
ATOM      2  C   UNL     1       2.063   3.345  20.415  0.00  0.00    +0.000 A 
ATOM      3  C   UNL     1       2.173   4.786  20.783  0.00  0.00    +0.000 A 
ATOM      4  C   UNL     1       2.816   5.591  19.913  0.00  0.00    +0.000 A 
ATOM      5  N   UNL     1       3.323   5.015  18.731  0.00  0.00    +0.000 N 
ATOM      6  N   UNL     1       3.993   5.615  17.715  0.00  0.00    +0.000 NA
ATOM      7  C   UNL     1       4.141   4.612  16.846  0.00  0.00    +0.000 A 
ATOM      8  N   UNL     1       3.631   3.410  17.240  0.00  0.00    +0.000 NA
ATOM      9  C   UNL     1       3.133   3.661  18.436  0.00  0.00    +0.000 A 
ATOM     10  N   UNL     1       2.503   2.818  19.310  0.00  0.00    +0.000 NA
ENDROOT
BRANCH   4  11
ATOM     11  N   UNL     1       2.999   6.962  20.124  0.00  0.00    +0.000 N 
ATOM     12  H   UNL     1       3.950   7.251  19.870  0.00  0.00    +0.000 HD
BRANCH  11  13
ATOM     13  C   UNL     1       2.064   7.929  19.669  0.00  0.00    +0.000 A 
ATOM     14  C   UNL     1       1.189   8.512  20.596  0.00  0.00    +0.000 A 
ATOM     15  C   UNL     1       0.247   9.459  20.185  0.00  0.00    +0.000 A 
ATOM     16  C   UNL     1       0.201   9.848  18.852  0.00  0.00    +0.000 A 
ATOM     17  F   UNL     1      -0.714  10.741  18.455  0.00  0.00    +0.000 F 
ATOM     18  C   UNL     1       1.093   9.325  17.926  0.00  0.00    +0.000 A 
ATOM     19  C   UNL     1       2.031   8.376  18.337  0.00  0.00    +0.000 A 
ENDBRANCH  11  13
ENDBRANCH   4  11
BRANCH   7  20
ATOM     20  S   UNL     1       5.002   4.880  15.351  0.00  0.00    +0.000 S 
BRANCH  20  21
ATOM     21  C   UNL     1       6.697   4.401  15.784  0.00  0.00    +0.000 C 
BRANCH  21  22
ATOM     22  C   UNL     1       7.224   5.221  16.949  0.00  0.00    +0.000 A 
ATOM     23  C   UNL     1       7.543   4.608  18.173  0.00  0.00    +0.000 A 
ATOM     24  C   UNL     1       8.013   5.365  19.254  0.00  0.00    +0.000 A 
ATOM     25  C   UNL     1       8.163   6.743  19.133  0.00  0.00    +0.000 A 
ATOM     26  C   UNL     1       7.847   7.362  17.925  0.00  0.00    +0.000 A 
ATOM     27 BR   UNL     1       8.044   9.234  17.757  0.00  0.00    +0.000 Br
ATOM     28  C   UNL     1       7.374   6.615  16.842  0.00  0.00    +0.000 A 
ENDBRANCH  21  22
ENDBRANCH  20  21
ENDBRANCH   7  20
TORSDOF 5
ENDMDL
MODEL 2
REMARK VINA RESULT:      -8.3      3.780      5.985
REMARK  Name = 
REMARK  6 active torsions:
REMARK  status: ('A' for Active; 'I' for Inactive)
REMARK    1  A    between atoms: C_1  and  C_2
REMARK    2  A    between atoms: C_4  and  N_5
REMARK    3  A    between atoms: N_5  and  C_6
REMARK    4  A    between atoms: C_15  and  S_16
REMARK    5  A    between atoms: S_16  and  C_17
REMARK    6  A    between atoms: C_17  and  C_18
REMARK                            x       y       z     vdW  Elec       q    Type
REMARK                         _______ _______ _______ _____ _____    ______ ____
ROOT
ATOM      1  C   UNL     1       5.801   3.815  13.737  0.00  0.00    +0.000 C 
ATOM      2  C   UNL     1       6.125   4.443  15.072  0.00  0.00    +0.000 A 
ATOM      3  C   UNL     1       5.614   3.734  16.281  0.00  0.00    +0.000 A 
ATOM      4  C   UNL     1       5.933   4.261  17.480  0.00  0.00    +0.000 A 
ATOM      5  N   UNL     1       6.713   5.435  17.499  0.00  0.00    +0.000 N 
ATOM      6  N   UNL     1       7.150   6.144  18.569  0.00  0.00    +0.000 NA
ATOM      7  C   UNL     1       7.754   7.184  17.987  0.00  0.00    +0.000 A 
ATOM      8  N   UNL     1       7.751   7.180  16.623  0.00  0.00    +0.000 NA
ATOM      9  C   UNL     1       7.111   6.068  16.317  0.00  0.00    +0.000 A 
ATOM     10  N   UNL     1       6.819   5.544  15.088  0.00  0.00    +0.000 NA
ENDROOT
BRANCH   4  11
ATOM     11  N   UNL     1       5.527   3.704  18.697  0.00  0.00    +0.000 N 
ATOM     12  H   UNL     1       6.163   3.972  19.456  0.00  0.00    +0.000 HD
BRANCH  11  13
ATOM     13  C   UNL     1       4.182   3.773  19.150  0.00  0.00    +0.000 A 
ATOM     14  C   UNL     1       3.574   5.030  19.272  0.00  0.00    +0.000 A 
ATOM     15  C   UNL     1       2.256   5.140  19.726  0.00  0.00    +0.000 A 
ATOM     16  C   UNL     1       1.536   3.991  20.026  0.00  0.00    +0.000 A 
ATOM     17  F   UNL     1       0.281   4.098  20.479  0.00  0.00    +0.000 F 
ATOM     18  C   UNL     1       2.098   2.733  19.863  0.00  0.00    +0.000 A 
ATOM     19  C   UNL     1       3.416   2.624  19.414  0.00  0.00    +0.000 A 
ENDBRANCH  11  13
ENDBRANCH   4  11
BRANCH   7  20
ATOM     20  S   UNL     1       8.535   8.395  18.974  0.00  0.00    +0.000 S 
BRANCH  20  21
ATOM     21  C   UNL     1       8.618   9.818  17.853  0.00  0.00    +0.000 C 
BRANCH  21  22
ATOM     22  C   UNL     1       9.437  10.948  18.452  0.00  0.00    +0.000 A 
ATOM     23  C   UNL     1      10.527  11.494  17.753  0.00  0.00    +0.000 A 
ATOM     24  C   UNL     1      11.295  12.525  18.311  0.00  0.00    +0.000 A 
ATOM     25  C   UNL     1      10.991  13.019  19.576  0.00  0.00    +0.000 A 
ATOM     26  C   UNL     1       9.914  12.483  20.280  0.00  0.00    +0.000 A 
ATOM     27 BR   UNL     1       9.501  13.148  21.999  0.00  0.00    +0.000 Br
ATOM     28  C   UNL     1       9.145  11.452  19.731  0.00  0.00    +0.000 A 
ENDBRANCH  21  22
ENDBRANCH  20  21
ENDBRANCH   7  20
TORSDOF 5
ENDMDL
MODEL 3
REMARK VINA RESULT:      -8.1      3.606      7.027
REMARK  Name = 
REMARK  6 active torsions:
REMARK  status: ('A' for Active; 'I' for Inactive)
REMARK    1  A    between atoms: C_1  and  C_2
REMARK    2  A    between atoms: C_4  and  N_5
REMARK    3  A    between atoms: N_5  and  C_6
REMARK    4  A    between atoms: C_15  and  S_16
REMARK    5  A    between atoms: S_16  and  C_17
REMARK    6  A    between atoms: C_17  and  C_18
REMARK                            x       y       z     vdW  Elec       q    Type
REMARK                         _______ _______ _______ _____ _____    ______ ____
ROOT
ATOM      1  C   UNL     1       8.469   6.970  19.037  0.00  0.00    +0.000 C 
ATOM      2  C   UNL     1       7.353   6.132  18.458  0.00  0.00    +0.000 A 
ATOM      3  C   UNL     1       6.981   6.409  17.041  0.00  0.00    +0.000 A 
ATOM      4  C   UNL     1       6.015   5.639  16.500  0.00  0.00    +0.000 A 
ATOM      5  N   UNL     1       5.432   4.645  17.311  0.00  0.00    +0.000 N 
ATOM      6  N   UNL     1       4.451   3.762  16.996  0.00  0.00    +0.000 NA
ATOM      7  C   UNL     1       4.252   3.139  18.161  0.00  0.00    +0.000 A 
ATOM      8  N   UNL     1       5.046   3.546  19.192  0.00  0.00    +0.000 NA
ATOM      9  C   UNL     1       5.802   4.482  18.650  0.00  0.00    +0.000 A 
ATOM     10  N   UNL     1       6.794   5.235  19.217  0.00  0.00    +0.000 NA
ENDROOT
BRANCH   4  11
ATOM     11  N   UNL     1       5.565   5.781  15.183  0.00  0.00    +0.000 N 
ATOM     12  H   UNL     1       5.541   6.768  14.906  0.00  0.00    +0.000 HD
BRANCH  11  13
ATOM     13  C   UNL     1       6.080   4.995  14.118  0.00  0.00    +0.000 A 
ATOM     14  C   UNL     1       5.259   4.016  13.542  0.00  0.00    +0.000 A 
ATOM     15  C   UNL     1       5.734   3.214  12.500  0.00  0.00    +0.000 A 
ATOM     16  C   UNL     1       7.018   3.414  12.012  0.00  0.00    +0.000 A 
ATOM     17  F   UNL     1       7.480   2.633  11.027  0.00  0.00    +0.000 F 
ATOM     18  C   UNL     1       7.831   4.412  12.529  0.00  0.00    +0.000 A 
ATOM     19  C   UNL     1       7.358   5.210  13.573  0.00  0.00    +0.000 A 
ENDBRANCH  11  13
ENDBRANCH   4  11
BRANCH   7  20
ATOM     20  S   UNL     1       3.079   1.849  18.263  0.00  0.00    +0.000 S 
BRANCH  20  21
ATOM     21  C   UNL     1       1.508   2.754  18.338  0.00  0.00    +0.000 C 
BRANCH  21  22
ATOM     22  C   UNL     1       1.678   4.105  19.009  0.00  0.00    +0.000 A 
ATOM     23  C   UNL     1       1.507   4.245  20.397  0.00  0.00    +0.000 A 
ATOM     24  C   UNL     1       1.646   5.495  21.015  0.00  0.00    +0.000 A 
ATOM     25  C   UNL     1       1.951   6.622  20.258  0.00  0.00    +0.000 A 
ATOM     26  C   UNL     1       2.121   6.495  18.881  0.00  0.00    +0.000 A 
ATOM     27 BR   UNL     1       2.530   8.024  17.848  0.00  0.00    +0.000 Br
ATOM     28  C   UNL     1       1.980   5.253  18.255  0.00  0.00    +0.000 A 
ENDBRANCH  21  22
ENDBRANCH  20  21
ENDBRANCH   7  20
TORSDOF 5
ENDMDL
MODEL 4
REMARK VINA RESULT:      -7.9      3.489      5.796
REMARK  Name = 
REMARK  6 active torsions:
REMARK  status: ('A' for Active; 'I' for Inactive)
REMARK    1  A    between atoms: C_1  and  C_2
REMARK    2  A    between atoms: C_4  and  N_5
REMARK    3  A    between atoms: N_5  and  C_6
REMARK    4  A    between atoms: C_15  and  S_16
REMARK    5  A    between atoms: S_16  and  C_17
REMARK    6  A    between atoms: C_17  and  C_18
REMARK                            x       y       z     vdW  Elec       q    Type
REMARK                         _______ _______ _______ _____ _____    ______ ____
ROOT
ATOM      1  C   UNL     1       5.776   3.586  12.955  0.00  0.00    +0.000 C 
ATOM      2  C   UNL     1       6.017   4.118  14.348  0.00  0.00    +0.000 A 
ATOM      3  C   UNL     1       5.431   3.330  15.471  0.00  0.00    +0.000 A 
ATOM      4  C   UNL     1       5.675   3.772  16.721  0.00  0.00    +0.000 A 
ATOM      5  N   UNL     1       6.452   4.938  16.870  0.00  0.00    +0.000 N 
ATOM      6  N   UNL     1       6.822   5.569  18.012  0.00  0.00    +0.000 NA
ATOM      7  C   UNL     1       7.462   6.644  17.542  0.00  0.00    +0.000 A 
ATOM      8  N   UNL     1       7.544   6.735  16.183  0.00  0.00    +0.000 NA
ATOM      9  C   UNL     1       6.924   5.649  15.762  0.00  0.00    +0.000 A 
ATOM     10  N   UNL     1       6.709   5.212  14.484  0.00  0.00    +0.000 NA
ENDROOT
BRANCH   4  11
ATOM     11  N   UNL     1       5.193   3.134  17.869  0.00  0.00    +0.000 N 
ATOM     12  H   UNL     1       5.920   3.075  18.591  0.00  0.00    +0.000 HD
BRANCH  11  13
ATOM     13  C   UNL     1       3.952   3.484  18.465  0.00  0.00    +0.000 A 
ATOM     14  C   UNL     1       2.815   3.580  17.652  0.00  0.00    +0.000 A 
ATOM     15  C   UNL     1       1.578   3.934  18.199  0.00  0.00    +0.000 A 
ATOM     16  C   UNL     1       1.471   4.160  19.565  0.00  0.00    +0.000 A 
ATOM     17  F   UNL     1       0.291   4.517  20.086  0.00  0.00    +0.000 F 
ATOM     18  C   UNL     1       2.571   4.018  20.399  0.00  0.00    +0.000 A 
ATOM     19  C   UNL     1       3.808   3.669  19.851  0.00  0.00    +0.000 A 
ENDBRANCH  11  13
ENDBRANCH   4  11
BRANCH   7  20
ATOM     20  S   UNL     1       8.180   7.781  18.656  0.00  0.00    +0.000 S 
BRANCH  20  21
ATOM     21  C   UNL     1       8.185   9.320  17.696  0.00  0.00    +0.000 C 
BRANCH  21  22
ATOM     22  C   UNL     1       8.871  10.443  18.454  0.00  0.00    +0.000 A 
ATOM     23  C   UNL     1       9.478  10.204  19.699  0.00  0.00    +0.000 A 
ATOM     24  C   UNL     1      10.096  11.243  20.407  0.00  0.00    +0.000 A 
ATOM     25  C   UNL     1      10.111  12.534  19.889  0.00  0.00    +0.000 A 
ATOM     26  C   UNL     1       9.509  12.783  18.656  0.00  0.00    +0.000 A 
ATOM     27 BR   UNL     1       9.523  14.536  17.950  0.00  0.00    +0.000 Br
ATOM     28  C   UNL     1       8.887  11.753  17.944  0.00  0.00    +0.000 A 
ENDBRANCH  21  22
ENDBRANCH  20  21
ENDBRANCH   7  20
TORSDOF 5
ENDMDL
MODEL 5
REMARK VINA RESULT:      -7.9      3.380      5.318
REMARK  Name = 
REMARK  6 active torsions:
REMARK  status: ('A' for Active; 'I' for Inactive)
REMARK    1  A    between atoms: C_1  and  C_2
REMARK    2  A    between atoms: C_4  and  N_5
REMARK    3  A    between atoms: N_5  and  C_6
REMARK    4  A    between atoms: C_15  and  S_16
REMARK    5  A    between atoms: S_16  and  C_17
REMARK    6  A    between atoms: C_17  and  C_18
REMARK                            x       y       z     vdW  Elec       q    Type
REMARK                         _______ _______ _______ _____ _____    ______ ____
ROOT
ATOM      1  C   UNL     1       5.783   3.652  13.207  0.00  0.00    +0.000 C 
ATOM      2  C   UNL     1       5.937   4.305  14.562  0.00  0.00    +0.000 A 
ATOM      3  C   UNL     1       4.975   3.877  15.618  0.00  0.00    +0.000 A 
ATOM      4  C   UNL     1       5.129   4.420  16.842  0.00  0.00    +0.000 A 
ATOM      5  N   UNL     1       6.175   5.348  17.026  0.00  0.00    +0.000 N 
ATOM      6  N   UNL     1       6.520   6.022  18.151  0.00  0.00    +0.000 NA
ATOM      7  C   UNL     1       7.510   6.806  17.713  0.00  0.00    +0.000 A 
ATOM      8  N   UNL     1       7.834   6.667  16.395  0.00  0.00    +0.000 NA
ATOM      9  C   UNL     1       7.004   5.735  15.968  0.00  0.00    +0.000 A 
ATOM     10  N   UNL     1       6.883   5.184  14.723  0.00  0.00    +0.000 NA
ENDROOT
BRANCH   4  11
ATOM     11  N   UNL     1       4.305   4.113  17.929  0.00  0.00    +0.000 N 
ATOM     12  H   UNL     1       4.796   3.525  18.611  0.00  0.00    +0.000 HD
BRANCH  11  13
ATOM     13  C   UNL     1       3.546   5.104  18.609  0.00  0.00    +0.000 A 
ATOM     14  C   UNL     1       3.169   6.261  17.913  0.00  0.00    +0.000 A 
ATOM     15  C   UNL     1       2.433   7.265  18.550  0.00  0.00    +0.000 A 
ATOM     16  C   UNL     1       2.046   7.096  19.873  0.00  0.00    +0.000 A 
ATOM     17  F   UNL     1       1.358   8.065  20.489  0.00  0.00    +0.000 F 
ATOM     18  C   UNL     1       2.361   5.935  20.566  0.00  0.00    +0.000 A 
ATOM     19  C   UNL     1       3.100   4.935  19.930  0.00  0.00    +0.000 A 
ENDBRANCH  11  13
ENDBRANCH   4  11
BRANCH   7  20
ATOM     20  S   UNL     1       8.334   7.866  18.830  0.00  0.00    +0.000 S 
BRANCH  20  21
ATOM     21  C   UNL     1       8.261   9.465  17.978  0.00  0.00    +0.000 C 
BRANCH  21  22
ATOM     22  C   UNL     1       9.223  10.466  18.596  0.00  0.00    +0.000 A 
ATOM     23  C   UNL     1       9.326  10.597  19.991  0.00  0.00    +0.000 A 
ATOM     24  C   UNL     1      10.199  11.531  20.562  0.00  0.00    +0.000 A 
ATOM     25  C   UNL     1      10.976  12.353  19.751  0.00  0.00    +0.000 A 
ATOM     26  C   UNL     1      10.880  12.233  18.365  0.00  0.00    +0.000 A 
ATOM     27 BR   UNL     1      11.929  13.350  17.259  0.00  0.00    +0.000 Br
ATOM     28  C   UNL     1      10.008  11.306  17.787  0.00  0.00    +0.000 A 
ENDBRANCH  21  22
ENDBRANCH  20  21
ENDBRANCH   7  20
TORSDOF 5
ENDMDL
MODEL 6
REMARK VINA RESULT:      -7.8      2.557      3.578
REMARK  Name = 
REMARK  6 active torsions:
REMARK  status: ('A' for Active; 'I' for Inactive)
REMARK    1  A    between atoms: C_1  and  C_2
REMARK    2  A    between atoms: C_4  and  N_5
REMARK    3  A    between atoms: N_5  and  C_6
REMARK    4  A    between atoms: C_15  and  S_16
REMARK    5  A    between atoms: S_16  and  C_17
REMARK    6  A    between atoms: C_17  and  C_18
REMARK                            x       y       z     vdW  Elec       q    Type
REMARK                         _______ _______ _______ _____ _____    ______ ____
ROOT
ATOM      1  C   UNL     1       0.468   2.186  19.110  0.00  0.00    +0.000 C 
ATOM      2  C   UNL     1       1.502   3.275  18.939  0.00  0.00    +0.000 A 
ATOM      3  C   UNL     1       1.414   4.427  19.881  0.00  0.00    +0.000 A 
ATOM      4  C   UNL     1       2.357   5.385  19.766  0.00  0.00    +0.000 A 
ATOM      5  N   UNL     1       3.340   5.227  18.768  0.00  0.00    +0.000 N 
ATOM      6  N   UNL     1       4.374   6.049  18.461  0.00  0.00    +0.000 NA
ATOM      7  C   UNL     1       4.905   5.443  17.395  0.00  0.00    +0.000 A 
ATOM      8  N   UNL     1       4.297   4.284  17.011  0.00  0.00    +0.000 NA
ATOM      9  C   UNL     1       3.322   4.139  17.889  0.00  0.00    +0.000 A 
ATOM     10  N   UNL     1       2.391   3.144  17.997  0.00  0.00    +0.000 NA
ENDROOT
BRANCH   4  11
ATOM     11  N   UNL     1       2.403   6.520  20.581  0.00  0.00    +0.000 N 
ATOM     12  H   UNL     1       3.360   6.708  20.899  0.00  0.00    +0.000 HD
BRANCH  11  13
ATOM     13  C   UNL     1       1.770   7.739  20.219  0.00  0.00    +0.000 A 
ATOM     14  C   UNL     1       1.904   8.206  18.904  0.00  0.00    +0.000 A 
ATOM     15  C   UNL     1       1.306   9.407  18.511  0.00  0.00    +0.000 A 
ATOM     16  C   UNL     1       0.546  10.125  19.425  0.00  0.00    +0.000 A 
ATOM     17  F   UNL     1      -0.011  11.284  19.055  0.00  0.00    +0.000 F 
ATOM     18  C   UNL     1       0.353   9.656  20.717  0.00  0.00    +0.000 A 
ATOM     19  C   UNL     1       0.955   8.458  21.110  0.00  0.00    +0.000 A 
ENDBRANCH  11  13
ENDBRANCH   4  11
BRANCH   7  20
ATOM     20  S   UNL     1       6.327   6.114  16.636  0.00  0.00    +0.000 S 
BRANCH  20  21
ATOM     21  C   UNL     1       7.170   4.636  16.007  0.00  0.00    +0.000 C 
BRANCH  21  22
ATOM     22  C   UNL     1       7.152   4.592  14.489  0.00  0.00    +0.000 A 
ATOM     23  C   UNL     1       7.920   5.495  13.735  0.00  0.00    +0.000 A 
ATOM     24  C   UNL     1       7.892   5.468  12.335  0.00  0.00    +0.000 A 
ATOM     25  C   UNL     1       7.093   4.544  11.668  0.00  0.00    +0.000 A 
ATOM     26  C   UNL     1       6.325   3.645  12.406  0.00  0.00    +0.000 A 
ATOM     27 BR   UNL     1       5.234   2.393  11.504  0.00  0.00    +0.000 Br
ATOM     28  C   UNL     1       6.344   3.669  13.804  0.00  0.00    +0.000 A 
ENDBRANCH  21  22
ENDBRANCH  20  21
ENDBRANCH   7  20
TORSDOF 5
ENDMDL
MODEL 7
REMARK VINA RESULT:      -7.8      2.162      2.839
REMARK  Name = 
REMARK  6 active torsions:
REMARK  status: ('A' for Active; 'I' for Inactive)
REMARK    1  A    between atoms: C_1  and  C_2
REMARK    2  A    between atoms: C_4  and  N_5
REMARK    3  A    between atoms: N_5  and  C_6
REMARK    4  A    between atoms: C_15  and  S_16
REMARK    5  A    between atoms: S_16  and  C_17
REMARK    6  A    between atoms: C_17  and  C_18
REMARK                            x       y       z     vdW  Elec       q    Type
REMARK                         _______ _______ _______ _____ _____    ______ ____
ROOT
ATOM      1  C   UNL     1       1.382   1.882  18.407  0.00  0.00    +0.000 C 
ATOM      2  C   UNL     1       2.394   2.933  18.802  0.00  0.00    +0.000 A 
ATOM      3  C   UNL     1       1.867   4.117  19.541  0.00  0.00    +0.000 A 
ATOM      4  C   UNL     1       2.766   5.040  19.936  0.00  0.00    +0.000 A 
ATOM      5  N   UNL     1       4.121   4.821  19.617  0.00  0.00    +0.000 N 
ATOM      6  N   UNL     1       5.195   5.601  19.899  0.00  0.00    +0.000 NA
ATOM      7  C   UNL     1       6.185   4.946  19.286  0.00  0.00    +0.000 A 
ATOM      8  N   UNL     1       5.825   3.794  18.650  0.00  0.00    +0.000 NA
ATOM      9  C   UNL     1       4.528   3.708  18.874  0.00  0.00    +0.000 A 
ATOM     10  N   UNL     1       3.641   2.745  18.480  0.00  0.00    +0.000 NA
ENDROOT
BRANCH   4  11
ATOM     11  N   UNL     1       2.420   6.199  20.638  0.00  0.00    +0.000 N 
ATOM     12  H   UNL     1       3.123   6.423  21.351  0.00  0.00    +0.000 HD
BRANCH  11  13
ATOM     13  C   UNL     1       2.008   7.389  19.981  0.00  0.00    +0.000 A 
ATOM     14  C   UNL     1       1.307   8.357  20.712  0.00  0.00    +0.000 A 
ATOM     15  C   UNL     1       0.874   9.536  20.097  0.00  0.00    +0.000 A 
ATOM     16  C   UNL     1       1.171   9.761  18.759  0.00  0.00    +0.000 A 
ATOM     17  F   UNL     1       0.740  10.881  18.165  0.00  0.00    +0.000 F 
ATOM     18  C   UNL     1       1.911   8.842  18.029  0.00  0.00    +0.000 A 
ATOM     19  C   UNL     1       2.339   7.662  18.642  0.00  0.00    +0.000 A 
ENDBRANCH  11  13
ENDBRANCH   4  11
BRANCH   7  20
ATOM     20  S   UNL     1       7.820   5.549  19.395  0.00  0.00    +0.000 S 
BRANCH  20  21
ATOM     21  C   UNL     1       7.846   6.843  18.124  0.00  0.00    +0.000 C 
BRANCH  21  22
ATOM     22  C   UNL     1       6.857   6.545  17.010  0.00  0.00    +0.000 A 
ATOM     23  C   UNL     1       5.629   7.224  16.938  0.00  0.00    +0.000 A 
ATOM     24  C   UNL     1       4.709   6.938  15.922  0.00  0.00    +0.000 A 
ATOM     25  C   UNL     1       4.996   5.966  14.968  0.00  0.00    +0.000 A 
ATOM     26  C   UNL     1       6.211   5.285  15.030  0.00  0.00    +0.000 A 
ATOM     27 BR   UNL     1       6.604   3.961  13.740  0.00  0.00    +0.000 Br
ATOM     28  C   UNL     1       7.133   5.561  16.044  0.00  0.00    +0.000 A 
ENDBRANCH  21  22
ENDBRANCH  20  21
ENDBRANCH   7  20
TORSDOF 5
ENDMDL
MODEL 8
REMARK VINA RESULT:      -7.8      3.647      7.297
REMARK  Name = 
REMARK  6 active torsions:
REMARK  status: ('A' for Active; 'I' for Inactive)
REMARK    1  A    between atoms: C_1  and  C_2
REMARK    2  A    between atoms: C_4  and  N_5
REMARK    3  A    between atoms: N_5  and  C_6
REMARK    4  A    between atoms: C_15  and  S_16
REMARK    5  A    between atoms: S_16  and  C_17
REMARK    6  A    between atoms: C_17  and  C_18
REMARK                            x       y       z     vdW  Elec       q    Type
REMARK                         _______ _______ _______ _____ _____    ______ ____
ROOT
ATOM      1  C   UNL     1       7.052   5.007  14.806  0.00  0.00    +0.000 C 
ATOM      2  C   UNL     1       5.857   5.192  15.712  0.00  0.00    +0.000 A 
ATOM      3  C   UNL     1       5.081   3.963  16.047  0.00  0.00    +0.000 A 
ATOM      4  C   UNL     1       4.038   4.109  16.889  0.00  0.00    +0.000 A 
ATOM      5  N   UNL     1       3.760   5.402  17.377  0.00  0.00    +0.000 N 
ATOM      6  N   UNL     1       2.772   5.794  18.221  0.00  0.00    +0.000 NA
ATOM      7  C   UNL     1       2.945   7.118  18.256  0.00  0.00    +0.000 A 
ATOM      8  N   UNL     1       3.982   7.598  17.511  0.00  0.00    +0.000 NA
ATOM      9  C   UNL     1       4.506   6.514  16.973  0.00  0.00    +0.000 A 
ATOM     10  N   UNL     1       5.582   6.391  16.138  0.00  0.00    +0.000 NA
ENDROOT
BRANCH   4  11
ATOM     11  N   UNL     1       3.223   3.048  17.294  0.00  0.00    +0.000 N 
ATOM     12  H   UNL     1       3.631   2.145  17.026  0.00  0.00    +0.000 HD
BRANCH  11  13
ATOM     13  C   UNL     1       2.689   2.962  18.608  0.00  0.00    +0.000 A 
ATOM     14  C   UNL     1       1.299   3.019  18.777  0.00  0.00    +0.000 A 
ATOM     15  C   UNL     1       0.736   2.951  20.055  0.00  0.00    +0.000 A 
ATOM     16  C   UNL     1       1.561   2.792  21.161  0.00  0.00    +0.000 A 
ATOM     17  F   UNL     1       1.023   2.746  22.386  0.00  0.00    +0.000 F 
ATOM     18  C   UNL     1       2.936   2.678  21.014  0.00  0.00    +0.000 A 
ATOM     19  C   UNL     1       3.498   2.752  19.737  0.00  0.00    +0.000 A 
ENDBRANCH  11  13
ENDBRANCH   4  11
BRANCH   7  20
ATOM     20  S   UNL     1       1.913   8.100  19.266  0.00  0.00    +0.000 S 
BRANCH  20  21
ATOM     21  C   UNL     1       1.737   9.617  18.289  0.00  0.00    +0.000 C 
BRANCH  21  22
ATOM     22  C   UNL     1       0.401  10.292  18.549  0.00  0.00    +0.000 A 
ATOM     23  C   UNL     1       0.271  11.265  19.555  0.00  0.00    +0.000 A 
ATOM     24  C   UNL     1      -0.964  11.875  19.807  0.00  0.00    +0.000 A 
ATOM     25  C   UNL     1      -2.087  11.520  19.066  0.00  0.00    +0.000 A 
ATOM     26  C   UNL     1      -1.970  10.555  18.067  0.00  0.00    +0.000 A 
ATOM     27 BR   UNL     1      -3.493  10.067  17.061  0.00  0.00    +0.000 Br
ATOM     28  C   UNL     1      -0.742   9.938  17.811  0.00  0.00    +0.000 A 
ENDBRANCH  21  22
ENDBRANCH  20  21
ENDBRANCH   7  20
TORSDOF 5
ENDMDL
MODEL 9
REMARK VINA RESULT:      -7.7      2.515      3.434
REMARK  Name = 
REMARK  6 active torsions:
REMARK  status: ('A' for Active; 'I' for Inactive)
REMARK    1  A    between atoms: C_1  and  C_2
REMARK    2  A    between atoms: C_4  and  N_5
REMARK    3  A    between atoms: N_5  and  C_6
REMARK    4  A    between atoms: C_15  and  S_16
REMARK    5  A    between atoms: S_16  and  C_17
REMARK    6  A    between atoms: C_17  and  C_18
REMARK                            x       y       z     vdW  Elec       q    Type
REMARK                         _______ _______ _______ _____ _____    ______ ____
ROOT
ATOM      1  C   UNL     1       1.233   2.755  21.221  0.00  0.00    +0.000 C 
ATOM      2  C   UNL     1       1.888   3.860  20.425  0.00  0.00    +0.000 A 
ATOM      3  C   UNL     1       1.735   5.244  20.961  0.00  0.00    +0.000 A 
ATOM      4  C   UNL     1       2.351   6.233  20.283  0.00  0.00    +0.000 A 
ATOM      5  N   UNL     1       3.079   5.888  19.127  0.00  0.00    +0.000 N 
ATOM      6  N   UNL     1       3.770   6.699  18.287  0.00  0.00    +0.000 NA
ATOM      7  C   UNL     1       4.171   5.845  17.341  0.00  0.00    +0.000 A 
ATOM      8  N   UNL     1       3.804   4.545  17.526  0.00  0.00    +0.000 NA
ATOM      9  C   UNL     1       3.132   4.570  18.661  0.00  0.00    +0.000 A 
ATOM     10  N   UNL     1       2.534   3.545  19.341  0.00  0.00    +0.000 NA
ENDROOT
BRANCH   4  11
ATOM     11  N   UNL     1       2.298   7.577  20.668  0.00  0.00    +0.000 N 
ATOM     12  H   UNL     1       3.226   8.012  20.618  0.00  0.00    +0.000 HD
BRANCH  11  13
ATOM     13  C   UNL     1       1.320   8.473  20.159  0.00  0.00    +0.000 A 
ATOM     14  C   UNL     1       0.344   8.973  21.031  0.00  0.00    +0.000 A 
ATOM     15  C   UNL     1      -0.644   9.847  20.566  0.00  0.00    +0.000 A 
ATOM     16  C   UNL     1      -0.635  10.247  19.236  0.00  0.00    +0.000 A 
ATOM     17  F   UNL     1      -1.591  11.068  18.786  0.00  0.00    +0.000 F 
ATOM     18  C   UNL     1       0.353   9.807  18.366  0.00  0.00    +0.000 A 
ATOM     19  C   UNL     1       1.336   8.931  18.831  0.00  0.00    +0.000 A 
ENDBRANCH  11  13
ENDBRANCH   4  11
BRANCH   7  20
ATOM     20  S   UNL     1       5.158   6.418  16.020  0.00  0.00    +0.000 S 
BRANCH  20  21
ATOM     21  C   UNL     1       6.422   5.124  15.886  0.00  0.00    +0.000 C 
BRANCH  21  22
ATOM     22  C   UNL     1       6.735   4.804  14.435  0.00  0.00    +0.000 A 
ATOM     23  C   UNL     1       7.794   5.445  13.769  0.00  0.00    +0.000 A 
ATOM     24  C   UNL     1       8.073   5.164  12.426  0.00  0.00    +0.000 A 
ATOM     25  C   UNL     1       7.298   4.245  11.725  0.00  0.00    +0.000 A 
ATOM     26  C   UNL     1       6.243   3.605  12.374  0.00  0.00    +0.000 A 
ATOM     27 BR   UNL     1       5.184   2.360  11.426  0.00  0.00    +0.000 Br
ATOM     28  C   UNL     1       5.955   3.883  13.714  0.00  0.00    +0.000 A 
ENDBRANCH  21  22
ENDBRANCH  20  21
ENDBRANCH   7  20
TORSDOF 5
ENDMDL
