MODEL 1
REMARK VINA RESULT:      -6.8      0.000      0.000
REMARK  Name = 
REMARK  14 active torsions:
REMARK  status: ('A' for Active; 'I' for Inactive)
REMARK    1  A    between atoms: C_1  and  C_2
REMARK    2  A    between atoms: C_2  and  O_3
REMARK    3  A    between atoms: O_3  and  C_4
REMARK    4  A    between atoms: C_4  and  C_6
REMARK    5  A    between atoms: C_6  and  C_7
REMARK    6  A    between atoms: N_8  and  C_9
REMARK    7  A    between atoms: C_14  and  C_15
REMARK    8  A    between atoms: C_15  and  O_17
REMARK    9  A    between atoms: O_17  and  C_18
REMARK   10  A    between atoms: C_18  and  C_19
REMARK   11  A    between atoms: C_23  and  O_24
REMARK   12  A    between atoms: C_23  and  O_25
REMARK   13  A    between atoms: O_25  and  C_26
REMARK   14  A    between atoms: C_26  and  C_27
REMARK                            x       y       z     vdW  Elec       q    Type
REMARK                         _______ _______ _______ _____ _____    ______ ____
ROOT
ATOM      1  C   UNL     1       2.478   6.297  18.889  0.00  0.00    +0.000 C 
ATOM      2  N   UNL     1       2.462   7.567  18.618  0.00  0.00    +0.000 NA
ENDROOT
BRANCH   2   3
ATOM      3  C   UNL     1       1.765   8.338  19.504  0.00  0.00    +0.000 A 
ATOM      4  N   UNL     1       1.532   8.110  20.780  0.00  0.00    +0.000 NA
ATOM      5  C   UNL     1       0.735   9.101  21.323  0.00  0.00    +0.000 A 
ATOM      6  C   UNL     1       0.274   9.155  22.655  0.00  0.00    +0.000 A 
ATOM      7  C   UNL     1      -0.529  10.226  23.075  0.00  0.00    +0.000 A 
ATOM      8  C   UNL     1      -0.877  11.247  22.183  0.00  0.00    +0.000 A 
ATOM      9  C   UNL     1      -0.435  11.202  20.849  0.00  0.00    +0.000 A 
ATOM     10  C   UNL     1       0.370  10.121  20.446  0.00  0.00    +0.000 A 
ATOM     11  S   UNL     1       1.066   9.802  18.908  0.00  0.00    +0.000 S 
BRANCH   8  12
ATOM     12  C   UNL     1      -1.642  12.449  22.614  0.00  0.00    +0.000 C 
ATOM     13  O   UNL     1      -1.397  13.578  22.214  0.00  0.00    +0.000 OA
BRANCH  12  14
ATOM     14  O   UNL     1      -2.538  12.117  23.573  0.00  0.00    +0.000 OA
BRANCH  14  15
ATOM     15  C   UNL     1      -3.853  12.668  23.407  0.00  0.00    +0.000 C 
ATOM     16  C   UNL     1      -4.643  12.372  24.670  0.00  0.00    +0.000 C 
ENDBRANCH  14  15
ENDBRANCH  12  14
ENDBRANCH   8  12
ENDBRANCH   2   3
BRANCH   1  17
ATOM     17  C   UNL     1       3.143   5.271  18.025  0.00  0.00    +0.000 C 
ATOM     18  C   UNL     1       4.265   5.569  17.330  0.00  0.00    +0.000 C 
BRANCH  17  19
ATOM     19  C   UNL     1       2.533   3.907  18.034  0.00  0.00    +0.000 C 
ATOM     20  O   UNL     1       1.769   3.518  17.160  0.00  0.00    +0.000 OA
BRANCH  19  21
ATOM     21  O   UNL     1       2.734   3.271  19.213  0.00  0.00    +0.000 OA
BRANCH  21  23
ATOM     22  C   UNL     1       1.383   2.982  21.149  0.00  0.00    +0.000 C 
ATOM     23  C   UNL     1       1.619   2.531  19.714  0.00  0.00    +0.000 C 
ENDBRANCH  21  23
ENDBRANCH  19  21
ENDBRANCH  17  19
BRANCH  18  24
ATOM     24  O   UNL     1       4.904   6.794  17.408  0.00  0.00    +0.000 OA
ATOM     25  H   UNL     1       5.552   6.855  16.675  0.00  0.00    +0.000 HD
ENDBRANCH  18  24
BRANCH  18  26
ATOM     26  O   UNL     1       4.799   4.650  16.445  0.00  0.00    +0.000 OA
BRANCH  26  27
ATOM     27  C   UNL     1       5.730   5.192  15.510  0.00  0.00    +0.000 C 
ATOM     28  C   UNL     1       5.665   4.332  14.257  0.00  0.00    +0.000 C 
ENDBRANCH  26  27
ENDBRANCH  18  26
ENDBRANCH   1  17
TORSDOF 11
ENDMDL
MODEL 2
REMARK VINA RESULT:      -6.7      2.251      3.026
REMARK  Name = 
REMARK  14 active torsions:
REMARK  status: ('A' for Active; 'I' for Inactive)
REMARK    1  A    between atoms: C_1  and  C_2
REMARK    2  A    between atoms: C_2  and  O_3
REMARK    3  A    between atoms: O_3  and  C_4
REMARK    4  A    between atoms: C_4  and  C_6
REMARK    5  A    between atoms: C_6  and  C_7
REMARK    6  A    between atoms: N_8  and  C_9
REMARK    7  A    between atoms: C_14  and  C_15
REMARK    8  A    between atoms: C_15  and  O_17
REMARK    9  A    between atoms: O_17  and  C_18
REMARK   10  A    between atoms: C_18  and  C_19
REMARK   11  A    between atoms: C_23  and  O_24
REMARK   12  A    between atoms: C_23  and  O_25
REMARK   13  A    between atoms: O_25  and  C_26
REMARK   14  A    between atoms: C_26  and  C_27
REMARK                            x       y       z     vdW  Elec       q    Type
REMARK                         _______ _______ _______ _____ _____    ______ ____
ROOT
ATOM      1  C   UNL     1       3.777   6.455  17.807  0.00  0.00    +0.000 C 
ATOM      2  N   UNL     1       3.191   6.426  18.965  0.00  0.00    +0.000 NA
ENDROOT
BRANCH   2   3
ATOM      3  C   UNL     1       2.387   7.497  19.233  0.00  0.00    +0.000 A 
ATOM      4  N   UNL     1       1.792   7.810  20.365  0.00  0.00    +0.000 NA
ATOM      5  C   UNL     1       1.014   8.943  20.219  0.00  0.00    +0.000 A 
ATOM      6  C   UNL     1       0.222   9.539  21.224  0.00  0.00    +0.000 A 
ATOM      7  C   UNL     1      -0.518  10.695  20.937  0.00  0.00    +0.000 A 
ATOM      8  C   UNL     1      -0.478  11.268  19.661  0.00  0.00    +0.000 A 
ATOM      9  C   UNL     1       0.297  10.680  18.646  0.00  0.00    +0.000 A 
ATOM     10  C   UNL     1       1.033   9.521  18.951  0.00  0.00    +0.000 A 
ATOM     11  S   UNL     1       2.069   8.598  17.938  0.00  0.00    +0.000 S 
BRANCH   8  12
ATOM     12  C   UNL     1      -1.169  12.549  19.346  0.00  0.00    +0.000 C 
ATOM     13  O   UNL     1      -2.264  12.849  19.799  0.00  0.00    +0.000 OA
BRANCH  12  14
ATOM     14  O   UNL     1      -0.467  13.246  18.421  0.00  0.00    +0.000 OA
BRANCH  14  15
ATOM     15  C   UNL     1       0.429  14.238  18.944  0.00  0.00    +0.000 C 
ATOM     16  C   UNL     1      -0.240  15.592  18.793  0.00  0.00    +0.000 C 
ENDBRANCH  14  15
ENDBRANCH  12  14
ENDBRANCH   8  12
ENDBRANCH   2   3
BRANCH   1  17
ATOM     17  C   UNL     1       4.736   5.406  17.334  0.00  0.00    +0.000 C 
ATOM     18  C   UNL     1       5.428   5.566  16.182  0.00  0.00    +0.000 C 
BRANCH  17  19
ATOM     19  C   UNL     1       4.920   4.228  18.234  0.00  0.00    +0.000 C 
ATOM     20  O   UNL     1       5.835   4.151  19.044  0.00  0.00    +0.000 OA
BRANCH  19  21
ATOM     21  O   UNL     1       4.120   3.194  17.884  0.00  0.00    +0.000 OA
BRANCH  21  23
ATOM     22  C   UNL     1       1.904   2.387  18.195  0.00  0.00    +0.000 C 
ATOM     23  C   UNL     1       3.208   2.749  18.891  0.00  0.00    +0.000 C 
ENDBRANCH  21  23
ENDBRANCH  19  21
ENDBRANCH  17  19
BRANCH  18  24
ATOM     24  O   UNL     1       5.352   6.707  15.402  0.00  0.00    +0.000 OA
ATOM     25  H   UNL     1       4.974   7.430  15.945  0.00  0.00    +0.000 HD
ENDBRANCH  18  24
BRANCH  18  26
ATOM     26  O   UNL     1       6.218   4.540  15.698  0.00  0.00    +0.000 OA
BRANCH  26  27
ATOM     27  C   UNL     1       6.763   4.766  14.398  0.00  0.00    +0.000 C 
ATOM     28  C   UNL     1       6.100   3.778  13.452  0.00  0.00    +0.000 C 
ENDBRANCH  26  27
ENDBRANCH  18  26
ENDBRANCH   1  17
TORSDOF 11
ENDMDL
MODEL 3
REMARK VINA RESULT:      -6.6      1.314      1.662
REMARK  Name = 
REMARK  14 active torsions:
REMARK  status: ('A' for Active; 'I' for Inactive)
REMARK    1  A    between atoms: C_1  and  C_2
REMARK    2  A    between atoms: C_2  and  O_3
REMARK    3  A    between atoms: O_3  and  C_4
REMARK    4  A    between atoms: C_4  and  C_6
REMARK    5  A    between atoms: C_6  and  C_7
REMARK    6  A    between atoms: N_8  and  C_9
REMARK    7  A    between atoms: C_14  and  C_15
REMARK    8  A    between atoms: C_15  and  O_17
REMARK    9  A    between atoms: O_17  and  C_18
REMARK   10  A    between atoms: C_18  and  C_19
REMARK   11  A    between atoms: C_23  and  O_24
REMARK   12  A    between atoms: C_23  and  O_25
REMARK   13  A    between atoms: O_25  and  C_26
REMARK   14  A    between atoms: C_26  and  C_27
REMARK                            x       y       z     vdW  Elec       q    Type
REMARK                         _______ _______ _______ _____ _____    ______ ____
ROOT
ATOM      1  C   UNL     1       3.213   6.208  19.129  0.00  0.00    +0.000 C 
ATOM      2  N   UNL     1       2.628   7.198  18.525  0.00  0.00    +0.000 NA
ENDROOT
BRANCH   2   3
ATOM      3  C   UNL     1       1.934   8.045  19.342  0.00  0.00    +0.000 A 
ATOM      4  N   UNL     1       1.662   7.905  20.623  0.00  0.00    +0.000 NA
ATOM      5  C   UNL     1       0.885   8.953  21.081  0.00  0.00    +0.000 A 
ATOM      6  C   UNL     1       0.392   9.105  22.394  0.00  0.00    +0.000 A 
ATOM      7  C   UNL     1      -0.385  10.225  22.724  0.00  0.00    +0.000 A 
ATOM      8  C   UNL     1      -0.677  11.198  21.761  0.00  0.00    +0.000 A 
ATOM      9  C   UNL     1      -0.203  11.055  20.446  0.00  0.00    +0.000 A 
ATOM     10  C   UNL     1       0.576   9.926  20.133  0.00  0.00    +0.000 A 
ATOM     11  S   UNL     1       1.299   9.489  18.637  0.00  0.00    +0.000 S 
BRANCH   8  12
ATOM     12  C   UNL     1      -1.413  12.448  22.097  0.00  0.00    +0.000 C 
ATOM     13  O   UNL     1      -1.654  12.797  23.243  0.00  0.00    +0.000 OA
BRANCH  12  14
ATOM     14  O   UNL     1      -1.856  13.050  20.967  0.00  0.00    +0.000 OA
BRANCH  14  15
ATOM     15  C   UNL     1      -3.120  13.720  21.080  0.00  0.00    +0.000 C 
ATOM     16  C   UNL     1      -4.184  12.802  20.504  0.00  0.00    +0.000 C 
ENDBRANCH  14  15
ENDBRANCH  12  14
ENDBRANCH   8  12
ENDBRANCH   2   3
BRANCH   1  17
ATOM     17  C   UNL     1       3.984   5.139  18.419  0.00  0.00    +0.000 C 
ATOM     18  C   UNL     1       4.635   5.403  17.262  0.00  0.00    +0.000 C 
BRANCH  17  19
ATOM     19  C   UNL     1       4.038   3.807  19.094  0.00  0.00    +0.000 C 
ATOM     20  O   UNL     1       5.071   3.342  19.558  0.00  0.00    +0.000 OA
BRANCH  19  21
ATOM     21  O   UNL     1       2.894   3.104  18.919  0.00  0.00    +0.000 OA
BRANCH  21  23
ATOM     22  C   UNL     1       1.099   3.447  20.441  0.00  0.00    +0.000 C 
ATOM     23  C   UNL     1       2.304   2.577  20.109  0.00  0.00    +0.000 C 
ENDBRANCH  21  23
ENDBRANCH  19  21
ENDBRANCH  17  19
BRANCH  18  24
ATOM     24  O   UNL     1       4.688   6.664  16.692  0.00  0.00    +0.000 OA
ATOM     25  H   UNL     1       5.323   6.641  15.946  0.00  0.00    +0.000 HD
ENDBRANCH  18  24
BRANCH  18  26
ATOM     26  O   UNL     1       5.242   4.381  16.557  0.00  0.00    +0.000 OA
BRANCH  26  27
ATOM     27  C   UNL     1       6.558   4.675  16.091  0.00  0.00    +0.000 C 
ATOM     28  C   UNL     1       7.496   4.561  17.282  0.00  0.00    +0.000 C 
ENDBRANCH  26  27
ENDBRANCH  18  26
ENDBRANCH   1  17
TORSDOF 11
ENDMDL
MODEL 4
REMARK VINA RESULT:      -6.6      1.425      3.106
REMARK  Name = 
REMARK  14 active torsions:
REMARK  status: ('A' for Active; 'I' for Inactive)
REMARK    1  A    between atoms: C_1  and  C_2
REMARK    2  A    between atoms: C_2  and  O_3
REMARK    3  A    between atoms: O_3  and  C_4
REMARK    4  A    between atoms: C_4  and  C_6
REMARK    5  A    between atoms: C_6  and  C_7
REMARK    6  A    between atoms: N_8  and  C_9
REMARK    7  A    between atoms: C_14  and  C_15
REMARK    8  A    between atoms: C_15  and  O_17
REMARK    9  A    between atoms: O_17  and  C_18
REMARK   10  A    between atoms: C_18  and  C_19
REMARK   11  A    between atoms: C_23  and  O_24
REMARK   12  A    between atoms: C_23  and  O_25
REMARK   13  A    between atoms: O_25  and  C_26
REMARK   14  A    between atoms: C_26  and  C_27
REMARK                            x       y       z     vdW  Elec       q    Type
REMARK                         _______ _______ _______ _____ _____    ______ ____
ROOT
ATOM      1  C   UNL     1       3.018   6.482  19.388  0.00  0.00    +0.000 C 
ATOM      2  N   UNL     1       2.340   7.411  18.785  0.00  0.00    +0.000 NA
ENDROOT
BRANCH   2   3
ATOM      3  C   UNL     1       1.653   8.254  19.612  0.00  0.00    +0.000 A 
ATOM      4  N   UNL     1       1.390   8.109  20.894  0.00  0.00    +0.000 NA
ATOM      5  C   UNL     1       0.618   9.154  21.364  0.00  0.00    +0.000 A 
ATOM      6  C   UNL     1       0.135   9.300  22.681  0.00  0.00    +0.000 A 
ATOM      7  C   UNL     1      -0.638  10.420  23.023  0.00  0.00    +0.000 A 
ATOM      8  C   UNL     1      -0.936  11.398  22.067  0.00  0.00    +0.000 A 
ATOM      9  C   UNL     1      -0.472  11.261  20.748  0.00  0.00    +0.000 A 
ATOM     10  C   UNL     1       0.303  10.133  20.423  0.00  0.00    +0.000 A 
ATOM     11  S   UNL     1       1.015   9.703  18.919  0.00  0.00    +0.000 S 
BRANCH   8  12
ATOM     12  C   UNL     1      -1.667  12.647  22.415  0.00  0.00    +0.000 C 
ATOM     13  O   UNL     1      -1.527  13.697  21.804  0.00  0.00    +0.000 OA
BRANCH  12  14
ATOM     14  O   UNL     1      -2.393  12.469  23.544  0.00  0.00    +0.000 OA
BRANCH  14  15
ATOM     15  C   UNL     1      -3.818  12.473  23.369  0.00  0.00    +0.000 C 
ATOM     16  C   UNL     1      -4.454  12.456  24.747  0.00  0.00    +0.000 C 
ENDBRANCH  14  15
ENDBRANCH  12  14
ENDBRANCH   8  12
ENDBRANCH   2   3
BRANCH   1  17
ATOM     17  C   UNL     1       3.801   5.426  18.671  0.00  0.00    +0.000 C 
ATOM     18  C   UNL     1       3.175   4.459  17.961  0.00  0.00    +0.000 C 
BRANCH  17  19
ATOM     19  C   UNL     1       5.288   5.549  18.740  0.00  0.00    +0.000 C 
ATOM     20  O   UNL     1       5.956   5.018  19.617  0.00  0.00    +0.000 OA
BRANCH  19  21
ATOM     21  O   UNL     1       5.759   6.485  17.882  0.00  0.00    +0.000 OA
BRANCH  21  23
ATOM     22  C   UNL     1       7.780   7.733  17.764  0.00  0.00    +0.000 C 
ATOM     23  C   UNL     1       7.141   6.370  17.538  0.00  0.00    +0.000 C 
ENDBRANCH  21  23
ENDBRANCH  19  21
ENDBRANCH  17  19
BRANCH  18  24
ATOM     24  O   UNL     1       1.802   4.406  17.795  0.00  0.00    +0.000 OA
ATOM     25  H   UNL     1       1.525   3.466  17.783  0.00  0.00    +0.000 HD
ENDBRANCH  18  24
BRANCH  18  26
ATOM     26  O   UNL     1       3.904   3.424  17.404  0.00  0.00    +0.000 OA
BRANCH  26  27
ATOM     27  C   UNL     1       3.473   2.118  17.783  0.00  0.00    +0.000 C 
ATOM     28  C   UNL     1       3.799   1.944  19.258  0.00  0.00    +0.000 C 
ENDBRANCH  26  27
ENDBRANCH  18  26
ENDBRANCH   1  17
TORSDOF 11
ENDMDL
MODEL 5
REMARK VINA RESULT:      -6.6      1.379      1.709
REMARK  Name = 
REMARK  14 active torsions:
REMARK  status: ('A' for Active; 'I' for Inactive)
REMARK    1  A    between atoms: C_1  and  C_2
REMARK    2  A    between atoms: C_2  and  O_3
REMARK    3  A    between atoms: O_3  and  C_4
REMARK    4  A    between atoms: C_4  and  C_6
REMARK    5  A    between atoms: C_6  and  C_7
REMARK    6  A    between atoms: N_8  and  C_9
REMARK    7  A    between atoms: C_14  and  C_15
REMARK    8  A    between atoms: C_15  and  O_17
REMARK    9  A    between atoms: O_17  and  C_18
REMARK   10  A    between atoms: C_18  and  C_19
REMARK   11  A    between atoms: C_23  and  O_24
REMARK   12  A    between atoms: C_23  and  O_25
REMARK   13  A    between atoms: O_25  and  C_26
REMARK   14  A    between atoms: C_26  and  C_27
REMARK                            x       y       z     vdW  Elec       q    Type
REMARK                         _______ _______ _______ _____ _____    ______ ____
ROOT
ATOM      1  C   UNL     1       3.396   6.158  18.878  0.00  0.00    +0.000 C 
ATOM      2  N   UNL     1       2.760   7.135  18.306  0.00  0.00    +0.000 NA
ENDROOT
BRANCH   2   3
ATOM      3  C   UNL     1       2.050   7.937  19.154  0.00  0.00    +0.000 A 
ATOM      4  N   UNL     1       1.830   7.773  20.442  0.00  0.00    +0.000 NA
ATOM      5  C   UNL     1       1.014   8.773  20.937  0.00  0.00    +0.000 A 
ATOM      6  C   UNL     1       0.560   8.889  22.267  0.00  0.00    +0.000 A 
ATOM      7  C   UNL     1      -0.265   9.963  22.634  0.00  0.00    +0.000 A 
ATOM      8  C   UNL     1      -0.641  10.926  21.691  0.00  0.00    +0.000 A 
ATOM      9  C   UNL     1      -0.206  10.819  20.359  0.00  0.00    +0.000 A 
ATOM     10  C   UNL     1       0.621   9.736  20.009  0.00  0.00    +0.000 A 
ATOM     11  S   UNL     1       1.314   9.350  18.485  0.00  0.00    +0.000 S 
BRANCH   8  12
ATOM     12  C   UNL     1      -1.431  12.132  22.063  0.00  0.00    +0.000 C 
ATOM     13  O   UNL     1      -2.265  12.640  21.328  0.00  0.00    +0.000 OA
BRANCH  12  14
ATOM     14  O   UNL     1      -1.006  12.624  23.252  0.00  0.00    +0.000 OA
BRANCH  14  15
ATOM     15  C   UNL     1      -1.323  14.002  23.498  0.00  0.00    +0.000 C 
ATOM     16  C   UNL     1      -0.253  14.849  22.833  0.00  0.00    +0.000 C 
ENDBRANCH  14  15
ENDBRANCH  12  14
ENDBRANCH   8  12
ENDBRANCH   2   3
BRANCH   1  17
ATOM     17  C   UNL     1       4.194   5.135  18.130  0.00  0.00    +0.000 C 
ATOM     18  C   UNL     1       4.830   5.455  16.979  0.00  0.00    +0.000 C 
BRANCH  17  19
ATOM     19  C   UNL     1       4.291   3.784  18.762  0.00  0.00    +0.000 C 
ATOM     20  O   UNL     1       5.261   3.429  19.418  0.00  0.00    +0.000 OA
BRANCH  19  21
ATOM     21  O   UNL     1       3.313   2.952  18.331  0.00  0.00    +0.000 OA
BRANCH  21  23
ATOM     22  C   UNL     1       1.051   2.641  18.995  0.00  0.00    +0.000 C 
ATOM     23  C   UNL     1       2.505   2.366  19.352  0.00  0.00    +0.000 C 
ENDBRANCH  21  23
ENDBRANCH  19  21
ENDBRANCH  17  19
BRANCH  18  24
ATOM     24  O   UNL     1       4.843   6.734  16.449  0.00  0.00    +0.000 OA
ATOM     25  H   UNL     1       5.683   7.169  16.707  0.00  0.00    +0.000 HD
ENDBRANCH  18  24
BRANCH  18  26
ATOM     26  O   UNL     1       5.463   4.473  16.239  0.00  0.00    +0.000 OA
BRANCH  26  27
ATOM     27  C   UNL     1       6.289   4.960  15.183  0.00  0.00    +0.000 C 
ATOM     28  C   UNL     1       6.059   4.062  13.978  0.00  0.00    +0.000 C 
ENDBRANCH  26  27
ENDBRANCH  18  26
ENDBRANCH   1  17
TORSDOF 11
ENDMDL
MODEL 6
REMARK VINA RESULT:      -6.5      1.664      2.292
REMARK  Name = 
REMARK  14 active torsions:
REMARK  status: ('A' for Active; 'I' for Inactive)
REMARK    1  A    between atoms: C_1  and  C_2
REMARK    2  A    between atoms: C_2  and  O_3
REMARK    3  A    between atoms: O_3  and  C_4
REMARK    4  A    between atoms: C_4  and  C_6
REMARK    5  A    between atoms: C_6  and  C_7
REMARK    6  A    between atoms: N_8  and  C_9
REMARK    7  A    between atoms: C_14  and  C_15
REMARK    8  A    between atoms: C_15  and  O_17
REMARK    9  A    between atoms: O_17  and  C_18
REMARK   10  A    between atoms: C_18  and  C_19
REMARK   11  A    between atoms: C_23  and  O_24
REMARK   12  A    between atoms: C_23  and  O_25
REMARK   13  A    between atoms: O_25  and  C_26
REMARK   14  A    between atoms: C_26  and  C_27
REMARK                            x       y       z     vdW  Elec       q    Type
REMARK                         _______ _______ _______ _____ _____    ______ ____
ROOT
ATOM      1  C   UNL     1       3.681   5.966  18.880  0.00  0.00    +0.000 C 
ATOM      2  N   UNL     1       2.987   6.826  18.199  0.00  0.00    +0.000 NA
ENDROOT
BRANCH   2   3
ATOM      3  C   UNL     1       2.263   7.708  18.949  0.00  0.00    +0.000 A 
ATOM      4  N   UNL     1       1.934   7.623  20.221  0.00  0.00    +0.000 NA
ATOM      5  C   UNL     1       1.142   8.691  20.601  0.00  0.00    +0.000 A 
ATOM      6  C   UNL     1       0.594   8.899  21.884  0.00  0.00    +0.000 A 
ATOM      7  C   UNL     1      -0.191  10.034  22.133  0.00  0.00    +0.000 A 
ATOM      8  C   UNL     1      -0.437  10.967  21.119  0.00  0.00    +0.000 A 
ATOM      9  C   UNL     1       0.094  10.768  19.832  0.00  0.00    +0.000 A 
ATOM     10  C   UNL     1       0.880   9.624  19.601  0.00  0.00    +0.000 A 
ATOM     11  S   UNL     1       1.665   9.124  18.157  0.00  0.00    +0.000 S 
BRANCH   8  12
ATOM     12  C   UNL     1      -1.180  12.232  21.370  0.00  0.00    +0.000 C 
ATOM     13  O   UNL     1      -1.556  12.580  22.480  0.00  0.00    +0.000 OA
BRANCH  12  14
ATOM     14  O   UNL     1      -1.464  12.851  20.199  0.00  0.00    +0.000 OA
BRANCH  14  15
ATOM     15  C   UNL     1      -1.291  14.276  20.196  0.00  0.00    +0.000 C 
ATOM     16  C   UNL     1      -0.244  14.613  19.150  0.00  0.00    +0.000 C 
ENDBRANCH  14  15
ENDBRANCH  12  14
ENDBRANCH   8  12
ENDBRANCH   2   3
BRANCH   1  17
ATOM     17  C   UNL     1       4.507   4.883  18.257  0.00  0.00    +0.000 C 
ATOM     18  C   UNL     1       5.421   5.168  17.301  0.00  0.00    +0.000 C 
BRANCH  17  19
ATOM     19  C   UNL     1       4.303   3.506  18.799  0.00  0.00    +0.000 C 
ATOM     20  O   UNL     1       5.065   2.993  19.608  0.00  0.00    +0.000 OA
BRANCH  19  21
ATOM     21  O   UNL     1       3.340   2.834  18.125  0.00  0.00    +0.000 OA
BRANCH  21  23
ATOM     22  C   UNL     1       1.055   2.527  18.708  0.00  0.00    +0.000 C 
ATOM     23  C   UNL     1       2.475   2.024  18.924  0.00  0.00    +0.000 C 
ENDBRANCH  21  23
ENDBRANCH  19  21
ENDBRANCH  17  19
BRANCH  18  24
ATOM     24  O   UNL     1       5.700   6.456  16.877  0.00  0.00    +0.000 OA
ATOM     25  H   UNL     1       5.071   6.693  16.164  0.00  0.00    +0.000 HD
ENDBRANCH  18  24
BRANCH  18  26
ATOM     26  O   UNL     1       6.089   4.147  16.652  0.00  0.00    +0.000 OA
BRANCH  26  27
ATOM     27  C   UNL     1       6.820   4.551  15.495  0.00  0.00    +0.000 C 
ATOM     28  C   UNL     1       6.123   3.947  14.286  0.00  0.00    +0.000 C 
ENDBRANCH  26  27
ENDBRANCH  18  26
ENDBRANCH   1  17
TORSDOF 11
ENDMDL
MODEL 7
REMARK VINA RESULT:      -6.5      1.079      1.478
REMARK  Name = 
REMARK  14 active torsions:
REMARK  status: ('A' for Active; 'I' for Inactive)
REMARK    1  A    between atoms: C_1  and  C_2
REMARK    2  A    between atoms: C_2  and  O_3
REMARK    3  A    between atoms: O_3  and  C_4
REMARK    4  A    between atoms: C_4  and  C_6
REMARK    5  A    between atoms: C_6  and  C_7
REMARK    6  A    between atoms: N_8  and  C_9
REMARK    7  A    between atoms: C_14  and  C_15
REMARK    8  A    between atoms: C_15  and  O_17
REMARK    9  A    between atoms: O_17  and  C_18
REMARK   10  A    between atoms: C_18  and  C_19
REMARK   11  A    between atoms: C_23  and  O_24
REMARK   12  A    between atoms: C_23  and  O_25
REMARK   13  A    between atoms: O_25  and  C_26
REMARK   14  A    between atoms: C_26  and  C_27
REMARK                            x       y       z     vdW  Elec       q    Type
REMARK                         _______ _______ _______ _____ _____    ______ ____
ROOT
ATOM      1  C   UNL     1       2.752   6.249  18.675  0.00  0.00    +0.000 C 
ATOM      2  N   UNL     1       2.442   7.435  18.248  0.00  0.00    +0.000 NA
ENDROOT
BRANCH   2   3
ATOM      3  C   UNL     1       1.809   8.230  19.161  0.00  0.00    +0.000 A 
ATOM      4  N   UNL     1       1.580   7.991  20.435  0.00  0.00    +0.000 NA
ATOM      5  C   UNL     1       0.857   9.019  21.011  0.00  0.00    +0.000 A 
ATOM      6  C   UNL     1       0.421   9.074  22.351  0.00  0.00    +0.000 A 
ATOM      7  C   UNL     1      -0.305  10.185  22.806  0.00  0.00    +0.000 A 
ATOM      8  C   UNL     1      -0.600  11.245  21.940  0.00  0.00    +0.000 A 
ATOM      9  C   UNL     1      -0.181  11.200  20.599  0.00  0.00    +0.000 A 
ATOM     10  C   UNL     1       0.546  10.078  20.161  0.00  0.00    +0.000 A 
ATOM     11  S   UNL     1       1.197   9.748  18.605  0.00  0.00    +0.000 S 
BRANCH   8  12
ATOM     12  C   UNL     1      -1.279  12.484  22.409  0.00  0.00    +0.000 C 
ATOM     13  O   UNL     1      -1.181  12.911  23.550  0.00  0.00    +0.000 OA
BRANCH  12  14
ATOM     14  O   UNL     1      -2.084  12.976  21.437  0.00  0.00    +0.000 OA
BRANCH  14  15
ATOM     15  C   UNL     1      -2.139  14.407  21.346  0.00  0.00    +0.000 C 
ATOM     16  C   UNL     1      -1.175  14.840  20.257  0.00  0.00    +0.000 C 
ENDBRANCH  14  15
ENDBRANCH  12  14
ENDBRANCH   8  12
ENDBRANCH   2   3
BRANCH   1  17
ATOM     17  C   UNL     1       3.406   5.204  17.825  0.00  0.00    +0.000 C 
ATOM     18  C   UNL     1       4.522   5.486  17.113  0.00  0.00    +0.000 C 
BRANCH  17  19
ATOM     19  C   UNL     1       2.793   3.842  17.868  0.00  0.00    +0.000 C 
ATOM     20  O   UNL     1       2.046   3.425  16.992  0.00  0.00    +0.000 OA
BRANCH  19  21
ATOM     21  O   UNL     1       2.970   3.245  19.070  0.00  0.00    +0.000 OA
BRANCH  21  23
ATOM     22  C   UNL     1       1.177   3.068  20.623  0.00  0.00    +0.000 C 
ATOM     23  C   UNL     1       1.917   2.374  19.488  0.00  0.00    +0.000 C 
ENDBRANCH  21  23
ENDBRANCH  19  21
ENDBRANCH  17  19
BRANCH  18  24
ATOM     24  O   UNL     1       5.164   6.711  17.160  0.00  0.00    +0.000 OA
ATOM     25  H   UNL     1       4.515   7.411  16.940  0.00  0.00    +0.000 HD
ENDBRANCH  18  24
BRANCH  18  26
ATOM     26  O   UNL     1       5.045   4.548  16.242  0.00  0.00    +0.000 OA
BRANCH  26  27
ATOM     27  C   UNL     1       5.586   5.088  15.036  0.00  0.00    +0.000 C 
ATOM     28  C   UNL     1       6.032   3.916  14.177  0.00  0.00    +0.000 C 
ENDBRANCH  26  27
ENDBRANCH  18  26
ENDBRANCH   1  17
TORSDOF 11
ENDMDL
MODEL 8
REMARK VINA RESULT:      -6.5      1.523      2.188
REMARK  Name = 
REMARK  14 active torsions:
REMARK  status: ('A' for Active; 'I' for Inactive)
REMARK    1  A    between atoms: C_1  and  C_2
REMARK    2  A    between atoms: C_2  and  O_3
REMARK    3  A    between atoms: O_3  and  C_4
REMARK    4  A    between atoms: C_4  and  C_6
REMARK    5  A    between atoms: C_6  and  C_7
REMARK    6  A    between atoms: N_8  and  C_9
REMARK    7  A    between atoms: C_14  and  C_15
REMARK    8  A    between atoms: C_15  and  O_17
REMARK    9  A    between atoms: O_17  and  C_18
REMARK   10  A    between atoms: C_18  and  C_19
REMARK   11  A    between atoms: C_23  and  O_24
REMARK   12  A    between atoms: C_23  and  O_25
REMARK   13  A    between atoms: O_25  and  C_26
REMARK   14  A    between atoms: C_26  and  C_27
REMARK                            x       y       z     vdW  Elec       q    Type
REMARK                         _______ _______ _______ _____ _____    ______ ____
ROOT
ATOM      1  C   UNL     1       3.469   6.203  18.377  0.00  0.00    +0.000 C 
ATOM      2  N   UNL     1       2.967   7.160  17.658  0.00  0.00    +0.000 NA
ENDROOT
BRANCH   2   3
ATOM      3  C   UNL     1       2.202   8.059  18.346  0.00  0.00    +0.000 A 
ATOM      4  N   UNL     1       1.659   9.176  17.907  0.00  0.00    +0.000 NA
ATOM      5  C   UNL     1       1.003   9.842  18.926  0.00  0.00    +0.000 A 
ATOM      6  C   UNL     1       0.336  11.079  18.810  0.00  0.00    +0.000 A 
ATOM      7  C   UNL     1      -0.295  11.641  19.930  0.00  0.00    +0.000 A 
ATOM      8  C   UNL     1      -0.270  10.984  21.165  0.00  0.00    +0.000 A 
ATOM      9  C   UNL     1       0.401   9.756  21.300  0.00  0.00    +0.000 A 
ATOM     10  C   UNL     1       1.027   9.207  20.166  0.00  0.00    +0.000 A 
ATOM     11  S   UNL     1       1.899   7.734  20.016  0.00  0.00    +0.000 S 
BRANCH   8  12
ATOM     12  C   UNL     1      -1.010  11.498  22.351  0.00  0.00    +0.000 C 
ATOM     13  O   UNL     1      -1.038  10.917  23.426  0.00  0.00    +0.000 OA
BRANCH  12  14
ATOM     14  O   UNL     1      -1.716  12.605  22.020  0.00  0.00    +0.000 OA
BRANCH  14  15
ATOM     15  C   UNL     1      -3.118  12.558  22.324  0.00  0.00    +0.000 C 
ATOM     16  C   UNL     1      -3.862  13.218  21.177  0.00  0.00    +0.000 C 
ENDBRANCH  14  15
ENDBRANCH  12  14
ENDBRANCH   8  12
ENDBRANCH   2   3
BRANCH   1  17
ATOM     17  C   UNL     1       4.297   5.088  17.816  0.00  0.00    +0.000 C 
ATOM     18  C   UNL     1       4.952   5.232  16.640  0.00  0.00    +0.000 C 
BRANCH  17  19
ATOM     19  C   UNL     1       4.400   3.857  18.657  0.00  0.00    +0.000 C 
ATOM     20  O   UNL     1       5.369   3.620  19.366  0.00  0.00    +0.000 OA
BRANCH  19  21
ATOM     21  O   UNL     1       3.432   2.959  18.359  0.00  0.00    +0.000 OA
BRANCH  21  23
ATOM     22  C   UNL     1       1.162   2.331  18.694  0.00  0.00    +0.000 C 
ATOM     23  C   UNL     1       2.458   2.738  19.381  0.00  0.00    +0.000 C 
ENDBRANCH  21  23
ENDBRANCH  19  21
ENDBRANCH  17  19
BRANCH  18  24
ATOM     24  O   UNL     1       4.957   6.410  15.914  0.00  0.00    +0.000 OA
ATOM     25  H   UNL     1       4.594   7.125  16.477  0.00  0.00    +0.000 HD
ENDBRANCH  18  24
BRANCH  18  26
ATOM     26  O   UNL     1       5.613   4.157  16.077  0.00  0.00    +0.000 OA
BRANCH  26  27
ATOM     27  C   UNL     1       6.583   4.502  15.089  0.00  0.00    +0.000 C 
ATOM     28  C   UNL     1       6.099   3.937  13.763  0.00  0.00    +0.000 C 
ENDBRANCH  26  27
ENDBRANCH  18  26
ENDBRANCH   1  17
TORSDOF 11
ENDMDL
MODEL 9
REMARK VINA RESULT:      -6.5      2.704      9.927
REMARK  Name = 
REMARK  14 active torsions:
REMARK  status: ('A' for Active; 'I' for Inactive)
REMARK    1  A    between atoms: C_1  and  C_2
REMARK    2  A    between atoms: C_2  and  O_3
REMARK    3  A    between atoms: O_3  and  C_4
REMARK    4  A    between atoms: C_4  and  C_6
REMARK    5  A    between atoms: C_6  and  C_7
REMARK    6  A    between atoms: N_8  and  C_9
REMARK    7  A    between atoms: C_14  and  C_15
REMARK    8  A    between atoms: C_15  and  O_17
REMARK    9  A    between atoms: O_17  and  C_18
REMARK   10  A    between atoms: C_18  and  C_19
REMARK   11  A    between atoms: C_23  and  O_24
REMARK   12  A    between atoms: C_23  and  O_25
REMARK   13  A    between atoms: O_25  and  C_26
REMARK   14  A    between atoms: C_26  and  C_27
REMARK                            x       y       z     vdW  Elec       q    Type
REMARK                         _______ _______ _______ _____ _____    ______ ____
ROOT
ATOM      1  C   UNL     1       1.445   9.088  19.079  0.00  0.00    +0.000 C 
ATOM      2  N   UNL     1       1.785   7.960  19.625  0.00  0.00    +0.000 NA
ENDROOT
BRANCH   2   3
ATOM      3  C   UNL     1       2.700   7.230  18.922  0.00  0.00    +0.000 A 
ATOM      4  N   UNL     1       3.284   6.100  19.265  0.00  0.00    +0.000 NA
ATOM      5  C   UNL     1       4.197   5.703  18.306  0.00  0.00    +0.000 A 
ATOM      6  C   UNL     1       5.014   4.554  18.367  0.00  0.00    +0.000 A 
ATOM      7  C   UNL     1       5.898   4.268  17.316  0.00  0.00    +0.000 A 
ATOM      8  C   UNL     1       5.977   5.112  16.203  0.00  0.00    +0.000 A 
ATOM      9  C   UNL     1       5.178   6.266  16.132  0.00  0.00    +0.000 A 
ATOM     10  C   UNL     1       4.297   6.537  17.195  0.00  0.00    +0.000 A 
ATOM     11  S   UNL     1       3.198   7.845  17.385  0.00  0.00    +0.000 S 
BRANCH   8  12
ATOM     12  C   UNL     1       6.828   4.790  15.024  0.00  0.00    +0.000 C 
ATOM     13  O   UNL     1       7.830   5.424  14.727  0.00  0.00    +0.000 OA
BRANCH  12  14
ATOM     14  O   UNL     1       6.266   3.794  14.297  0.00  0.00    +0.000 OA
BRANCH  14  15
ATOM     15  C   UNL     1       6.512   3.848  12.884  0.00  0.00    +0.000 C 
ATOM     16  C   UNL     1       5.295   3.275  12.180  0.00  0.00    +0.000 C 
ENDBRANCH  14  15
ENDBRANCH  12  14
ENDBRANCH   8  12
ENDBRANCH   2   3
BRANCH   1  17
ATOM     17  C   UNL     1       0.423  10.017  19.658  0.00  0.00    +0.000 C 
ATOM     18  C   UNL     1       0.286  10.152  20.998  0.00  0.00    +0.000 C 
BRANCH  17  19
ATOM     19  C   UNL     1      -0.372  10.816  18.677  0.00  0.00    +0.000 C 
ATOM     20  O   UNL     1      -0.623  12.003  18.839  0.00  0.00    +0.000 OA
BRANCH  19  21
ATOM     21  O   UNL     1      -0.959  10.030  17.743  0.00  0.00    +0.000 OA
BRANCH  21  23
ATOM     22  C   UNL     1      -2.795  10.786  16.433  0.00  0.00    +0.000 C 
ATOM     23  C   UNL     1      -2.387  10.069  17.712  0.00  0.00    +0.000 C 
ENDBRANCH  21  23
ENDBRANCH  19  21
ENDBRANCH  17  19
BRANCH  18  24
ATOM     24  O   UNL     1       1.098   9.505  21.913  0.00  0.00    +0.000 OA
ATOM     25  H   UNL     1       0.603   9.405  22.753  0.00  0.00    +0.000 HD
ENDBRANCH  18  24
BRANCH  18  26
ATOM     26  O   UNL     1      -0.738  10.922  21.517  0.00  0.00    +0.000 OA
BRANCH  26  27
ATOM     27  C   UNL     1      -0.944  10.775  22.922  0.00  0.00    +0.000 C 
ATOM     28  C   UNL     1      -2.069  11.718  23.315  0.00  0.00    +0.000 C 
ENDBRANCH  26  27
ENDBRANCH  18  26
ENDBRANCH   1  17
TORSDOF 11
ENDMDL
