MODEL 1
REMARK VINA RESULT:      -7.0      0.000      0.000
REMARK  Name = 
REMARK  1 active torsions:
REMARK  status: ('A' for Active; 'I' for Inactive)
REMARK    1  A    between atoms: C_10  and  C_11
REMARK                            x       y       z     vdW  Elec       q    Type
REMARK                         _______ _______ _______ _____ _____    ______ ____
ROOT
ATOM      1  N   UNL     1      -7.630   9.107  19.287  0.00  0.00    +0.000 N 
ATOM      2  C   UNL     1      -6.872  10.237  19.528  0.00  0.00    +0.000 A 
ATOM      3  N   UNL     1      -5.994  10.611  18.613  0.00  0.00    +0.000 NA
ATOM      4  C   UNL     1      -5.232  11.695  18.896  0.00  0.00    +0.000 A 
ATOM      5  N   UNL     1      -4.307  12.010  17.890  0.00  0.00    +0.000 N 
ATOM      6  C   UNL     1      -5.287  12.403  20.105  0.00  0.00    +0.000 A 
ATOM      7  C   UNL     1      -6.255  11.883  20.998  0.00  0.00    +0.000 A 
ATOM      8  N   UNL     1      -7.043  10.829  20.700  0.00  0.00    +0.000 NA
ATOM      9  N   UNL     1      -6.491  12.308  22.286  0.00  0.00    +0.000 N 
ATOM     10  C   UNL     1      -5.566  13.095  23.094  0.00  0.00    +0.000 C 
ATOM     11  C   UNL     1      -4.141  12.739  22.622  0.00  0.00    +0.000 C 
ATOM     12  C   UNL     1      -2.866  12.519  23.456  0.00  0.00    +0.000 C 
ATOM     13  C   UNL     1      -1.645  12.487  22.436  0.00  0.00    +0.000 C 
ATOM     14  C   UNL     1      -1.461  13.891  21.808  0.00  0.00    +0.000 A 
ATOM     15  C   UNL     1      -0.235  14.509  22.032  0.00  0.00    +0.000 A 
ATOM     16  C   UNL     1      -0.209  15.547  22.948  0.00  0.00    +0.000 A 
ATOM     17  C   UNL     1      -1.427  16.019  23.441  0.00  0.00    +0.000 A 
ATOM     18  C   UNL     1      -2.650  15.604  22.856  0.00  0.00    +0.000 A 
ATOM     19  C   UNL     1      -2.665  14.614  21.852  0.00  0.00    +0.000 A 
ATOM     20  C   UNL     1      -3.831  13.693  21.515  0.00  0.00    +0.000 C 
ATOM     21  N   UNL     1      -4.368  13.530  20.335  0.00  0.00    +0.000 NA
ATOM     22  H   UNL     1      -7.144   8.488  18.656  0.00  0.00    +0.000 HD
ATOM     23  H   UNL     1      -7.933   8.715  20.171  0.00  0.00    +0.000 HD
ATOM     24  H   UNL     1      -4.526  11.420  17.094  0.00  0.00    +0.000 HD
ATOM     25  H   UNL     1      -4.353  13.005  17.679  0.00  0.00    +0.000 HD
ATOM     26  H   UNL     1      -7.218  11.779  22.751  0.00  0.00    +0.000 HD
ENDROOT
BRANCH  10  27
ATOM     27  C   UNL     1      -6.112  14.539  23.046  0.00  0.00    +0.000 A 
ATOM     28  C   UNL     1      -5.658  15.512  23.941  0.00  0.00    +0.000 A 
ATOM     29  C   UNL     1      -6.223  16.800  23.959  0.00  0.00    +0.000 A 
ATOM     30  C   UNL     1      -7.249  17.142  23.079  0.00  0.00    +0.000 A 
ATOM     31  C   UNL     1      -7.714  16.204  22.171  0.00  0.00    +0.000 A 
ATOM     32  C   UNL     1      -7.157  14.925  22.165  0.00  0.00    +0.000 A 
ENDBRANCH  10  27
TORSDOF 1
ENDMDL
MODEL 2
REMARK VINA RESULT:      -6.9      3.585      6.865
REMARK  Name = 
REMARK  1 active torsions:
REMARK  status: ('A' for Active; 'I' for Inactive)
REMARK    1  A    between atoms: C_10  and  C_11
REMARK                            x       y       z     vdW  Elec       q    Type
REMARK                         _______ _______ _______ _____ _____    ______ ____
ROOT
ATOM      1  N   UNL     1      -5.175  13.288  24.348  0.00  0.00    +0.000 N 
ATOM      2  C   UNL     1      -3.881  13.269  23.860  0.00  0.00    +0.000 A 
ATOM      3  N   UNL     1      -3.006  14.119  24.371  0.00  0.00    +0.000 NA
ATOM      4  C   UNL     1      -1.759  14.112  23.843  0.00  0.00    +0.000 A 
ATOM      5  N   UNL     1      -0.899  15.059  24.418  0.00  0.00    +0.000 N 
ATOM      6  C   UNL     1      -1.362  13.301  22.771  0.00  0.00    +0.000 A 
ATOM      7  C   UNL     1      -2.401  12.457  22.311  0.00  0.00    +0.000 A 
ATOM      8  N   UNL     1      -3.633  12.435  22.864  0.00  0.00    +0.000 NA
ATOM      9  N   UNL     1      -2.348  11.609  21.228  0.00  0.00    +0.000 N 
ATOM     10  C   UNL     1      -1.374  11.689  20.146  0.00  0.00    +0.000 C 
ATOM     11  C   UNL     1      -0.966  13.171  20.015  0.00  0.00    +0.000 C 
ATOM     12  C   UNL     1      -0.721  14.006  18.745  0.00  0.00    +0.000 C 
ATOM     13  C   UNL     1      -0.031  15.363  19.210  0.00  0.00    +0.000 C 
ATOM     14  C   UNL     1       1.387  15.060  19.754  0.00  0.00    +0.000 A 
ATOM     15  C   UNL     1       2.446  15.669  19.087  0.00  0.00    +0.000 A 
ATOM     16  C   UNL     1       3.216  14.869  18.261  0.00  0.00    +0.000 A 
ATOM     17  C   UNL     1       3.000  13.490  18.294  0.00  0.00    +0.000 A 
ATOM     18  C   UNL     1       2.181  12.913  19.297  0.00  0.00    +0.000 A 
ATOM     19  C   UNL     1       1.472  13.730  20.201  0.00  0.00    +0.000 A 
ATOM     20  C   UNL     1       0.193  13.354  20.940  0.00  0.00    +0.000 C 
ATOM     21  N   UNL     1       0.003  13.417  22.231  0.00  0.00    +0.000 NA
ATOM     22  H   UNL     1      -5.394  14.198  24.722  0.00  0.00    +0.000 HD
ATOM     23  H   UNL     1      -5.801  12.920  23.641  0.00  0.00    +0.000 HD
ATOM     24  H   UNL     1      -1.384  15.447  25.221  0.00  0.00    +0.000 HD
ATOM     25  H   UNL     1      -0.013  14.621  24.657  0.00  0.00    +0.000 HD
ATOM     26  H   UNL     1      -3.217  11.114  21.069  0.00  0.00    +0.000 HD
ENDROOT
BRANCH  10  27
ATOM     27  C   UNL     1      -0.346  10.575  20.440  0.00  0.00    +0.000 A 
ATOM     28  C   UNL     1       0.434  10.024  19.419  0.00  0.00    +0.000 A 
ATOM     29  C   UNL     1       1.301   8.946  19.672  0.00  0.00    +0.000 A 
ATOM     30  C   UNL     1       1.411   8.401  20.951  0.00  0.00    +0.000 A 
ATOM     31  C   UNL     1       0.661   8.932  21.987  0.00  0.00    +0.000 A 
ATOM     32  C   UNL     1      -0.206   9.995  21.729  0.00  0.00    +0.000 A 
ENDBRANCH  10  27
TORSDOF 1
ENDMDL
MODEL 3
REMARK VINA RESULT:      -6.8      3.659      6.933
REMARK  Name = 
REMARK  1 active torsions:
REMARK  status: ('A' for Active; 'I' for Inactive)
REMARK    1  A    between atoms: C_10  and  C_11
REMARK                            x       y       z     vdW  Elec       q    Type
REMARK                         _______ _______ _______ _____ _____    ______ ____
ROOT
ATOM      1  N   UNL     1      -4.548  15.562  24.957  0.00  0.00    +0.000 N 
ATOM      2  C   UNL     1      -3.347  15.183  24.387  0.00  0.00    +0.000 A 
ATOM      3  N   UNL     1      -2.274  15.914  24.642  0.00  0.00    +0.000 NA
ATOM      4  C   UNL     1      -1.120  15.548  24.034  0.00  0.00    +0.000 A 
ATOM      5  N   UNL     1      -0.037  16.387  24.333  0.00  0.00    +0.000 N 
ATOM      6  C   UNL     1      -1.010  14.485  23.127  0.00  0.00    +0.000 A 
ATOM      7  C   UNL     1      -2.237  13.804  22.933  0.00  0.00    +0.000 A 
ATOM      8  N   UNL     1      -3.377  14.144  23.570  0.00  0.00    +0.000 NA
ATOM      9  N   UNL     1      -2.470  12.775  22.049  0.00  0.00    +0.000 N 
ATOM     10  C   UNL     1      -1.631  12.446  20.902  0.00  0.00    +0.000 C 
ATOM     11  C   UNL     1      -0.969  13.760  20.436  0.00  0.00    +0.000 C 
ATOM     12  C   UNL     1      -0.720  14.271  19.006  0.00  0.00    +0.000 C 
ATOM     13  C   UNL     1       0.263  15.517  19.124  0.00  0.00    +0.000 C 
ATOM     14  C   UNL     1       1.651  15.034  19.610  0.00  0.00    +0.000 A 
ATOM     15  C   UNL     1       2.721  15.274  18.753  0.00  0.00    +0.000 A 
ATOM     16  C   UNL     1       3.226  14.189  18.055  0.00  0.00    +0.000 A 
ATOM     17  C   UNL     1       2.759  12.917  18.390  0.00  0.00    +0.000 A 
ATOM     18  C   UNL     1       1.969  12.722  19.551  0.00  0.00    +0.000 A 
ATOM     19  C   UNL     1       1.536  13.824  20.316  0.00  0.00    +0.000 A 
ATOM     20  C   UNL     1       0.304  13.868  21.212  0.00  0.00    +0.000 C 
ATOM     21  N   UNL     1       0.280  14.211  22.472  0.00  0.00    +0.000 NA
ATOM     22  H   UNL     1      -4.547  16.552  25.150  0.00  0.00    +0.000 HD
ATOM     23  H   UNL     1      -5.310  15.205  24.392  0.00  0.00    +0.000 HD
ATOM     24  H   UNL     1      -0.343  17.011  25.072  0.00  0.00    +0.000 HD
ATOM     25  H   UNL     1       0.773  15.827  24.590  0.00  0.00    +0.000 HD
ATOM     26  H   UNL     1      -3.429  12.451  22.062  0.00  0.00    +0.000 HD
ENDROOT
BRANCH  10  27
ATOM     27  C   UNL     1      -0.804  11.219  21.343  0.00  0.00    +0.000 A 
ATOM     28  C   UNL     1      -0.152  10.413  20.404  0.00  0.00    +0.000 A 
ATOM     29  C   UNL     1       0.522   9.242  20.798  0.00  0.00    +0.000 A 
ATOM     30  C   UNL     1       0.563   8.858  22.138  0.00  0.00    +0.000 A 
ATOM     31  C   UNL     1      -0.062   9.642  23.094  0.00  0.00    +0.000 A 
ATOM     32  C   UNL     1      -0.738  10.796  22.697  0.00  0.00    +0.000 A 
ENDBRANCH  10  27
TORSDOF 1
ENDMDL
MODEL 4
REMARK VINA RESULT:      -6.7      3.828      5.965
REMARK  Name = 
REMARK  1 active torsions:
REMARK  status: ('A' for Active; 'I' for Inactive)
REMARK    1  A    between atoms: C_10  and  C_11
REMARK                            x       y       z     vdW  Elec       q    Type
REMARK                         _______ _______ _______ _____ _____    ______ ____
ROOT
ATOM      1  N   UNL     1      -3.665   9.954  14.540  0.00  0.00    +0.000 N 
ATOM      2  C   UNL     1      -3.422  10.479  15.796  0.00  0.00    +0.000 A 
ATOM      3  N   UNL     1      -4.366  11.209  16.363  0.00  0.00    +0.000 NA
ATOM      4  C   UNL     1      -4.084  11.750  17.573  0.00  0.00    +0.000 A 
ATOM      5  N   UNL     1      -5.124  12.533  18.095  0.00  0.00    +0.000 N 
ATOM      6  C   UNL     1      -2.850  11.622  18.225  0.00  0.00    +0.000 A 
ATOM      7  C   UNL     1      -1.928  10.832  17.497  0.00  0.00    +0.000 A 
ATOM      8  N   UNL     1      -2.223  10.259  16.310  0.00  0.00    +0.000 NA
ATOM      9  N   UNL     1      -0.615  10.589  17.832  0.00  0.00    +0.000 N 
ATOM     10  C   UNL     1       0.172  11.380  18.771  0.00  0.00    +0.000 C 
ATOM     11  C   UNL     1      -0.384  12.818  18.726  0.00  0.00    +0.000 C 
ATOM     12  C   UNL     1       0.376  14.157  18.752  0.00  0.00    +0.000 C 
ATOM     13  C   UNL     1      -0.706  15.298  18.995  0.00  0.00    +0.000 C 
ATOM     14  C   UNL     1      -1.292  15.157  20.422  0.00  0.00    +0.000 A 
ATOM     15  C   UNL     1      -1.109  16.243  21.272  0.00  0.00    +0.000 A 
ATOM     16  C   UNL     1      -0.159  16.110  22.271  0.00  0.00    +0.000 A 
ATOM     17  C   UNL     1       0.412  14.852  22.472  0.00  0.00    +0.000 A 
ATOM     18  C   UNL     1      -0.125  13.707  21.830  0.00  0.00    +0.000 A 
ATOM     19  C   UNL     1      -1.161  13.836  20.883  0.00  0.00    +0.000 A 
ATOM     20  C   UNL     1      -1.471  12.864  19.750  0.00  0.00    +0.000 C 
ATOM     21  N   UNL     1      -2.626  12.304  19.511  0.00  0.00    +0.000 NA
ATOM     22  H   UNL     1      -4.341  10.519  14.049  0.00  0.00    +0.000 HD
ATOM     23  H   UNL     1      -2.781   9.787  14.073  0.00  0.00    +0.000 HD
ATOM     24  H   UNL     1      -5.929  12.393  17.493  0.00  0.00    +0.000 HD
ATOM     25  H   UNL     1      -5.298  12.274  19.064  0.00  0.00    +0.000 HD
ATOM     26  H   UNL     1      -0.133  10.013  17.154  0.00  0.00    +0.000 HD
ENDROOT
BRANCH  10  27
ATOM     27  C   UNL     1       0.204  10.550  20.074  0.00  0.00    +0.000 A 
ATOM     28  C   UNL     1       1.140  10.818  21.077  0.00  0.00    +0.000 A 
ATOM     29  C   UNL     1       1.230  10.003  22.220  0.00  0.00    +0.000 A 
ATOM     30  C   UNL     1       0.382   8.908  22.385  0.00  0.00    +0.000 A 
ATOM     31  C   UNL     1      -0.564   8.623  21.415  0.00  0.00    +0.000 A 
ATOM     32  C   UNL     1      -0.642   9.428  20.278  0.00  0.00    +0.000 A 
ENDBRANCH  10  27
TORSDOF 1
ENDMDL
MODEL 5
REMARK VINA RESULT:      -6.7      3.977      6.620
REMARK  Name = 
REMARK  1 active torsions:
REMARK  status: ('A' for Active; 'I' for Inactive)
REMARK    1  A    between atoms: C_10  and  C_11
REMARK                            x       y       z     vdW  Elec       q    Type
REMARK                         _______ _______ _______ _____ _____    ______ ____
ROOT
ATOM      1  N   UNL     1       0.644  17.864  17.416  0.00  0.00    +0.000 N 
ATOM      2  C   UNL     1       0.713  16.820  18.319  0.00  0.00    +0.000 A 
ATOM      3  N   UNL     1       1.905  16.355  18.651  0.00  0.00    +0.000 NA
ATOM      4  C   UNL     1       1.942  15.301  19.502  0.00  0.00    +0.000 A 
ATOM      5  N   UNL     1       3.239  14.849  19.783  0.00  0.00    +0.000 N 
ATOM      6  C   UNL     1       0.804  14.654  20.004  0.00  0.00    +0.000 A 
ATOM      7  C   UNL     1      -0.402  15.242  19.552  0.00  0.00    +0.000 A 
ATOM      8  N   UNL     1      -0.438  16.318  18.737  0.00  0.00    +0.000 NA
ATOM      9  N   UNL     1      -1.678  14.790  19.803  0.00  0.00    +0.000 N 
ATOM     10  C   UNL     1      -2.018  13.444  20.250  0.00  0.00    +0.000 C 
ATOM     11  C   UNL     1      -0.933  12.497  19.696  0.00  0.00    +0.000 C 
ATOM     12  C   UNL     1      -1.084  11.087  19.096  0.00  0.00    +0.000 C 
ATOM     13  C   UNL     1       0.379  10.472  18.984  0.00  0.00    +0.000 C 
ATOM     14  C   UNL     1       0.946  10.230  20.405  0.00  0.00    +0.000 A 
ATOM     15  C   UNL     1       1.270   8.915  20.722  0.00  0.00    +0.000 A 
ATOM     16  C   UNL     1       0.412   8.241  21.574  0.00  0.00    +0.000 A 
ATOM     17  C   UNL     1      -0.605   8.969  22.195  0.00  0.00    +0.000 A 
ATOM     18  C   UNL     1      -0.617  10.385  22.132  0.00  0.00    +0.000 A 
ATOM     19  C   UNL     1       0.322  11.076  21.338  0.00  0.00    +0.000 A 
ATOM     20  C   UNL     1       0.141  12.463  20.734  0.00  0.00    +0.000 C 
ATOM     21  N   UNL     1       0.955  13.476  20.873  0.00  0.00    +0.000 NA
ATOM     22  H   UNL     1       1.459  17.867  16.822  0.00  0.00    +0.000 HD
ATOM     23  H   UNL     1      -0.259  17.847  16.957  0.00  0.00    +0.000 HD
ATOM     24  H   UNL     1       3.880  15.528  19.384  0.00  0.00    +0.000 HD
ATOM     25  H   UNL     1       3.354  14.731  20.787  0.00  0.00    +0.000 HD
ATOM     26  H   UNL     1      -2.393  15.354  19.362  0.00  0.00    +0.000 HD
ENDROOT
BRANCH  10  27
ATOM     27  C   UNL     1      -2.301  13.577  21.762  0.00  0.00    +0.000 A 
ATOM     28  C   UNL     1      -3.107  12.650  22.430  0.00  0.00    +0.000 A 
ATOM     29  C   UNL     1      -3.441  12.824  23.786  0.00  0.00    +0.000 A 
ATOM     30  C   UNL     1      -2.971  13.925  24.501  0.00  0.00    +0.000 A 
ATOM     31  C   UNL     1      -2.160  14.855  23.872  0.00  0.00    +0.000 A 
ATOM     32  C   UNL     1      -1.841  14.683  22.525  0.00  0.00    +0.000 A 
ENDBRANCH  10  27
TORSDOF 1
ENDMDL
MODEL 6
REMARK VINA RESULT:      -6.7      3.523      6.857
REMARK  Name = 
REMARK  1 active torsions:
REMARK  status: ('A' for Active; 'I' for Inactive)
REMARK    1  A    between atoms: C_10  and  C_11
REMARK                            x       y       z     vdW  Elec       q    Type
REMARK                         _______ _______ _______ _____ _____    ______ ____
ROOT
ATOM      1  N   UNL     1      -4.843  14.981  24.623  0.00  0.00    +0.000 N 
ATOM      2  C   UNL     1      -3.595  14.682  24.108  0.00  0.00    +0.000 A 
ATOM      3  N   UNL     1      -2.573  15.444  24.459  0.00  0.00    +0.000 NA
ATOM      4  C   UNL     1      -1.372  15.157  23.904  0.00  0.00    +0.000 A 
ATOM      5  N   UNL     1      -0.346  16.026  24.303  0.00  0.00    +0.000 N 
ATOM      6  C   UNL     1      -1.163  14.146  22.956  0.00  0.00    +0.000 A 
ATOM      7  C   UNL     1      -2.344  13.424  22.659  0.00  0.00    +0.000 A 
ATOM      8  N   UNL     1      -3.533  13.683  23.243  0.00  0.00    +0.000 NA
ATOM      9  N   UNL     1      -2.480  12.430  21.716  0.00  0.00    +0.000 N 
ATOM     10  C   UNL     1      -1.563  12.193  20.607  0.00  0.00    +0.000 C 
ATOM     11  C   UNL     1      -0.936  13.555  20.242  0.00  0.00    +0.000 C 
ATOM     12  C   UNL     1      -0.629  14.145  18.854  0.00  0.00    +0.000 C 
ATOM     13  C   UNL     1       0.288  15.425  19.087  0.00  0.00    +0.000 C 
ATOM     14  C   UNL     1       1.667  14.978  19.631  0.00  0.00    +0.000 A 
ATOM     15  C   UNL     1       2.772  15.304  18.850  0.00  0.00    +0.000 A 
ATOM     16  C   UNL     1       3.364  14.277  18.134  0.00  0.00    +0.000 A 
ATOM     17  C   UNL     1       2.937  12.971  18.381  0.00  0.00    +0.000 A 
ATOM     18  C   UNL     1       2.091  12.687  19.484  0.00  0.00    +0.000 A 
ATOM     19  C   UNL     1       1.566  13.731  20.272  0.00  0.00    +0.000 A 
ATOM     20  C   UNL     1       0.285  13.679  21.096  0.00  0.00    +0.000 C 
ATOM     21  N   UNL     1       0.174  13.959  22.367  0.00  0.00    +0.000 NA
ATOM     22  H   UNL     1      -4.898  15.959  24.861  0.00  0.00    +0.000 HD
ATOM     23  H   UNL     1      -5.555  14.620  23.998  0.00  0.00    +0.000 HD
ATOM     24  H   UNL     1      -0.721  16.600  25.052  0.00  0.00    +0.000 HD
ATOM     25  H   UNL     1       0.473  15.489  24.582  0.00  0.00    +0.000 HD
ATOM     26  H   UNL     1      -3.422  12.065  21.658  0.00  0.00    +0.000 HD
ENDROOT
BRANCH  10  27
ATOM     27  C   UNL     1      -0.708  10.982  21.038  0.00  0.00    +0.000 A 
ATOM     28  C   UNL     1      -0.613  10.608  22.382  0.00  0.00    +0.000 A 
ATOM     29  C   UNL     1       0.240   9.564  22.785  0.00  0.00    +0.000 A 
ATOM     30  C   UNL     1       1.010   8.869  21.851  0.00  0.00    +0.000 A 
ATOM     31  C   UNL     1       0.929   9.208  20.511  0.00  0.00    +0.000 A 
ATOM     32  C   UNL     1       0.090  10.251  20.118  0.00  0.00    +0.000 A 
ENDBRANCH  10  27
TORSDOF 1
ENDMDL
MODEL 7
REMARK VINA RESULT:      -6.6      4.228      6.006
REMARK  Name = 
REMARK  1 active torsions:
REMARK  status: ('A' for Active; 'I' for Inactive)
REMARK    1  A    between atoms: C_10  and  C_11
REMARK                            x       y       z     vdW  Elec       q    Type
REMARK                         _______ _______ _______ _____ _____    ______ ____
ROOT
ATOM      1  N   UNL     1       1.595   7.320  21.222  0.00  0.00    +0.000 N 
ATOM      2  C   UNL     1       1.257   8.521  20.626  0.00  0.00    +0.000 A 
ATOM      3  N   UNL     1       1.588   8.707  19.359  0.00  0.00    +0.000 NA
ATOM      4  C   UNL     1       1.286   9.910  18.814  0.00  0.00    +0.000 A 
ATOM      5  N   UNL     1       1.693  10.040  17.478  0.00  0.00    +0.000 N 
ATOM      6  C   UNL     1       0.697  10.969  19.518  0.00  0.00    +0.000 A 
ATOM      7  C   UNL     1       0.415  10.639  20.865  0.00  0.00    +0.000 A 
ATOM      8  N   UNL     1       0.678   9.426  21.398  0.00  0.00    +0.000 NA
ATOM      9  N   UNL     1      -0.086  11.485  21.828  0.00  0.00    +0.000 N 
ATOM     10  C   UNL     1      -0.069  12.942  21.756  0.00  0.00    +0.000 C 
ATOM     11  C   UNL     1       1.159  13.338  20.911  0.00  0.00    +0.000 C 
ATOM     12  C   UNL     1       2.157  14.491  21.124  0.00  0.00    +0.000 C 
ATOM     13  C   UNL     1       3.021  14.607  19.792  0.00  0.00    +0.000 C 
ATOM     14  C   UNL     1       2.115  15.087  18.631  0.00  0.00    +0.000 A 
ATOM     15  C   UNL     1       2.471  16.290  18.030  0.00  0.00    +0.000 A 
ATOM     16  C   UNL     1       1.697  17.399  18.329  0.00  0.00    +0.000 A 
ATOM     17  C   UNL     1       0.521  17.203  19.055  0.00  0.00    +0.000 A 
ATOM     18  C   UNL     1       0.023  15.895  19.280  0.00  0.00    +0.000 A 
ATOM     19  C   UNL     1       0.771  14.766  18.886  0.00  0.00    +0.000 A 
ATOM     20  C   UNL     1       0.682  13.372  19.496  0.00  0.00    +0.000 C 
ATOM     21  N   UNL     1       0.469  12.259  18.845  0.00  0.00    +0.000 NA
ATOM     22  H   UNL     1       2.394   6.914  20.760  0.00  0.00    +0.000 HD
ATOM     23  H   UNL     1       1.664   7.455  22.224  0.00  0.00    +0.000 HD
ATOM     24  H   UNL     1       2.002   9.122  17.174  0.00  0.00    +0.000 HD
ATOM     25  H   UNL     1       0.928  10.412  16.918  0.00  0.00    +0.000 HD
ATOM     26  H   UNL     1      -0.189  11.042  22.732  0.00  0.00    +0.000 HD
ENDROOT
BRANCH  10  27
ATOM     27  C   UNL     1      -1.506  13.346  21.360  0.00  0.00    +0.000 A 
ATOM     28  C   UNL     1      -2.009  14.615  21.664  0.00  0.00    +0.000 A 
ATOM     29  C   UNL     1      -3.347  14.949  21.386  0.00  0.00    +0.000 A 
ATOM     30  C   UNL     1      -4.207  14.024  20.794  0.00  0.00    +0.000 A 
ATOM     31  C   UNL     1      -3.736  12.762  20.470  0.00  0.00    +0.000 A 
ATOM     32  C   UNL     1      -2.411  12.432  20.757  0.00  0.00    +0.000 A 
ENDBRANCH  10  27
TORSDOF 1
ENDMDL
MODEL 8
REMARK VINA RESULT:      -6.5     11.478     13.985
REMARK  Name = 
REMARK  1 active torsions:
REMARK  status: ('A' for Active; 'I' for Inactive)
REMARK    1  A    between atoms: C_10  and  C_11
REMARK                            x       y       z     vdW  Elec       q    Type
REMARK                         _______ _______ _______ _____ _____    ______ ____
ROOT
ATOM      1  N   UNL     1      12.322  12.282  17.236  0.00  0.00    +0.000 N 
ATOM      2  C   UNL     1      11.171  12.671  17.896  0.00  0.00    +0.000 A 
ATOM      3  N   UNL     1      10.044  12.734  17.208  0.00  0.00    +0.000 NA
ATOM      4  C   UNL     1       8.941  13.163  17.868  0.00  0.00    +0.000 A 
ATOM      5  N   UNL     1       7.794  13.229  17.064  0.00  0.00    +0.000 N 
ATOM      6  C   UNL     1       8.937  13.582  19.206  0.00  0.00    +0.000 A 
ATOM      7  C   UNL     1      10.212  13.480  19.813  0.00  0.00    +0.000 A 
ATOM      8  N   UNL     1      11.302  13.014  19.167  0.00  0.00    +0.000 NA
ATOM      9  N   UNL     1      10.547  13.886  21.085  0.00  0.00    +0.000 N 
ATOM     10  C   UNL     1       9.777  14.821  21.898  0.00  0.00    +0.000 C 
ATOM     11  C   UNL     1       9.050  15.772  20.925  0.00  0.00    +0.000 C 
ATOM     12  C   UNL     1       8.825  17.291  21.033  0.00  0.00    +0.000 C 
ATOM     13  C   UNL     1       7.759  17.682  19.918  0.00  0.00    +0.000 C 
ATOM     14  C   UNL     1       6.387  17.061  20.276  0.00  0.00    +0.000 A 
ATOM     15  C   UNL     1       5.339  17.955  20.472  0.00  0.00    +0.000 A 
ATOM     16  C   UNL     1       4.934  18.177  21.778  0.00  0.00    +0.000 A 
ATOM     17  C   UNL     1       5.469  17.365  22.779  0.00  0.00    +0.000 A 
ATOM     18  C   UNL     1       6.224  16.212  22.445  0.00  0.00    +0.000 A 
ATOM     19  C   UNL     1       6.553  15.936  21.102  0.00  0.00    +0.000 A 
ATOM     20  C   UNL     1       7.743  15.115  20.618  0.00  0.00    +0.000 C 
ATOM     21  N   UNL     1       7.694  14.090  19.810  0.00  0.00    +0.000 NA
ATOM     22  H   UNL     1      12.249  12.493  16.252  0.00  0.00    +0.000 HD
ATOM     23  H   UNL     1      13.127  12.654  17.726  0.00  0.00    +0.000 HD
ATOM     24  H   UNL     1       8.030  12.791  16.179  0.00  0.00    +0.000 HD
ATOM     25  H   UNL     1       7.013  12.782  17.539  0.00  0.00    +0.000 HD
ATOM     26  H   UNL     1      11.524  13.737  21.305  0.00  0.00    +0.000 HD
ENDROOT
BRANCH  10  27
ATOM     27  C   UNL     1       9.015  13.943  22.915  0.00  0.00    +0.000 A 
ATOM     28  C   UNL     1       8.583  14.466  24.138  0.00  0.00    +0.000 A 
ATOM     29  C   UNL     1       7.973  13.642  25.102  0.00  0.00    +0.000 A 
ATOM     30  C   UNL     1       7.778  12.283  24.860  0.00  0.00    +0.000 A 
ATOM     31  C   UNL     1       8.184  11.737  23.653  0.00  0.00    +0.000 A 
ATOM     32  C   UNL     1       8.798  12.556  22.705  0.00  0.00    +0.000 A 
ENDBRANCH  10  27
TORSDOF 1
ENDMDL
MODEL 9
REMARK VINA RESULT:      -6.5      2.833      5.379
REMARK  Name = 
REMARK  1 active torsions:
REMARK  status: ('A' for Active; 'I' for Inactive)
REMARK    1  A    between atoms: C_10  and  C_11
REMARK                            x       y       z     vdW  Elec       q    Type
REMARK                         _______ _______ _______ _____ _____    ______ ____
ROOT
ATOM      1  N   UNL     1      -6.256  12.953  24.450  0.00  0.00    +0.000 N 
ATOM      2  C   UNL     1      -5.344  12.972  23.411  0.00  0.00    +0.000 A 
ATOM      3  N   UNL     1      -5.743  12.562  22.219  0.00  0.00    +0.000 NA
ATOM      4  C   UNL     1      -4.817  12.547  21.230  0.00  0.00    +0.000 A 
ATOM      5  N   UNL     1      -5.309  12.074  20.005  0.00  0.00    +0.000 N 
ATOM      6  C   UNL     1      -3.469  12.890  21.408  0.00  0.00    +0.000 A 
ATOM      7  C   UNL     1      -3.178  13.289  22.734  0.00  0.00    +0.000 A 
ATOM      8  N   UNL     1      -4.110  13.344  23.709  0.00  0.00    +0.000 NA
ATOM      9  N   UNL     1      -1.937  13.607  23.240  0.00  0.00    +0.000 N 
ATOM     10  C   UNL     1      -0.664  13.239  22.632  0.00  0.00    +0.000 C 
ATOM     11  C   UNL     1      -0.896  11.922  21.861  0.00  0.00    +0.000 C 
ATOM     12  C   UNL     1       0.014  10.685  21.751  0.00  0.00    +0.000 C 
ATOM     13  C   UNL     1      -0.584   9.773  20.592  0.00  0.00    +0.000 C 
ATOM     14  C   UNL     1      -0.421  10.496  19.232  0.00  0.00    +0.000 A 
ATOM     15  C   UNL     1       0.347   9.841  18.275  0.00  0.00    +0.000 A 
ATOM     16  C   UNL     1       1.618  10.336  18.038  0.00  0.00    +0.000 A 
ATOM     17  C   UNL     1       1.972  11.550  18.631  0.00  0.00    +0.000 A 
ATOM     18  C   UNL     1       0.991  12.354  19.264  0.00  0.00    +0.000 A 
ATOM     19  C   UNL     1      -0.330  11.886  19.418  0.00  0.00    +0.000 A 
ATOM     20  C   UNL     1      -1.322  12.327  20.488  0.00  0.00    +0.000 C 
ATOM     21  N   UNL     1      -2.530  12.778  20.279  0.00  0.00    +0.000 NA
ATOM     22  H   UNL     1      -6.967  12.259  24.278  0.00  0.00    +0.000 HD
ATOM     23  H   UNL     1      -5.756  12.889  25.329  0.00  0.00    +0.000 HD
ATOM     24  H   UNL     1      -6.315  11.984  20.108  0.00  0.00    +0.000 HD
ATOM     25  H   UNL     1      -5.037  12.707  19.256  0.00  0.00    +0.000 HD
ATOM     26  H   UNL     1      -1.959  13.845  24.223  0.00  0.00    +0.000 HD
ENDROOT
BRANCH  10  27
ATOM     27  C   UNL     1      -0.160  14.522  21.936  0.00  0.00    +0.000 A 
ATOM     28  C   UNL     1       1.199  14.709  21.663  0.00  0.00    +0.000 A 
ATOM     29  C   UNL     1       1.668  15.918  21.116  0.00  0.00    +0.000 A 
ATOM     30  C   UNL     1       0.787  16.959  20.824  0.00  0.00    +0.000 A 
ATOM     31  C   UNL     1      -0.566  16.800  21.070  0.00  0.00    +0.000 A 
ATOM     32  C   UNL     1      -1.025  15.605  21.623  0.00  0.00    +0.000 A 
ENDBRANCH  10  27
TORSDOF 1
ENDMDL
