MODEL 1
REMARK VINA RESULT:      -7.9      0.000      0.000
REMARK  Name = 
REMARK  10 active torsions:
REMARK  status: ('A' for Active; 'I' for Inactive)
REMARK    1  A    between atoms: C_1  and  C_2
REMARK    2  A    between atoms: C_2  and  N_3
REMARK    3  A    between atoms: C_10  and  N_11
REMARK    4  A    between atoms: C_12  and  C_14
REMARK    5  A    between atoms: C_17  and  C_18
REMARK    6  A    between atoms: C_18  and  C_19
REMARK    7  A    between atoms: C_18  and  O_20
REMARK    8  A    between atoms: C_18  and  C_21
REMARK    9  A    between atoms: C_21  and  O_22
REMARK   10  A    between atoms: C_23  and  C_24
REMARK                            x       y       z     vdW  Elec       q    Type
REMARK                         _______ _______ _______ _____ _____    ______ ____
ROOT
ATOM      1  N   UNL     1       1.699   9.035  18.773  0.00  0.00    +0.000 N 
ATOM      2  C   UNL     1       2.108   7.832  19.313  0.00  0.00    +0.000 C 
ATOM      3  O   UNL     1       1.735   7.340  20.385  0.00  0.00    +0.000 OA
ATOM      4  H   UNL     1       2.036   9.305  17.860  0.00  0.00    +0.000 HD
ENDROOT
BRANCH   1  12
ATOM      5  N   UNL     1      -2.498  11.683  18.980  0.00  0.00    +0.000 N 
ATOM      6  C   UNL     1      -2.973  12.484  19.991  0.00  0.00    +0.000 A 
ATOM      7  C   UNL     1      -2.108  12.384  21.052  0.00  0.00    +0.000 A 
ATOM      8 CL   UNL     1      -2.270  13.144  22.562  0.00  0.00    +0.000 Cl
ATOM      9  C   UNL     1      -1.041  11.536  20.661  0.00  0.00    +0.000 A 
ATOM     10  C   UNL     1       0.114  11.087  21.295  0.00  0.00    +0.000 A 
ATOM     11  N   UNL     1       0.984  10.286  20.653  0.00  0.00    +0.000 NA
ATOM     12  C   UNL     1       0.756   9.885  19.387  0.00  0.00    +0.000 A 
ATOM     13  C   UNL     1      -0.381  10.271  18.674  0.00  0.00    +0.000 A 
ATOM     14  C   UNL     1      -1.289  11.117  19.346  0.00  0.00    +0.000 A 
BRANCH   5  16
ATOM     15  C   UNL     1      -3.631  10.009  17.564  0.00  0.00    +0.000 C 
ATOM     16  C   UNL     1      -3.226  11.460  17.741  0.00  0.00    +0.000 C 
ENDBRANCH   5  16
ENDBRANCH   1  12
BRANCH   2  17
ATOM     17  C   UNL     1       3.079   7.016  18.530  0.00  0.00    +0.000 A 
ATOM     18  C   UNL     1       3.680   7.454  17.358  0.00  0.00    +0.000 A 
ATOM     19  C   UNL     1       4.638   6.642  16.725  0.00  0.00    +0.000 A 
ATOM     20  C   UNL     1       5.021   5.364  17.226  0.00  0.00    +0.000 A 
ATOM     21  C   UNL     1       4.373   4.921  18.406  0.00  0.00    +0.000 A 
ATOM     22  C   UNL     1       4.586   3.605  19.111  0.00  0.00    +0.000 C 
ATOM     23  C   UNL     1       3.444   5.771  19.045  0.00  0.00    +0.000 A 
BRANCH  20  24
ATOM     24  C   UNL     1       6.095   4.539  16.476  0.00  0.00    +0.000 C 
ATOM     25  C   UNL     1       7.453   4.520  17.219  0.00  0.00    +0.000 C 
BRANCH  24  26
ATOM     26  O   UNL     1       5.727   3.146  16.389  0.00  0.00    +0.000 OA
ATOM     27  H   UNL     1       4.768   3.081  16.534  0.00  0.00    +0.000 HD
ENDBRANCH  24  26
BRANCH  24  28
ATOM     28  C   UNL     1       6.360   5.050  15.031  0.00  0.00    +0.000 C 
BRANCH  28  29
ATOM     29  O   UNL     1       7.709   5.449  14.781  0.00  0.00    +0.000 OA
ATOM     30  H   UNL     1       7.746   5.742  13.853  0.00  0.00    +0.000 HD
ENDBRANCH  28  29
ENDBRANCH  24  28
ENDBRANCH  20  24
ENDBRANCH   2  17
TORSDOF 7
ENDMDL
MODEL 2
REMARK VINA RESULT:      -7.5      2.577      3.401
REMARK  Name = 
REMARK  10 active torsions:
REMARK  status: ('A' for Active; 'I' for Inactive)
REMARK    1  A    between atoms: C_1  and  C_2
REMARK    2  A    between atoms: C_2  and  N_3
REMARK    3  A    between atoms: C_10  and  N_11
REMARK    4  A    between atoms: C_12  and  C_14
REMARK    5  A    between atoms: C_17  and  C_18
REMARK    6  A    between atoms: C_18  and  C_19
REMARK    7  A    between atoms: C_18  and  O_20
REMARK    8  A    between atoms: C_18  and  C_21
REMARK    9  A    between atoms: C_21  and  O_22
REMARK   10  A    between atoms: C_23  and  C_24
REMARK                            x       y       z     vdW  Elec       q    Type
REMARK                         _______ _______ _______ _____ _____    ______ ____
ROOT
ATOM      1  N   UNL     1       1.095   8.813  21.334  0.00  0.00    +0.000 N 
ATOM      2  C   UNL     1       1.358   8.506  20.014  0.00  0.00    +0.000 C 
ATOM      3  O   UNL     1       1.029   9.168  19.022  0.00  0.00    +0.000 OA
ATOM      4  H   UNL     1       1.465   8.220  22.061  0.00  0.00    +0.000 HD
ENDROOT
BRANCH   1  12
ATOM      5  N   UNL     1      -0.052  13.643  21.186  0.00  0.00    +0.000 N 
ATOM      6  C   UNL     1      -0.919  14.357  21.977  0.00  0.00    +0.000 A 
ATOM      7  C   UNL     1      -1.538  13.476  22.828  0.00  0.00    +0.000 A 
ATOM      8 CL   UNL     1      -2.732  13.850  23.976  0.00  0.00    +0.000 Cl
ATOM      9  C   UNL     1      -0.994  12.189  22.586  0.00  0.00    +0.000 A 
ATOM     10  C   UNL     1      -1.214  10.932  23.142  0.00  0.00    +0.000 A 
ATOM     11  N   UNL     1      -0.515   9.861  22.720  0.00  0.00    +0.000 NA
ATOM     12  C   UNL     1       0.404   9.974  21.741  0.00  0.00    +0.000 A 
ATOM     13  C   UNL     1       0.684  11.190  21.114  0.00  0.00    +0.000 A 
ATOM     14  C   UNL     1      -0.045  12.312  21.562  0.00  0.00    +0.000 A 
BRANCH   5  16
ATOM     15  C   UNL     1      -0.167  14.459  18.859  0.00  0.00    +0.000 C 
ATOM     16  C   UNL     1       0.693  14.244  20.090  0.00  0.00    +0.000 C 
ENDBRANCH   5  16
ENDBRANCH   1  12
BRANCH   2  17
ATOM     17  C   UNL     1       2.139   7.267  19.735  0.00  0.00    +0.000 A 
ATOM     18  C   UNL     1       2.039   6.109  20.493  0.00  0.00    +0.000 A 
ATOM     19  C   UNL     1       2.763   4.965  20.111  0.00  0.00    +0.000 A 
ATOM     20  C   UNL     1       3.620   4.937  18.974  0.00  0.00    +0.000 A 
ATOM     21  C   UNL     1       3.735   6.139  18.231  0.00  0.00    +0.000 A 
ATOM     22  C   UNL     1       4.593   6.366  17.012  0.00  0.00    +0.000 C 
ATOM     23  C   UNL     1       2.967   7.262  18.611  0.00  0.00    +0.000 A 
BRANCH  20  24
ATOM     24  C   UNL     1       4.370   3.632  18.614  0.00  0.00    +0.000 C 
ATOM     25  C   UNL     1       4.119   3.187  17.153  0.00  0.00    +0.000 C 
BRANCH  24  26
ATOM     26  O   UNL     1       5.802   3.808  18.682  0.00  0.00    +0.000 OA
ATOM     27  H   UNL     1       6.153   3.745  17.778  0.00  0.00    +0.000 HD
ENDBRANCH  24  26
BRANCH  24  28
ATOM     28  C   UNL     1       3.998   2.437  19.538  0.00  0.00    +0.000 C 
BRANCH  28  29
ATOM     29  O   UNL     1       5.118   1.755  20.105  0.00  0.00    +0.000 OA
ATOM     30  H   UNL     1       5.790   1.690  19.404  0.00  0.00    +0.000 HD
ENDBRANCH  28  29
ENDBRANCH  24  28
ENDBRANCH  20  24
ENDBRANCH   2  17
TORSDOF 7
ENDMDL
MODEL 3
REMARK VINA RESULT:      -7.5      1.736      2.601
REMARK  Name = 
REMARK  10 active torsions:
REMARK  status: ('A' for Active; 'I' for Inactive)
REMARK    1  A    between atoms: C_1  and  C_2
REMARK    2  A    between atoms: C_2  and  N_3
REMARK    3  A    between atoms: C_10  and  N_11
REMARK    4  A    between atoms: C_12  and  C_14
REMARK    5  A    between atoms: C_17  and  C_18
REMARK    6  A    between atoms: C_18  and  C_19
REMARK    7  A    between atoms: C_18  and  O_20
REMARK    8  A    between atoms: C_18  and  C_21
REMARK    9  A    between atoms: C_21  and  O_22
REMARK   10  A    between atoms: C_23  and  C_24
REMARK                            x       y       z     vdW  Elec       q    Type
REMARK                         _______ _______ _______ _____ _____    ______ ____
ROOT
ATOM      1  N   UNL     1       1.055   9.249  20.162  0.00  0.00    +0.000 N 
ATOM      2  C   UNL     1       1.665   8.936  18.963  0.00  0.00    +0.000 C 
ATOM      3  O   UNL     1       1.666   9.623  17.935  0.00  0.00    +0.000 OA
ATOM      4  H   UNL     1       1.172   8.629  20.950  0.00  0.00    +0.000 HD
ENDROOT
BRANCH   1  12
ATOM      5  N   UNL     1      -2.810  12.330  19.676  0.00  0.00    +0.000 N 
ATOM      6  C   UNL     1      -2.975  13.604  20.165  0.00  0.00    +0.000 A 
ATOM      7  C   UNL     1      -1.880  13.906  20.935  0.00  0.00    +0.000 A 
ATOM      8 CL   UNL     1      -1.620  15.344  21.801  0.00  0.00    +0.000 Cl
ATOM      9  C   UNL     1      -0.991  12.803  20.874  0.00  0.00    +0.000 A 
ATOM     10  C   UNL     1       0.260  12.543  21.428  0.00  0.00    +0.000 A 
ATOM     11  N   UNL     1       0.898  11.386  21.170  0.00  0.00    +0.000 NA
ATOM     12  C   UNL     1       0.341  10.445  20.384  0.00  0.00    +0.000 A 
ATOM     13  C   UNL     1      -0.915  10.609  19.797  0.00  0.00    +0.000 A 
ATOM     14  C   UNL     1      -1.580  11.825  20.062  0.00  0.00    +0.000 A 
BRANCH   5  16
ATOM     15  C   UNL     1      -3.470  11.520  17.440  0.00  0.00    +0.000 C 
ATOM     16  C   UNL     1      -3.834  11.641  18.908  0.00  0.00    +0.000 C 
ENDBRANCH   5  16
ENDBRANCH   1  12
BRANCH   2  17
ATOM     17  C   UNL     1       2.424   7.655  18.887  0.00  0.00    +0.000 A 
ATOM     18  C   UNL     1       2.262   6.611  19.787  0.00  0.00    +0.000 A 
ATOM     19  C   UNL     1       2.972   5.413  19.594  0.00  0.00    +0.000 A 
ATOM     20  C   UNL     1       3.876   5.216  18.511  0.00  0.00    +0.000 A 
ATOM     21  C   UNL     1       4.054   6.305  17.621  0.00  0.00    +0.000 A 
ATOM     22  C   UNL     1       4.968   6.350  16.423  0.00  0.00    +0.000 C 
ATOM     23  C   UNL     1       3.300   7.484  17.813  0.00  0.00    +0.000 A 
BRANCH  20  24
ATOM     24  C   UNL     1       4.607   3.860  18.362  0.00  0.00    +0.000 C 
ATOM     25  C   UNL     1       4.409   3.229  16.962  0.00  0.00    +0.000 C 
BRANCH  24  26
ATOM     26  O   UNL     1       6.038   4.015  18.473  0.00  0.00    +0.000 OA
ATOM     27  H   UNL     1       6.448   3.154  18.281  0.00  0.00    +0.000 HD
ENDBRANCH  24  26
BRANCH  24  28
ATOM     28  C   UNL     1       4.163   2.806  19.417  0.00  0.00    +0.000 C 
BRANCH  28  29
ATOM     29  O   UNL     1       5.234   2.049  19.985  0.00  0.00    +0.000 OA
ATOM     30  H   UNL     1       4.826   1.316  20.479  0.00  0.00    +0.000 HD
ENDBRANCH  28  29
ENDBRANCH  24  28
ENDBRANCH  20  24
ENDBRANCH   2  17
TORSDOF 7
ENDMDL
MODEL 4
REMARK VINA RESULT:      -7.5      2.527      3.693
REMARK  Name = 
REMARK  10 active torsions:
REMARK  status: ('A' for Active; 'I' for Inactive)
REMARK    1  A    between atoms: C_1  and  C_2
REMARK    2  A    between atoms: C_2  and  N_3
REMARK    3  A    between atoms: C_10  and  N_11
REMARK    4  A    between atoms: C_12  and  C_14
REMARK    5  A    between atoms: C_17  and  C_18
REMARK    6  A    between atoms: C_18  and  C_19
REMARK    7  A    between atoms: C_18  and  O_20
REMARK    8  A    between atoms: C_18  and  C_21
REMARK    9  A    between atoms: C_21  and  O_22
REMARK   10  A    between atoms: C_23  and  C_24
REMARK                            x       y       z     vdW  Elec       q    Type
REMARK                         _______ _______ _______ _____ _____    ______ ____
ROOT
ATOM      1  N   UNL     1       1.148   9.213  19.173  0.00  0.00    +0.000 N 
ATOM      2  C   UNL     1       1.551   8.357  20.179  0.00  0.00    +0.000 C 
ATOM      3  O   UNL     1       1.490   8.569  21.396  0.00  0.00    +0.000 OA
ATOM      4  H   UNL     1       1.198   8.904  18.214  0.00  0.00    +0.000 HD
ENDROOT
BRANCH   1  12
ATOM      5  N   UNL     1       1.061  14.179  19.126  0.00  0.00    +0.000 N 
ATOM      6  C   UNL     1       0.100  15.037  19.603  0.00  0.00    +0.000 A 
ATOM      7  C   UNL     1      -0.953  14.283  20.056  0.00  0.00    +0.000 A 
ATOM      8 CL   UNL     1      -2.412  14.869  20.699  0.00  0.00    +0.000 Cl
ATOM      9  C   UNL     1      -0.605  12.918  19.899  0.00  0.00    +0.000 A 
ATOM     10  C   UNL     1      -1.253  11.720  20.190  0.00  0.00    +0.000 A 
ATOM     11  N   UNL     1      -0.654  10.538  19.951  0.00  0.00    +0.000 NA
ATOM     12  C   UNL     1       0.579  10.481  19.411  0.00  0.00    +0.000 A 
ATOM     13  C   UNL     1       1.301  11.628  19.073  0.00  0.00    +0.000 A 
ATOM     14  C   UNL     1       0.675  12.866  19.330  0.00  0.00    +0.000 A 
BRANCH   5  16
ATOM     15  C   UNL     1       3.463  14.673  19.405  0.00  0.00    +0.000 C 
ATOM     16  C   UNL     1       2.273  14.639  18.466  0.00  0.00    +0.000 C 
ENDBRANCH   5  16
ENDBRANCH   1  12
BRANCH   2  17
ATOM     17  C   UNL     1       2.095   7.028  19.779  0.00  0.00    +0.000 A 
ATOM     18  C   UNL     1       2.939   6.838  18.694  0.00  0.00    +0.000 A 
ATOM     19  C   UNL     1       3.459   5.557  18.436  0.00  0.00    +0.000 A 
ATOM     20  C   UNL     1       3.146   4.420  19.236  0.00  0.00    +0.000 A 
ATOM     21  C   UNL     1       2.256   4.627  20.319  0.00  0.00    +0.000 A 
ATOM     22  C   UNL     1       1.757   3.584  21.288  0.00  0.00    +0.000 C 
ATOM     23  C   UNL     1       1.780   5.930  20.583  0.00  0.00    +0.000 A 
BRANCH  20  24
ATOM     24  C   UNL     1       3.773   3.047  18.891  0.00  0.00    +0.000 C 
ATOM     25  C   UNL     1       2.749   2.066  18.270  0.00  0.00    +0.000 C 
BRANCH  24  26
ATOM     26  O   UNL     1       4.794   3.170  17.879  0.00  0.00    +0.000 OA
ATOM     27  H   UNL     1       5.520   2.568  18.112  0.00  0.00    +0.000 HD
ENDBRANCH  24  26
BRANCH  24  28
ATOM     28  C   UNL     1       4.411   2.340  20.122  0.00  0.00    +0.000 C 
BRANCH  28  29
ATOM     29  O   UNL     1       5.144   1.154  19.810  0.00  0.00    +0.000 OA
ATOM     30  H   UNL     1       4.932   0.929  18.887  0.00  0.00    +0.000 HD
ENDBRANCH  28  29
ENDBRANCH  24  28
ENDBRANCH  20  24
ENDBRANCH   2  17
TORSDOF 7
ENDMDL
MODEL 5
REMARK VINA RESULT:      -7.4      1.864      2.469
REMARK  Name = 
REMARK  10 active torsions:
REMARK  status: ('A' for Active; 'I' for Inactive)
REMARK    1  A    between atoms: C_1  and  C_2
REMARK    2  A    between atoms: C_2  and  N_3
REMARK    3  A    between atoms: C_10  and  N_11
REMARK    4  A    between atoms: C_12  and  C_14
REMARK    5  A    between atoms: C_17  and  C_18
REMARK    6  A    between atoms: C_18  and  C_19
REMARK    7  A    between atoms: C_18  and  O_20
REMARK    8  A    between atoms: C_18  and  C_21
REMARK    9  A    between atoms: C_21  and  O_22
REMARK   10  A    between atoms: C_23  and  C_24
REMARK                            x       y       z     vdW  Elec       q    Type
REMARK                         _______ _______ _______ _____ _____    ______ ____
ROOT
ATOM      1  N   UNL     1       1.137   9.506  19.562  0.00  0.00    +0.000 N 
ATOM      2  C   UNL     1       1.383   8.411  20.366  0.00  0.00    +0.000 C 
ATOM      3  O   UNL     1       1.077   8.287  21.558  0.00  0.00    +0.000 OA
ATOM      4  H   UNL     1       1.388   9.467  18.586  0.00  0.00    +0.000 HD
ENDROOT
BRANCH   1  12
ATOM      5  N   UNL     1      -2.734  12.599  19.909  0.00  0.00    +0.000 N 
ATOM      6  C   UNL     1      -2.830  13.805  20.560  0.00  0.00    +0.000 A 
ATOM      7  C   UNL     1      -1.648  14.022  21.223  0.00  0.00    +0.000 A 
ATOM      8 CL   UNL     1      -1.275  15.350  22.214  0.00  0.00    +0.000 Cl
ATOM      9  C   UNL     1      -0.782  12.939  20.927  0.00  0.00    +0.000 A 
ATOM     10  C   UNL     1       0.524  12.624  21.292  0.00  0.00    +0.000 A 
ATOM     11  N   UNL     1       1.119  11.510  20.826  0.00  0.00    +0.000 NA
ATOM     12  C   UNL     1       0.464  10.663  20.007  0.00  0.00    +0.000 A 
ATOM     13  C   UNL     1      -0.852  10.888  19.598  0.00  0.00    +0.000 A 
ATOM     14  C   UNL     1      -1.472  12.059  20.082  0.00  0.00    +0.000 A 
BRANCH   5  16
ATOM     15  C   UNL     1      -5.192  12.439  19.743  0.00  0.00    +0.000 C 
ATOM     16  C   UNL     1      -3.849  11.998  19.193  0.00  0.00    +0.000 C 
ENDBRANCH   5  16
ENDBRANCH   1  12
BRANCH   2  17
ATOM     17  C   UNL     1       2.066   7.239  19.747  0.00  0.00    +0.000 A 
ATOM     18  C   UNL     1       2.763   7.301  18.549  0.00  0.00    +0.000 A 
ATOM     19  C   UNL     1       3.435   6.158  18.078  0.00  0.00    +0.000 A 
ATOM     20  C   UNL     1       3.426   4.915  18.773  0.00  0.00    +0.000 A 
ATOM     21  C   UNL     1       2.682   4.862  19.978  0.00  0.00    +0.000 A 
ATOM     22  C   UNL     1       2.500   3.663  20.874  0.00  0.00    +0.000 C 
ATOM     23  C   UNL     1       2.049   6.033  20.451  0.00  0.00    +0.000 A 
BRANCH  20  24
ATOM     24  C   UNL     1       4.205   3.709  18.193  0.00  0.00    +0.000 C 
ATOM     25  C   UNL     1       4.931   4.052  16.870  0.00  0.00    +0.000 C 
BRANCH  24  26
ATOM     26  O   UNL     1       5.268   3.293  19.076  0.00  0.00    +0.000 OA
ATOM     27  H   UNL     1       5.774   2.594  18.626  0.00  0.00    +0.000 HD
ENDBRANCH  24  26
BRANCH  24  28
ATOM     28  C   UNL     1       3.302   2.471  17.925  0.00  0.00    +0.000 C 
BRANCH  28  29
ATOM     29  O   UNL     1       2.136   2.745  17.145  0.00  0.00    +0.000 OA
ATOM     30  H   UNL     1       2.444   2.945  16.244  0.00  0.00    +0.000 HD
ENDBRANCH  28  29
ENDBRANCH  24  28
ENDBRANCH  20  24
ENDBRANCH   2  17
TORSDOF 7
ENDMDL
MODEL 6
REMARK VINA RESULT:      -7.4      4.057      9.388
REMARK  Name = 
REMARK  10 active torsions:
REMARK  status: ('A' for Active; 'I' for Inactive)
REMARK    1  A    between atoms: C_1  and  C_2
REMARK    2  A    between atoms: C_2  and  N_3
REMARK    3  A    between atoms: C_10  and  N_11
REMARK    4  A    between atoms: C_12  and  C_14
REMARK    5  A    between atoms: C_17  and  C_18
REMARK    6  A    between atoms: C_18  and  C_19
REMARK    7  A    between atoms: C_18  and  O_20
REMARK    8  A    between atoms: C_18  and  C_21
REMARK    9  A    between atoms: C_21  and  O_22
REMARK   10  A    between atoms: C_23  and  C_24
REMARK                            x       y       z     vdW  Elec       q    Type
REMARK                         _______ _______ _______ _____ _____    ______ ____
ROOT
ATOM      1  N   UNL     1       1.960   8.080  19.217  0.00  0.00    +0.000 N 
ATOM      2  C   UNL     1       1.511   9.219  18.578  0.00  0.00    +0.000 C 
ATOM      3  O   UNL     1       1.678   9.511  17.388  0.00  0.00    +0.000 OA
ATOM      4  H   UNL     1       1.713   7.928  20.183  0.00  0.00    +0.000 HD
ENDROOT
BRANCH   1  12
ATOM      5  N   UNL     1       2.853   3.390  17.847  0.00  0.00    +0.000 N 
ATOM      6  C   UNL     1       3.902   2.879  17.121  0.00  0.00    +0.000 A 
ATOM      7  C   UNL     1       4.690   3.930  16.722  0.00  0.00    +0.000 A 
ATOM      8 CL   UNL     1       6.087   3.835  15.760  0.00  0.00    +0.000 Cl
ATOM      9  C   UNL     1       4.136   5.116  17.264  0.00  0.00    +0.000 A 
ATOM     10  C   UNL     1       4.500   6.459  17.214  0.00  0.00    +0.000 A 
ATOM     11  N   UNL     1       3.779   7.392  17.865  0.00  0.00    +0.000 NA
ATOM     12  C   UNL     1       2.680   7.055  18.568  0.00  0.00    +0.000 A 
ATOM     13  C   UNL     1       2.229   5.737  18.664  0.00  0.00    +0.000 A 
ATOM     14  C   UNL     1       2.989   4.760  17.988  0.00  0.00    +0.000 A 
BRANCH   5  16
ATOM     15  C   UNL     1       1.860   2.293  19.823  0.00  0.00    +0.000 C 
ATOM     16  C   UNL     1       1.756   2.568  18.334  0.00  0.00    +0.000 C 
ENDBRANCH   5  16
ENDBRANCH   1  12
BRANCH   2  17
ATOM     17  C   UNL     1       0.723  10.197  19.381  0.00  0.00    +0.000 A 
ATOM     18  C   UNL     1       0.226  11.387  18.869  0.00  0.00    +0.000 A 
ATOM     19  C   UNL     1      -0.568  12.214  19.684  0.00  0.00    +0.000 A 
ATOM     20  C   UNL     1      -0.881  11.895  21.037  0.00  0.00    +0.000 A 
ATOM     21  C   UNL     1      -0.337  10.692  21.552  0.00  0.00    +0.000 A 
ATOM     22  C   UNL     1      -0.503  10.154  22.951  0.00  0.00    +0.000 C 
ATOM     23  C   UNL     1       0.423   9.858  20.703  0.00  0.00    +0.000 A 
BRANCH  20  24
ATOM     24  C   UNL     1      -1.774  12.854  21.861  0.00  0.00    +0.000 C 
ATOM     25  C   UNL     1      -2.460  13.929  20.983  0.00  0.00    +0.000 C 
BRANCH  24  26
ATOM     26  O   UNL     1      -2.877  12.153  22.475  0.00  0.00    +0.000 OA
ATOM     27  H   UNL     1      -2.526  11.639  23.222  0.00  0.00    +0.000 HD
ENDBRANCH  24  26
BRANCH  24  28
ATOM     28  C   UNL     1      -0.999  13.594  22.989  0.00  0.00    +0.000 C 
BRANCH  28  29
ATOM     29  O   UNL     1       0.309  14.033  22.618  0.00  0.00    +0.000 OA
ATOM     30  H   UNL     1       0.324  14.999  22.737  0.00  0.00    +0.000 HD
ENDBRANCH  28  29
ENDBRANCH  24  28
ENDBRANCH  20  24
ENDBRANCH   2  17
TORSDOF 7
ENDMDL
MODEL 7
REMARK VINA RESULT:      -7.4      1.566      2.379
REMARK  Name = 
REMARK  10 active torsions:
REMARK  status: ('A' for Active; 'I' for Inactive)
REMARK    1  A    between atoms: C_1  and  C_2
REMARK    2  A    between atoms: C_2  and  N_3
REMARK    3  A    between atoms: C_10  and  N_11
REMARK    4  A    between atoms: C_12  and  C_14
REMARK    5  A    between atoms: C_17  and  C_18
REMARK    6  A    between atoms: C_18  and  C_19
REMARK    7  A    between atoms: C_18  and  O_20
REMARK    8  A    between atoms: C_18  and  C_21
REMARK    9  A    between atoms: C_21  and  O_22
REMARK   10  A    between atoms: C_23  and  C_24
REMARK                            x       y       z     vdW  Elec       q    Type
REMARK                         _______ _______ _______ _____ _____    ______ ____
ROOT
ATOM      1  N   UNL     1       1.531   9.040  17.852  0.00  0.00    +0.000 N 
ATOM      2  C   UNL     1       2.125   8.045  18.603  0.00  0.00    +0.000 C 
ATOM      3  O   UNL     1       1.895   7.779  19.789  0.00  0.00    +0.000 OA
ATOM      4  H   UNL     1       1.764   9.124  16.874  0.00  0.00    +0.000 HD
ENDROOT
BRANCH   1  12
ATOM      5  N   UNL     1      -0.158  12.889  20.497  0.00  0.00    +0.000 N 
ATOM      6  C   UNL     1      -1.450  13.318  20.683  0.00  0.00    +0.000 A 
ATOM      7  C   UNL     1      -2.272  12.530  19.916  0.00  0.00    +0.000 A 
ATOM      8 CL   UNL     1      -3.956  12.680  19.759  0.00  0.00    +0.000 Cl
ATOM      9  C   UNL     1      -1.463  11.555  19.280  0.00  0.00    +0.000 A 
ATOM     10  C   UNL     1      -1.732  10.498  18.413  0.00  0.00    +0.000 A 
ATOM     11  N   UNL     1      -0.741   9.698  17.976  0.00  0.00    +0.000 NA
ATOM     12  C   UNL     1       0.536   9.905  18.353  0.00  0.00    +0.000 A 
ATOM     13  C   UNL     1       0.904  10.947  19.207  0.00  0.00    +0.000 A 
ATOM     14  C   UNL     1      -0.136  11.780  19.669  0.00  0.00    +0.000 A 
BRANCH   5  16
ATOM     15  C   UNL     1       1.630  14.545  20.101  0.00  0.00    +0.000 C 
ATOM     16  C   UNL     1       0.990  13.571  21.073  0.00  0.00    +0.000 C 
ENDBRANCH   5  16
ENDBRANCH   1  12
BRANCH   2  17
ATOM     17  C   UNL     1       3.130   7.175  17.927  0.00  0.00    +0.000 A 
ATOM     18  C   UNL     1       4.251   7.664  17.272  0.00  0.00    +0.000 A 
ATOM     19  C   UNL     1       5.182   6.763  16.724  0.00  0.00    +0.000 A 
ATOM     20  C   UNL     1       5.024   5.350  16.796  0.00  0.00    +0.000 A 
ATOM     21  C   UNL     1       3.857   4.870  17.440  0.00  0.00    +0.000 A 
ATOM     22  C   UNL     1       3.454   3.427  17.620  0.00  0.00    +0.000 C 
ATOM     23  C   UNL     1       2.957   5.792  18.018  0.00  0.00    +0.000 A 
BRANCH  20  24
ATOM     24  C   UNL     1       6.104   4.427  16.180  0.00  0.00    +0.000 C 
ATOM     25  C   UNL     1       7.441   4.477  16.958  0.00  0.00    +0.000 C 
BRANCH  24  26
ATOM     26  O   UNL     1       5.714   3.039  16.247  0.00  0.00    +0.000 OA
ATOM     27  H   UNL     1       5.297   2.887  17.112  0.00  0.00    +0.000 HD
ENDBRANCH  24  26
BRANCH  24  28
ATOM     28  C   UNL     1       6.415   4.758  14.692  0.00  0.00    +0.000 C 
BRANCH  28  29
ATOM     29  O   UNL     1       7.661   5.426  14.481  0.00  0.00    +0.000 OA
ATOM     30  H   UNL     1       7.804   5.452  13.519  0.00  0.00    +0.000 HD
ENDBRANCH  28  29
ENDBRANCH  24  28
ENDBRANCH  20  24
ENDBRANCH   2  17
TORSDOF 7
ENDMDL
MODEL 8
REMARK VINA RESULT:      -7.4      4.130      9.488
REMARK  Name = 
REMARK  10 active torsions:
REMARK  status: ('A' for Active; 'I' for Inactive)
REMARK    1  A    between atoms: C_1  and  C_2
REMARK    2  A    between atoms: C_2  and  N_3
REMARK    3  A    between atoms: C_10  and  N_11
REMARK    4  A    between atoms: C_12  and  C_14
REMARK    5  A    between atoms: C_17  and  C_18
REMARK    6  A    between atoms: C_18  and  C_19
REMARK    7  A    between atoms: C_18  and  O_20
REMARK    8  A    between atoms: C_18  and  C_21
REMARK    9  A    between atoms: C_21  and  O_22
REMARK   10  A    between atoms: C_23  and  C_24
REMARK                            x       y       z     vdW  Elec       q    Type
REMARK                         _______ _______ _______ _____ _____    ______ ____
ROOT
ATOM      1  N   UNL     1       2.121   8.030  19.496  0.00  0.00    +0.000 N 
ATOM      2  C   UNL     1       1.385   9.015  18.866  0.00  0.00    +0.000 C 
ATOM      3  O   UNL     1       1.197   9.131  17.649  0.00  0.00    +0.000 OA
ATOM      4  H   UNL     1       2.157   8.011  20.504  0.00  0.00    +0.000 HD
ENDROOT
BRANCH   1  12
ATOM      5  N   UNL     1       3.099   3.273  18.459  0.00  0.00    +0.000 N 
ATOM      6  C   UNL     1       3.999   2.743  17.566  0.00  0.00    +0.000 A 
ATOM      7  C   UNL     1       4.580   3.783  16.885  0.00  0.00    +0.000 A 
ATOM      8 CL   UNL     1       5.728   3.659  15.639  0.00  0.00    +0.000 Cl
ATOM      9  C   UNL     1       4.058   4.991  17.413  0.00  0.00    +0.000 A 
ATOM     10  C   UNL     1       4.280   6.337  17.138  0.00  0.00    +0.000 A 
ATOM     11  N   UNL     1       3.643   7.296  17.836  0.00  0.00    +0.000 NA
ATOM     12  C   UNL     1       2.765   6.981  18.808  0.00  0.00    +0.000 A 
ATOM     13  C   UNL     1       2.467   5.659  19.146  0.00  0.00    +0.000 A 
ATOM     14  C   UNL     1       3.140   4.655  18.418  0.00  0.00    +0.000 A 
BRANCH   5  16
ATOM     15  C   UNL     1       0.800   2.418  18.736  0.00  0.00    +0.000 C 
ATOM     16  C   UNL     1       2.218   2.450  19.273  0.00  0.00    +0.000 C 
ENDBRANCH   5  16
ENDBRANCH   1  12
BRANCH   2  17
ATOM     17  C   UNL     1       0.722  10.037  19.725  0.00  0.00    +0.000 A 
ATOM     18  C   UNL     1       0.368  11.303  19.279  0.00  0.00    +0.000 A 
ATOM     19  C   UNL     1      -0.319  12.176  20.142  0.00  0.00    +0.000 A 
ATOM     20  C   UNL     1      -0.664  11.827  21.479  0.00  0.00    +0.000 A 
ATOM     21  C   UNL     1      -0.267  10.543  21.927  0.00  0.00    +0.000 A 
ATOM     22  C   UNL     1      -0.492   9.957  23.298  0.00  0.00    +0.000 C 
ATOM     23  C   UNL     1       0.386   9.669  21.030  0.00  0.00    +0.000 A 
BRANCH  20  24
ATOM     24  C   UNL     1      -1.434  12.842  22.359  0.00  0.00    +0.000 C 
ATOM     25  C   UNL     1      -2.711  12.233  22.987  0.00  0.00    +0.000 C 
BRANCH  24  26
ATOM     26  O   UNL     1      -0.651  13.256  23.498  0.00  0.00    +0.000 OA
ATOM     27  H   UNL     1      -0.759  12.587  24.195  0.00  0.00    +0.000 HD
ENDBRANCH  24  26
BRANCH  24  28
ATOM     28  C   UNL     1      -1.858  14.123  21.586  0.00  0.00    +0.000 C 
BRANCH  28  29
ATOM     29  O   UNL     1      -3.271  14.315  21.485  0.00  0.00    +0.000 OA
ATOM     30  H   UNL     1      -3.409  15.241  21.219  0.00  0.00    +0.000 HD
ENDBRANCH  28  29
ENDBRANCH  24  28
ENDBRANCH  20  24
ENDBRANCH   2  17
TORSDOF 7
ENDMDL
MODEL 9
REMARK VINA RESULT:      -7.4      1.730      2.207
REMARK  Name = 
REMARK  10 active torsions:
REMARK  status: ('A' for Active; 'I' for Inactive)
REMARK    1  A    between atoms: C_1  and  C_2
REMARK    2  A    between atoms: C_2  and  N_3
REMARK    3  A    between atoms: C_10  and  N_11
REMARK    4  A    between atoms: C_12  and  C_14
REMARK    5  A    between atoms: C_17  and  C_18
REMARK    6  A    between atoms: C_18  and  C_19
REMARK    7  A    between atoms: C_18  and  O_20
REMARK    8  A    between atoms: C_18  and  C_21
REMARK    9  A    between atoms: C_21  and  O_22
REMARK   10  A    between atoms: C_23  and  C_24
REMARK                            x       y       z     vdW  Elec       q    Type
REMARK                         _______ _______ _______ _____ _____    ______ ____
ROOT
ATOM      1  N   UNL     1       1.168   9.069  19.727  0.00  0.00    +0.000 N 
ATOM      2  C   UNL     1       1.850   8.947  18.533  0.00  0.00    +0.000 C 
ATOM      3  O   UNL     1       1.948   9.806  17.648  0.00  0.00    +0.000 OA
ATOM      4  H   UNL     1       1.206   8.314  20.396  0.00  0.00    +0.000 HD
ENDROOT
BRANCH   1  12
ATOM      5  N   UNL     1      -2.612  12.291  19.662  0.00  0.00    +0.000 N 
ATOM      6  C   UNL     1      -2.752  13.483  20.331  0.00  0.00    +0.000 A 
ATOM      7  C   UNL     1      -1.660  13.639  21.148  0.00  0.00    +0.000 A 
ATOM      8 CL   UNL     1      -1.376  14.927  22.219  0.00  0.00    +0.000 Cl
ATOM      9  C   UNL     1      -0.798  12.534  20.934  0.00  0.00    +0.000 A 
ATOM     10  C   UNL     1       0.438  12.162  21.456  0.00  0.00    +0.000 A 
ATOM     11  N   UNL     1       1.051  11.039  21.037  0.00  0.00    +0.000 NA
ATOM     12  C   UNL     1       0.481  10.238  20.116  0.00  0.00    +0.000 A 
ATOM     13  C   UNL     1      -0.762  10.521  19.547  0.00  0.00    +0.000 A 
ATOM     14  C   UNL     1      -1.401  11.702  19.981  0.00  0.00    +0.000 A 
BRANCH   5  16
ATOM     15  C   UNL     1      -5.030  12.230  19.172  0.00  0.00    +0.000 C 
ATOM     16  C   UNL     1      -3.643  11.749  18.791  0.00  0.00    +0.000 C 
ENDBRANCH   5  16
ENDBRANCH   1  12
BRANCH   2  17
ATOM     17  C   UNL     1       2.569   7.667  18.275  0.00  0.00    +0.000 A 
ATOM     18  C   UNL     1       3.592   7.534  17.347  0.00  0.00    +0.000 A 
ATOM     19  C   UNL     1       4.260   6.302  17.223  0.00  0.00    +0.000 A 
ATOM     20  C   UNL     1       3.926   5.160  18.005  0.00  0.00    +0.000 A 
ATOM     21  C   UNL     1       2.858   5.305  18.925  0.00  0.00    +0.000 A 
ATOM     22  C   UNL     1       2.305   4.242  19.840  0.00  0.00    +0.000 C 
ATOM     23  C   UNL     1       2.229   6.562  19.060  0.00  0.00    +0.000 A 
BRANCH  20  24
ATOM     24  C   UNL     1       4.722   3.845  17.817  0.00  0.00    +0.000 C 
ATOM     25  C   UNL     1       5.655   3.887  16.583  0.00  0.00    +0.000 C 
BRANCH  24  26
ATOM     26  O   UNL     1       5.619   3.607  18.923  0.00  0.00    +0.000 OA
ATOM     27  H   UNL     1       5.653   4.417  19.460  0.00  0.00    +0.000 HD
ENDBRANCH  24  26
BRANCH  24  28
ATOM     28  C   UNL     1       3.809   2.594  17.672  0.00  0.00    +0.000 C 
BRANCH  28  29
ATOM     29  O   UNL     1       4.175   1.493  18.507  0.00  0.00    +0.000 OA
ATOM     30  H   UNL     1       4.606   1.871  19.294  0.00  0.00    +0.000 HD
ENDBRANCH  28  29
ENDBRANCH  24  28
ENDBRANCH  20  24
ENDBRANCH   2  17
TORSDOF 7
ENDMDL
