MODEL 1
REMARK VINA RESULT:      -7.8      0.000      0.000
REMARK  Name = 
REMARK  3 active torsions:
REMARK  status: ('A' for Active; 'I' for Inactive)
REMARK    1  A    between atoms: C_1  and  O_2
REMARK    2  A    between atoms: O_2  and  C_3
REMARK    3  A    between atoms: C_7  and  C_8
REMARK                            x       y       z     vdW  Elec       q    Type
REMARK                         _______ _______ _______ _____ _____    ______ ____
ROOT
ATOM      1  C   UNL     1       6.957   5.100  16.087  0.00  0.00    +0.000 A 
ATOM      2  C   UNL     1       7.677   6.086  16.731  0.00  0.00    +0.000 A 
ATOM      3  S   UNL     1       7.325   6.064  18.411  0.00  0.00    +0.000 S 
ATOM      4  C   UNL     1       6.204   4.773  18.161  0.00  0.00    +0.000 A 
ATOM      5  N   UNL     1       5.468   4.297  19.189  0.00  0.00    +0.000 N 
ATOM      6  C   UNL     1       4.257   3.612  19.070  0.00  0.00    +0.000 A 
ATOM      7  C   UNL     1       3.891   2.878  17.941  0.00  0.00    +0.000 A 
ATOM      8  C   UNL     1       2.619   2.317  17.846  0.00  0.00    +0.000 A 
ATOM      9  C   UNL     1       1.745   2.462  18.907  0.00  0.00    +0.000 A 
ATOM     10 CL   UNL     1       0.160   1.816  18.827  0.00  0.00    +0.000 Cl
ATOM     11  C   UNL     1       2.191   3.147  20.023  0.00  0.00    +0.000 A 
ATOM     12  N   UNL     1       3.421   3.718  20.128  0.00  0.00    +0.000 NA
ATOM     13  N   UNL     1       6.141   4.357  16.917  0.00  0.00    +0.000 NA
ATOM     14  H   UNL     1       5.496   4.784  20.074  0.00  0.00    +0.000 HD
ENDROOT
BRANCH   1  19
ATOM     15  C   UNL     1       6.255   3.670  12.698  0.00  0.00    +0.000 A 
ATOM     16  C   UNL     1       7.192   4.376  11.955  0.00  0.00    +0.000 A 
ATOM     17  C   UNL     1       7.996   5.291  12.617  0.00  0.00    +0.000 A 
ATOM     18  N   UNL     1       7.933   5.538  13.940  0.00  0.00    +0.000 NA
ATOM     19  C   UNL     1       7.019   4.836  14.653  0.00  0.00    +0.000 A 
ATOM     20  C   UNL     1       6.168   3.900  14.069  0.00  0.00    +0.000 A 
BRANCH  15  22
ATOM     21  C   UNL     1       4.295   3.222  11.430  0.00  0.00    +0.000 C 
ATOM     22  O   UNL     1       5.386   2.734  12.205  0.00  0.00    +0.000 OA
ENDBRANCH  15  22
ENDBRANCH   1  19
TORSDOF 2
ENDMDL
MODEL 2
REMARK VINA RESULT:      -7.7      3.255      6.870
REMARK  Name = 
REMARK  3 active torsions:
REMARK  status: ('A' for Active; 'I' for Inactive)
REMARK    1  A    between atoms: C_1  and  O_2
REMARK    2  A    between atoms: O_2  and  C_3
REMARK    3  A    between atoms: C_7  and  C_8
REMARK                            x       y       z     vdW  Elec       q    Type
REMARK                         _______ _______ _______ _____ _____    ______ ____
ROOT
ATOM      1  C   UNL     1       5.726   4.988  18.805  0.00  0.00    +0.000 A 
ATOM      2  C   UNL     1       6.746   5.632  19.474  0.00  0.00    +0.000 A 
ATOM      3  S   UNL     1       7.799   6.387  18.348  0.00  0.00    +0.000 S 
ATOM      4  C   UNL     1       6.851   5.767  17.044  0.00  0.00    +0.000 A 
ATOM      5  N   UNL     1       7.231   5.972  15.763  0.00  0.00    +0.000 N 
ATOM      6  C   UNL     1       6.850   5.192  14.669  0.00  0.00    +0.000 A 
ATOM      7  C   UNL     1       5.671   4.447  14.624  0.00  0.00    +0.000 A 
ATOM      8  C   UNL     1       5.412   3.601  13.547  0.00  0.00    +0.000 A 
ATOM      9  C   UNL     1       6.322   3.545  12.509  0.00  0.00    +0.000 A 
ATOM     10 CL   UNL     1       6.065   2.498  11.177  0.00  0.00    +0.000 Cl
ATOM     11  C   UNL     1       7.441   4.356  12.586  0.00  0.00    +0.000 A 
ATOM     12  N   UNL     1       7.721   5.174  13.635  0.00  0.00    +0.000 NA
ATOM     13  N   UNL     1       5.795   5.090  17.429  0.00  0.00    +0.000 NA
ATOM     14  H   UNL     1       8.135   6.388  15.585  0.00  0.00    +0.000 HD
ENDROOT
BRANCH   1  19
ATOM     15  C   UNL     1       2.439   4.131  20.383  0.00  0.00    +0.000 A 
ATOM     16  C   UNL     1       2.675   2.798  20.690  0.00  0.00    +0.000 A 
ATOM     17  C   UNL     1       3.906   2.257  20.349  0.00  0.00    +0.000 A 
ATOM     18  N   UNL     1       4.894   2.943  19.742  0.00  0.00    +0.000 NA
ATOM     19  C   UNL     1       4.651   4.245  19.456  0.00  0.00    +0.000 A 
ATOM     20  C   UNL     1       3.443   4.868  19.758  0.00  0.00    +0.000 A 
BRANCH  15  22
ATOM     21  C   UNL     1       1.398   6.236  20.756  0.00  0.00    +0.000 C 
ATOM     22  O   UNL     1       1.286   4.819  20.647  0.00  0.00    +0.000 OA
ENDBRANCH  15  22
ENDBRANCH   1  19
TORSDOF 2
ENDMDL
MODEL 3
REMARK VINA RESULT:      -7.2      3.104      6.692
REMARK  Name = 
REMARK  3 active torsions:
REMARK  status: ('A' for Active; 'I' for Inactive)
REMARK    1  A    between atoms: C_1  and  O_2
REMARK    2  A    between atoms: O_2  and  C_3
REMARK    3  A    between atoms: C_7  and  C_8
REMARK                            x       y       z     vdW  Elec       q    Type
REMARK                         _______ _______ _______ _____ _____    ______ ____
ROOT
ATOM      1  C   UNL     1       5.709   4.807  18.697  0.00  0.00    +0.000 A 
ATOM      2  C   UNL     1       6.659   5.525  19.395  0.00  0.00    +0.000 A 
ATOM      3  S   UNL     1       7.659   6.390  18.301  0.00  0.00    +0.000 S 
ATOM      4  C   UNL     1       6.789   5.715  16.970  0.00  0.00    +0.000 A 
ATOM      5  N   UNL     1       7.169   5.976  15.700  0.00  0.00    +0.000 N 
ATOM      6  C   UNL     1       6.875   5.186  14.586  0.00  0.00    +0.000 A 
ATOM      7  C   UNL     1       5.766   4.342  14.507  0.00  0.00    +0.000 A 
ATOM      8  C   UNL     1       5.599   3.497  13.412  0.00  0.00    +0.000 A 
ATOM      9  C   UNL     1       6.526   3.541  12.388  0.00  0.00    +0.000 A 
ATOM     10 CL   UNL     1       6.382   2.501  11.034  0.00  0.00    +0.000 Cl
ATOM     11  C   UNL     1       7.569   4.444  12.498  0.00  0.00    +0.000 A 
ATOM     12  N   UNL     1       7.760   5.264  13.567  0.00  0.00    +0.000 NA
ATOM     13  N   UNL     1       5.790   4.940  17.325  0.00  0.00    +0.000 NA
ATOM     14  H   UNL     1       8.037   6.472  15.544  0.00  0.00    +0.000 HD
ENDROOT
BRANCH   1  19
ATOM     15  C   UNL     1       2.396   3.415  19.751  0.00  0.00    +0.000 A 
ATOM     16  C   UNL     1       2.833   2.342  20.516  0.00  0.00    +0.000 A 
ATOM     17  C   UNL     1       4.200   2.136  20.632  0.00  0.00    +0.000 A 
ATOM     18  N   UNL     1       5.135   2.914  20.054  0.00  0.00    +0.000 NA
ATOM     19  C   UNL     1       4.693   3.962  19.316  0.00  0.00    +0.000 A 
ATOM     20  C   UNL     1       3.340   4.240  19.144  0.00  0.00    +0.000 A 
BRANCH  15  22
ATOM     21  C   UNL     1       0.297   2.830  18.802  0.00  0.00    +0.000 C 
ATOM     22  O   UNL     1       1.090   3.760  19.533  0.00  0.00    +0.000 OA
ENDBRANCH  15  22
ENDBRANCH   1  19
TORSDOF 2
ENDMDL
MODEL 4
REMARK VINA RESULT:      -6.9      3.376      7.040
REMARK  Name = 
REMARK  3 active torsions:
REMARK  status: ('A' for Active; 'I' for Inactive)
REMARK    1  A    between atoms: C_1  and  O_2
REMARK    2  A    between atoms: O_2  and  C_3
REMARK    3  A    between atoms: C_7  and  C_8
REMARK                            x       y       z     vdW  Elec       q    Type
REMARK                         _______ _______ _______ _____ _____    ______ ____
ROOT
ATOM      1  C   UNL     1       5.172   4.556  18.343  0.00  0.00    +0.000 A 
ATOM      2  C   UNL     1       5.997   5.245  19.209  0.00  0.00    +0.000 A 
ATOM      3  S   UNL     1       7.134   6.173  18.319  0.00  0.00    +0.000 S 
ATOM      4  C   UNL     1       6.481   5.560  16.842  0.00  0.00    +0.000 A 
ATOM      5  N   UNL     1       7.041   5.889  15.656  0.00  0.00    +0.000 N 
ATOM      6  C   UNL     1       6.927   5.155  14.474  0.00  0.00    +0.000 A 
ATOM      7  C   UNL     1       5.855   4.307  14.190  0.00  0.00    +0.000 A 
ATOM      8  C   UNL     1       5.865   3.518  13.042  0.00  0.00    +0.000 A 
ATOM      9  C   UNL     1       6.933   3.622  12.170  0.00  0.00    +0.000 A 
ATOM     10 CL   UNL     1       7.006   2.651  10.760  0.00  0.00    +0.000 Cl
ATOM     11  C   UNL     1       7.933   4.527  12.478  0.00  0.00    +0.000 A 
ATOM     12  N   UNL     1       7.951   5.292  13.602  0.00  0.00    +0.000 NA
ATOM     13  N   UNL     1       5.453   4.760  17.006  0.00  0.00    +0.000 NA
ATOM     14  H   UNL     1       7.914   6.399  15.656  0.00  0.00    +0.000 HD
ENDROOT
BRANCH   1  19
ATOM     15  C   UNL     1       2.755   2.653  20.478  0.00  0.00    +0.000 A 
ATOM     16  C   UNL     1       2.051   1.986  19.484  0.00  0.00    +0.000 A 
ATOM     17  C   UNL     1       2.411   2.211  18.165  0.00  0.00    +0.000 A 
ATOM     18  N   UNL     1       3.407   3.033  17.780  0.00  0.00    +0.000 NA
ATOM     19  C   UNL     1       4.089   3.672  18.762  0.00  0.00    +0.000 A 
ATOM     20  C   UNL     1       3.792   3.507  20.112  0.00  0.00    +0.000 A 
BRANCH  15  22
ATOM     21  C   UNL     1       1.169   2.512  22.244  0.00  0.00    +0.000 C 
ATOM     22  O   UNL     1       2.530   2.547  21.824  0.00  0.00    +0.000 OA
ENDBRANCH  15  22
ENDBRANCH   1  19
TORSDOF 2
ENDMDL
MODEL 5
REMARK VINA RESULT:      -6.8      3.024      6.599
REMARK  Name = 
REMARK  3 active torsions:
REMARK  status: ('A' for Active; 'I' for Inactive)
REMARK    1  A    between atoms: C_1  and  O_2
REMARK    2  A    between atoms: O_2  and  C_3
REMARK    3  A    between atoms: C_7  and  C_8
REMARK                            x       y       z     vdW  Elec       q    Type
REMARK                         _______ _______ _______ _____ _____    ______ ____
ROOT
ATOM      1  C   UNL     1       5.262   5.355  18.715  0.00  0.00    +0.000 A 
ATOM      2  C   UNL     1       6.392   5.655  19.446  0.00  0.00    +0.000 A 
ATOM      3  S   UNL     1       7.714   5.944  18.390  0.00  0.00    +0.000 S 
ATOM      4  C   UNL     1       6.702   5.606  17.030  0.00  0.00    +0.000 A 
ATOM      5  N   UNL     1       7.215   5.597  15.780  0.00  0.00    +0.000 N 
ATOM      6  C   UNL     1       6.667   4.929  14.683  0.00  0.00    +0.000 A 
ATOM      7  C   UNL     1       5.310   4.624  14.563  0.00  0.00    +0.000 A 
ATOM      8  C   UNL     1       4.853   3.854  13.495  0.00  0.00    +0.000 A 
ATOM      9  C   UNL     1       5.758   3.436  12.538  0.00  0.00    +0.000 A 
ATOM     10 CL   UNL     1       5.250   2.462  11.222  0.00  0.00    +0.000 Cl
ATOM     11  C   UNL     1       7.078   3.824  12.683  0.00  0.00    +0.000 A 
ATOM     12  N   UNL     1       7.548   4.559  13.726  0.00  0.00    +0.000 NA
ATOM     13  N   UNL     1       5.454   5.348  17.347  0.00  0.00    +0.000 NA
ATOM     14  H   UNL     1       8.217   5.672  15.665  0.00  0.00    +0.000 HD
ENDROOT
BRANCH   1  19
ATOM     15  C   UNL     1       2.213   3.506  19.859  0.00  0.00    +0.000 A 
ATOM     16  C   UNL     1       1.491   4.566  20.391  0.00  0.00    +0.000 A 
ATOM     17  C   UNL     1       2.059   5.830  20.349  0.00  0.00    +0.000 A 
ATOM     18  N   UNL     1       3.267   6.101  19.818  0.00  0.00    +0.000 NA
ATOM     19  C   UNL     1       3.956   5.057  19.296  0.00  0.00    +0.000 A 
ATOM     20  C   UNL     1       3.464   3.755  19.300  0.00  0.00    +0.000 A 
BRANCH  15  22
ATOM     21  C   UNL     1       0.947   1.832  18.741  0.00  0.00    +0.000 C 
ATOM     22  O   UNL     1       1.803   2.201  19.819  0.00  0.00    +0.000 OA
ENDBRANCH  15  22
ENDBRANCH   1  19
TORSDOF 2
ENDMDL
MODEL 6
REMARK VINA RESULT:      -6.6      4.186      4.740
REMARK  Name = 
REMARK  3 active torsions:
REMARK  status: ('A' for Active; 'I' for Inactive)
REMARK    1  A    between atoms: C_1  and  O_2
REMARK    2  A    between atoms: O_2  and  C_3
REMARK    3  A    between atoms: C_7  and  C_8
REMARK                            x       y       z     vdW  Elec       q    Type
REMARK                         _______ _______ _______ _____ _____    ______ ____
ROOT
ATOM      1  C   UNL     1       4.643   4.703  17.907  0.00  0.00    +0.000 A 
ATOM      2  C   UNL     1       4.779   3.798  18.940  0.00  0.00    +0.000 A 
ATOM      3  S   UNL     1       3.626   4.132  20.166  0.00  0.00    +0.000 S 
ATOM      4  C   UNL     1       3.052   5.486  19.261  0.00  0.00    +0.000 A 
ATOM      5  N   UNL     1       2.093   6.293  19.767  0.00  0.00    +0.000 N 
ATOM      6  C   UNL     1       1.861   7.616  19.385  0.00  0.00    +0.000 A 
ATOM      7  C   UNL     1       2.196   8.129  18.131  0.00  0.00    +0.000 A 
ATOM      8  C   UNL     1       2.040   9.487  17.861  0.00  0.00    +0.000 A 
ATOM      9  C   UNL     1       1.510  10.306  18.840  0.00  0.00    +0.000 A 
ATOM     10 CL   UNL     1       1.327  11.988  18.567  0.00  0.00    +0.000 Cl
ATOM     11  C   UNL     1       1.140   9.723  20.039  0.00  0.00    +0.000 A 
ATOM     12  N   UNL     1       1.301   8.405  20.329  0.00  0.00    +0.000 NA
ATOM     13  N   UNL     1       3.648   5.642  18.101  0.00  0.00    +0.000 NA
ATOM     14  H   UNL     1       1.804   6.161  20.727  0.00  0.00    +0.000 HD
ENDROOT
BRANCH   1  19
ATOM     15  C   UNL     1       5.739   4.309  14.348  0.00  0.00    +0.000 A 
ATOM     16  C   UNL     1       7.057   4.728  14.469  0.00  0.00    +0.000 A 
ATOM     17  C   UNL     1       7.505   5.126  15.720  0.00  0.00    +0.000 A 
ATOM     18  N   UNL     1       6.744   5.126  16.832  0.00  0.00    +0.000 NA
ATOM     19  C   UNL     1       5.462   4.707  16.699  0.00  0.00    +0.000 A 
ATOM     20  C   UNL     1       4.929   4.295  15.481  0.00  0.00    +0.000 A 
BRANCH  15  22
ATOM     21  C   UNL     1       5.979   3.258  12.230  0.00  0.00    +0.000 C 
ATOM     22  O   UNL     1       5.139   3.886  13.193  0.00  0.00    +0.000 OA
ENDBRANCH  15  22
ENDBRANCH   1  19
TORSDOF 2
ENDMDL
MODEL 7
REMARK VINA RESULT:      -6.6      5.005      6.139
REMARK  Name = 
REMARK  3 active torsions:
REMARK  status: ('A' for Active; 'I' for Inactive)
REMARK    1  A    between atoms: C_1  and  O_2
REMARK    2  A    between atoms: O_2  and  C_3
REMARK    3  A    between atoms: C_7  and  C_8
REMARK                            x       y       z     vdW  Elec       q    Type
REMARK                         _______ _______ _______ _____ _____    ______ ____
ROOT
ATOM      1  C   UNL     1       3.873   5.219  18.744  0.00  0.00    +0.000 A 
ATOM      2  C   UNL     1       3.723   4.353  19.808  0.00  0.00    +0.000 A 
ATOM      3  S   UNL     1       2.442   4.885  20.819  0.00  0.00    +0.000 S 
ATOM      4  C   UNL     1       2.202   6.257  19.797  0.00  0.00    +0.000 A 
ATOM      5  N   UNL     1       1.288   7.199  20.117  0.00  0.00    +0.000 N 
ATOM      6  C   UNL     1       1.294   8.521  19.669  0.00  0.00    +0.000 A 
ATOM      7  C   UNL     1       1.890   8.930  18.474  0.00  0.00    +0.000 A 
ATOM      8  C   UNL     1       1.958  10.283  18.147  0.00  0.00    +0.000 A 
ATOM      9  C   UNL     1       1.389  11.206  19.004  0.00  0.00    +0.000 A 
ATOM     10 CL   UNL     1       1.473  12.883  18.662  0.00  0.00    +0.000 Cl
ATOM     11  C   UNL     1       0.759  10.730  20.141  0.00  0.00    +0.000 A 
ATOM     12  N   UNL     1       0.698   9.417  20.487  0.00  0.00    +0.000 NA
ATOM     13  N   UNL     1       2.991   6.283  18.747  0.00  0.00    +0.000 NA
ATOM     14  H   UNL     1       0.835   7.149  21.020  0.00  0.00    +0.000 HD
ENDROOT
BRANCH   1  19
ATOM     15  C   UNL     1       6.814   5.832  16.509  0.00  0.00    +0.000 A 
ATOM     16  C   UNL     1       6.701   4.727  15.676  0.00  0.00    +0.000 A 
ATOM     17  C   UNL     1       5.662   3.838  15.907  0.00  0.00    +0.000 A 
ATOM     18  N   UNL     1       4.749   3.978  16.887  0.00  0.00    +0.000 NA
ATOM     19  C   UNL     1       4.868   5.066  17.688  0.00  0.00    +0.000 A 
ATOM     20  C   UNL     1       5.883   6.006  17.529  0.00  0.00    +0.000 A 
BRANCH  15  22
ATOM     21  C   UNL     1       7.745   7.822  17.415  0.00  0.00    +0.000 C 
ATOM     22  O   UNL     1       7.776   6.802  16.421  0.00  0.00    +0.000 OA
ENDBRANCH  15  22
ENDBRANCH   1  19
TORSDOF 2
ENDMDL
MODEL 8
REMARK VINA RESULT:      -6.6      3.852      4.913
REMARK  Name = 
REMARK  3 active torsions:
REMARK  status: ('A' for Active; 'I' for Inactive)
REMARK    1  A    between atoms: C_1  and  O_2
REMARK    2  A    between atoms: O_2  and  C_3
REMARK    3  A    between atoms: C_7  and  C_8
REMARK                            x       y       z     vdW  Elec       q    Type
REMARK                         _______ _______ _______ _____ _____    ______ ____
ROOT
ATOM      1  C   UNL     1       4.387   3.982  18.853  0.00  0.00    +0.000 A 
ATOM      2  C   UNL     1       4.408   2.914  19.727  0.00  0.00    +0.000 A 
ATOM      3  S   UNL     1       3.121   3.055  20.853  0.00  0.00    +0.000 S 
ATOM      4  C   UNL     1       2.650   4.552  20.130  0.00  0.00    +0.000 A 
ATOM      5  N   UNL     1       1.636   5.276  20.653  0.00  0.00    +0.000 N 
ATOM      6  C   UNL     1       1.444   6.648  20.477  0.00  0.00    +0.000 A 
ATOM      7  C   UNL     1       1.918   7.359  19.374  0.00  0.00    +0.000 A 
ATOM      8  C   UNL     1       1.789   8.746  19.320  0.00  0.00    +0.000 A 
ATOM      9  C   UNL     1       1.147   9.397  20.357  0.00  0.00    +0.000 A 
ATOM     10 CL   UNL     1       0.990  11.103  20.353  0.00  0.00    +0.000 Cl
ATOM     11  C   UNL     1       0.645   8.627  21.391  0.00  0.00    +0.000 A 
ATOM     12  N   UNL     1       0.776   7.276  21.471  0.00  0.00    +0.000 NA
ATOM     13  N   UNL     1       3.373   4.891  19.089  0.00  0.00    +0.000 NA
ATOM     14  H   UNL     1       1.240   4.989  21.538  0.00  0.00    +0.000 HD
ENDROOT
BRANCH   1  19
ATOM     15  C   UNL     1       5.848   4.344  15.424  0.00  0.00    +0.000 A 
ATOM     16  C   UNL     1       7.180   4.538  15.764  0.00  0.00    +0.000 A 
ATOM     17  C   UNL     1       7.517   4.546  17.109  0.00  0.00    +0.000 A 
ATOM     18  N   UNL     1       6.635   4.373  18.112  0.00  0.00    +0.000 NA
ATOM     19  C   UNL     1       5.339   4.177  17.764  0.00  0.00    +0.000 A 
ATOM     20  C   UNL     1       4.913   4.158  16.439  0.00  0.00    +0.000 A 
BRANCH  15  22
ATOM     21  C   UNL     1       6.130   3.629  13.174  0.00  0.00    +0.000 C 
ATOM     22  O   UNL     1       5.346   4.308  14.151  0.00  0.00    +0.000 OA
ENDBRANCH  15  22
ENDBRANCH   1  19
TORSDOF 2
ENDMDL
MODEL 9
REMARK VINA RESULT:      -6.6      4.240      5.494
REMARK  Name = 
REMARK  3 active torsions:
REMARK  status: ('A' for Active; 'I' for Inactive)
REMARK    1  A    between atoms: C_1  and  O_2
REMARK    2  A    between atoms: O_2  and  C_3
REMARK    3  A    between atoms: C_7  and  C_8
REMARK                            x       y       z     vdW  Elec       q    Type
REMARK                         _______ _______ _______ _____ _____    ______ ____
ROOT
ATOM      1  C   UNL     1       4.300   4.377  18.648  0.00  0.00    +0.000 A 
ATOM      2  C   UNL     1       4.357   3.316  19.527  0.00  0.00    +0.000 A 
ATOM      3  S   UNL     1       3.123   3.469  20.711  0.00  0.00    +0.000 S 
ATOM      4  C   UNL     1       2.624   4.962  19.999  0.00  0.00    +0.000 A 
ATOM      5  N   UNL     1       1.638   5.694  20.562  0.00  0.00    +0.000 N 
ATOM      6  C   UNL     1       1.442   7.066  20.384  0.00  0.00    +0.000 A 
ATOM      7  C   UNL     1       1.868   7.767  19.255  0.00  0.00    +0.000 A 
ATOM      8  C   UNL     1       1.742   9.154  19.198  0.00  0.00    +0.000 A 
ATOM      9  C   UNL     1       1.150   9.815  20.258  0.00  0.00    +0.000 A 
ATOM     10 CL   UNL     1       0.998  11.522  20.248  0.00  0.00    +0.000 Cl
ATOM     11  C   UNL     1       0.692   9.054  21.319  0.00  0.00    +0.000 A 
ATOM     12  N   UNL     1       0.823   7.703  21.403  0.00  0.00    +0.000 NA
ATOM     13  N   UNL     1       3.301   5.291  18.922  0.00  0.00    +0.000 NA
ATOM     14  H   UNL     1       1.281   5.416  21.466  0.00  0.00    +0.000 HD
ENDROOT
BRANCH   1  19
ATOM     15  C   UNL     1       6.938   5.778  16.389  0.00  0.00    +0.000 A 
ATOM     16  C   UNL     1       6.861   4.858  15.352  0.00  0.00    +0.000 A 
ATOM     17  C   UNL     1       5.947   3.821  15.465  0.00  0.00    +0.000 A 
ATOM     18  N   UNL     1       5.121   3.650  16.514  0.00  0.00    +0.000 NA
ATOM     19  C   UNL     1       5.202   4.561  17.515  0.00  0.00    +0.000 A 
ATOM     20  C   UNL     1       6.093   5.630  17.487  0.00  0.00    +0.000 A 
BRANCH  15  22
ATOM     21  C   UNL     1       7.648   7.717  17.567  0.00  0.00    +0.000 C 
ATOM     22  O   UNL     1       7.780   6.856  16.440  0.00  0.00    +0.000 OA
ENDBRANCH  15  22
ENDBRANCH   1  19
TORSDOF 2
ENDMDL
