MODEL 1
REMARK VINA RESULT:      -6.0      0.000      0.000
REMARK  Name = 
REMARK  2 active torsions:
REMARK  status: ('A' for Active; 'I' for Inactive)
REMARK    1  A    between atoms: C_2  and  C_3
REMARK    2  A    between atoms: C_6  and  C_7
REMARK                            x       y       z     vdW  Elec       q    Type
REMARK                         _______ _______ _______ _____ _____    ______ ____
ROOT
ATOM      1  C   UNL     1       2.492   4.816  19.294  0.00  0.00    +0.000 C 
ATOM      2  C   UNL     1       1.702   3.823  18.458  0.00  0.00    +0.000 C 
ATOM      3  C   UNL     1       2.640   3.595  17.299  0.00  0.00    +0.000 C 
ATOM      4  C   UNL     1       4.007   3.599  17.976  0.00  0.00    +0.000 C 
ATOM      5  O   UNL     1       3.869   4.411  19.163  0.00  0.00    +0.000 OA
ENDROOT
BRANCH   4   6
ATOM      6  C   UNL     1       5.116   4.086  17.080  0.00  0.00    +0.000 A 
ATOM      7  C   UNL     1       4.973   4.216  15.696  0.00  0.00    +0.000 A 
ATOM      8  C   UNL     1       6.038   4.673  14.924  0.00  0.00    +0.000 A 
ATOM      9  C   UNL     1       7.223   4.993  15.566  0.00  0.00    +0.000 A 
ATOM     10  N   UNL     1       7.402   4.893  16.899  0.00  0.00    +0.000 NA
ATOM     11  C   UNL     1       6.348   4.449  17.621  0.00  0.00    +0.000 A 
ENDBRANCH   4   6
BRANCH   1  13
ATOM     12 BR   UNL     1       1.941   3.065  21.500  0.00  0.00    +0.000 Br
ATOM     13  C   UNL     1       2.115   4.855  20.765  0.00  0.00    +0.000 C 
ENDBRANCH   1  13
TORSDOF 2
ENDMDL
MODEL 2
REMARK VINA RESULT:      -5.9      3.116      4.952
REMARK  Name = 
REMARK  2 active torsions:
REMARK  status: ('A' for Active; 'I' for Inactive)
REMARK    1  A    between atoms: C_2  and  C_3
REMARK    2  A    between atoms: C_6  and  C_7
REMARK                            x       y       z     vdW  Elec       q    Type
REMARK                         _______ _______ _______ _____ _____    ______ ____
ROOT
ATOM      1  C   UNL     1       6.940   5.062  18.153  0.00  0.00    +0.000 C 
ATOM      2  C   UNL     1       7.098   4.803  16.665  0.00  0.00    +0.000 C 
ATOM      3  C   UNL     1       5.792   4.124  16.338  0.00  0.00    +0.000 C 
ATOM      4  C   UNL     1       4.797   4.888  17.208  0.00  0.00    +0.000 C 
ATOM      5  O   UNL     1       5.548   5.391  18.335  0.00  0.00    +0.000 OA
ENDROOT
BRANCH   4   6
ATOM      6  C   UNL     1       3.617   4.056  17.636  0.00  0.00    +0.000 A 
ATOM      7  C   UNL     1       2.334   4.584  17.801  0.00  0.00    +0.000 A 
ATOM      8  C   UNL     1       1.285   3.760  18.200  0.00  0.00    +0.000 A 
ATOM      9  C   UNL     1       1.553   2.419  18.419  0.00  0.00    +0.000 A 
ATOM     10  N   UNL     1       2.772   1.864  18.262  0.00  0.00    +0.000 NA
ATOM     11  C   UNL     1       3.769   2.691  17.872  0.00  0.00    +0.000 A 
ENDBRANCH   4   6
BRANCH   1  13
ATOM     12 BR   UNL     1       7.651   7.790  17.612  0.00  0.00    +0.000 Br
ATOM     13  C   UNL     1       7.799   6.188  18.702  0.00  0.00    +0.000 C 
ENDBRANCH   1  13
TORSDOF 2
ENDMDL
MODEL 3
REMARK VINA RESULT:      -5.8      1.533      2.045
REMARK  Name = 
REMARK  2 active torsions:
REMARK  status: ('A' for Active; 'I' for Inactive)
REMARK    1  A    between atoms: C_2  and  C_3
REMARK    2  A    between atoms: C_6  and  C_7
REMARK                            x       y       z     vdW  Elec       q    Type
REMARK                         _______ _______ _______ _____ _____    ______ ____
ROOT
ATOM      1  C   UNL     1       2.042   4.512  18.971  0.00  0.00    +0.000 C 
ATOM      2  C   UNL     1       2.065   3.527  17.815  0.00  0.00    +0.000 C 
ATOM      3  C   UNL     1       3.381   3.862  17.162  0.00  0.00    +0.000 C 
ATOM      4  C   UNL     1       4.280   4.150  18.360  0.00  0.00    +0.000 C 
ATOM      5  O   UNL     1       3.408   4.600  19.421  0.00  0.00    +0.000 OA
ENDROOT
BRANCH   4   6
ATOM      6  C   UNL     1       5.373   5.143  18.063  0.00  0.00    +0.000 A 
ATOM      7  C   UNL     1       6.493   5.310  18.882  0.00  0.00    +0.000 A 
ATOM      8  C   UNL     1       7.468   6.247  18.549  0.00  0.00    +0.000 A 
ATOM      9  C   UNL     1       7.294   6.992  17.395  0.00  0.00    +0.000 A 
ATOM     10  N   UNL     1       6.236   6.857  16.570  0.00  0.00    +0.000 NA
ATOM     11  C   UNL     1       5.308   5.937  16.919  0.00  0.00    +0.000 A 
ENDBRANCH   4   6
BRANCH   1  13
ATOM     12 BR   UNL     1       2.141   3.096  21.466  0.00  0.00    +0.000 Br
ATOM     13  C   UNL     1       1.153   4.111  20.136  0.00  0.00    +0.000 C 
ENDBRANCH   1  13
TORSDOF 2
ENDMDL
MODEL 4
REMARK VINA RESULT:      -5.8      1.456      1.818
REMARK  Name = 
REMARK  2 active torsions:
REMARK  status: ('A' for Active; 'I' for Inactive)
REMARK    1  A    between atoms: C_2  and  C_3
REMARK    2  A    between atoms: C_6  and  C_7
REMARK                            x       y       z     vdW  Elec       q    Type
REMARK                         _______ _______ _______ _____ _____    ______ ____
ROOT
ATOM      1  C   UNL     1       2.977   3.201  18.309  0.00  0.00    +0.000 C 
ATOM      2  C   UNL     1       3.864   3.541  19.494  0.00  0.00    +0.000 C 
ATOM      3  C   UNL     1       5.111   4.033  18.803  0.00  0.00    +0.000 C 
ATOM      4  C   UNL     1       4.546   4.803  17.613  0.00  0.00    +0.000 C 
ATOM      5  O   UNL     1       3.261   4.210  17.320  0.00  0.00    +0.000 OA
ENDROOT
BRANCH   4   6
ATOM      6  C   UNL     1       5.458   4.805  16.414  0.00  0.00    +0.000 A 
ATOM      7  C   UNL     1       5.182   4.087  15.247  0.00  0.00    +0.000 A 
ATOM      8  C   UNL     1       6.068   4.131  14.174  0.00  0.00    +0.000 A 
ATOM      9  C   UNL     1       7.211   4.902  14.299  0.00  0.00    +0.000 A 
ATOM     10  N   UNL     1       7.513   5.619  15.402  0.00  0.00    +0.000 NA
ATOM     11  C   UNL     1       6.631   5.557  16.425  0.00  0.00    +0.000 A 
ENDBRANCH   4   6
BRANCH   1  13
ATOM     12 BR   UNL     1       1.136   3.575  20.480  0.00  0.00    +0.000 Br
ATOM     13  C   UNL     1       1.487   3.195  18.607  0.00  0.00    +0.000 C 
ENDBRANCH   1  13
TORSDOF 2
ENDMDL
MODEL 5
REMARK VINA RESULT:      -5.8      3.129      5.224
REMARK  Name = 
REMARK  2 active torsions:
REMARK  status: ('A' for Active; 'I' for Inactive)
REMARK    1  A    between atoms: C_2  and  C_3
REMARK    2  A    between atoms: C_6  and  C_7
REMARK                            x       y       z     vdW  Elec       q    Type
REMARK                         _______ _______ _______ _____ _____    ______ ____
ROOT
ATOM      1  C   UNL     1       6.305   4.820  18.255  0.00  0.00    +0.000 C 
ATOM      2  C   UNL     1       6.079   4.751  16.755  0.00  0.00    +0.000 C 
ATOM      3  C   UNL     1       4.639   4.309  16.688  0.00  0.00    +0.000 C 
ATOM      4  C   UNL     1       4.006   5.073  17.848  0.00  0.00    +0.000 C 
ATOM      5  O   UNL     1       5.064   5.307  18.804  0.00  0.00    +0.000 OA
ENDROOT
BRANCH   4   6
ATOM      6  C   UNL     1       2.831   4.358  18.463  0.00  0.00    +0.000 A 
ATOM      7  C   UNL     1       2.272   4.731  19.689  0.00  0.00    +0.000 A 
ATOM      8  C   UNL     1       1.186   4.028  20.203  0.00  0.00    +0.000 A 
ATOM      9  C   UNL     1       0.684   2.967  19.467  0.00  0.00    +0.000 A 
ATOM     10  N   UNL     1       1.185   2.580  18.276  0.00  0.00    +0.000 NA
ATOM     11  C   UNL     1       2.238   3.284  17.803  0.00  0.00    +0.000 A 
ENDBRANCH   4   6
BRANCH   1  13
ATOM     12 BR   UNL     1       7.521   7.335  17.597  0.00  0.00    +0.000 Br
ATOM     13  C   UNL     1       7.440   5.731  18.690  0.00  0.00    +0.000 C 
ENDBRANCH   1  13
TORSDOF 2
ENDMDL
MODEL 6
REMARK VINA RESULT:      -5.7      3.668      5.566
REMARK  Name = 
REMARK  2 active torsions:
REMARK  status: ('A' for Active; 'I' for Inactive)
REMARK    1  A    between atoms: C_2  and  C_3
REMARK    2  A    between atoms: C_6  and  C_7
REMARK                            x       y       z     vdW  Elec       q    Type
REMARK                         _______ _______ _______ _____ _____    ______ ____
ROOT
ATOM      1  C   UNL     1       5.386   4.683  15.140  0.00  0.00    +0.000 C 
ATOM      2  C   UNL     1       5.462   5.998  15.896  0.00  0.00    +0.000 C 
ATOM      3  C   UNL     1       4.469   5.764  17.005  0.00  0.00    +0.000 C 
ATOM      4  C   UNL     1       4.703   4.297  17.353  0.00  0.00    +0.000 C 
ATOM      5  O   UNL     1       5.211   3.673  16.152  0.00  0.00    +0.000 OA
ENDROOT
BRANCH   4   6
ATOM      6  C   UNL     1       3.473   3.603  17.877  0.00  0.00    +0.000 A 
ATOM      7  C   UNL     1       3.528   2.517  18.755  0.00  0.00    +0.000 A 
ATOM      8  C   UNL     1       2.352   1.921  19.202  0.00  0.00    +0.000 A 
ATOM      9  C   UNL     1       1.146   2.436  18.759  0.00  0.00    +0.000 A 
ATOM     10  N   UNL     1       1.045   3.489  17.922  0.00  0.00    +0.000 NA
ATOM     11  C   UNL     1       2.205   4.047  17.507  0.00  0.00    +0.000 A 
ENDBRANCH   4   6
BRANCH   1  13
ATOM     12 BR   UNL     1       6.117   3.550  12.606  0.00  0.00    +0.000 Br
ATOM     13  C   UNL     1       6.611   4.353  14.305  0.00  0.00    +0.000 C 
ENDBRANCH   1  13
TORSDOF 2
ENDMDL
MODEL 7
REMARK VINA RESULT:      -5.7      3.181      5.154
REMARK  Name = 
REMARK  2 active torsions:
REMARK  status: ('A' for Active; 'I' for Inactive)
REMARK    1  A    between atoms: C_2  and  C_3
REMARK    2  A    between atoms: C_6  and  C_7
REMARK                            x       y       z     vdW  Elec       q    Type
REMARK                         _______ _______ _______ _____ _____    ______ ____
ROOT
ATOM      1  C   UNL     1       6.383   4.861  18.365  0.00  0.00    +0.000 C 
ATOM      2  C   UNL     1       6.114   4.703  16.879  0.00  0.00    +0.000 C 
ATOM      3  C   UNL     1       4.672   4.261  16.881  0.00  0.00    +0.000 C 
ATOM      4  C   UNL     1       4.074   5.095  18.010  0.00  0.00    +0.000 C 
ATOM      5  O   UNL     1       5.159   5.384  18.919  0.00  0.00    +0.000 OA
ENDROOT
BRANCH   4   6
ATOM      6  C   UNL     1       2.917   4.422  18.701  0.00  0.00    +0.000 A 
ATOM      7  C   UNL     1       2.068   3.518  18.057  0.00  0.00    +0.000 A 
ATOM      8  C   UNL     1       1.016   2.930  18.754  0.00  0.00    +0.000 A 
ATOM      9  C   UNL     1       0.846   3.263  20.088  0.00  0.00    +0.000 A 
ATOM     10  N   UNL     1       1.647   4.122  20.752  0.00  0.00    +0.000 NA
ATOM     11  C   UNL     1       2.661   4.674  20.048  0.00  0.00    +0.000 A 
ENDBRANCH   4   6
BRANCH   1  13
ATOM     12 BR   UNL     1       7.537   7.366  17.570  0.00  0.00    +0.000 Br
ATOM     13  C   UNL     1       7.531   5.794  18.711  0.00  0.00    +0.000 C 
ENDBRANCH   1  13
TORSDOF 2
ENDMDL
MODEL 8
REMARK VINA RESULT:      -5.7      3.413      5.383
REMARK  Name = 
REMARK  2 active torsions:
REMARK  status: ('A' for Active; 'I' for Inactive)
REMARK    1  A    between atoms: C_2  and  C_3
REMARK    2  A    between atoms: C_6  and  C_7
REMARK                            x       y       z     vdW  Elec       q    Type
REMARK                         _______ _______ _______ _____ _____    ______ ____
ROOT
ATOM      1  C   UNL     1       5.838   5.656  17.958  0.00  0.00    +0.000 C 
ATOM      2  C   UNL     1       5.136   6.825  17.288  0.00  0.00    +0.000 C 
ATOM      3  C   UNL     1       3.688   6.467  17.502  0.00  0.00    +0.000 C 
ATOM      4  C   UNL     1       3.699   5.867  18.905  0.00  0.00    +0.000 C 
ATOM      5  O   UNL     1       5.028   5.335  19.106  0.00  0.00    +0.000 OA
ENDROOT
BRANCH   4   6
ATOM      6  C   UNL     1       2.631   4.828  19.120  0.00  0.00    +0.000 A 
ATOM      7  C   UNL     1       2.020   4.610  20.359  0.00  0.00    +0.000 A 
ATOM      8  C   UNL     1       1.039   3.632  20.490  0.00  0.00    +0.000 A 
ATOM      9  C   UNL     1       0.690   2.898  19.368  0.00  0.00    +0.000 A 
ATOM     10  N   UNL     1       1.245   3.081  18.152  0.00  0.00    +0.000 NA
ATOM     11  C   UNL     1       2.194   4.040  18.057  0.00  0.00    +0.000 A 
ENDBRANCH   4   6
BRANCH   1  13
ATOM     12 BR   UNL     1       7.834   7.717  17.879  0.00  0.00    +0.000 Br
ATOM     13  C   UNL     1       7.261   5.938  18.409  0.00  0.00    +0.000 C 
ENDBRANCH   1  13
TORSDOF 2
ENDMDL
MODEL 9
REMARK VINA RESULT:      -5.7      1.264      1.451
REMARK  Name = 
REMARK  2 active torsions:
REMARK  status: ('A' for Active; 'I' for Inactive)
REMARK    1  A    between atoms: C_2  and  C_3
REMARK    2  A    between atoms: C_6  and  C_7
REMARK                            x       y       z     vdW  Elec       q    Type
REMARK                         _______ _______ _______ _____ _____    ______ ____
ROOT
ATOM      1  C   UNL     1       1.541   3.974  19.039  0.00  0.00    +0.000 C 
ATOM      2  C   UNL     1       1.490   2.560  18.487  0.00  0.00    +0.000 C 
ATOM      3  C   UNL     1       2.558   2.615  17.424  0.00  0.00    +0.000 C 
ATOM      4  C   UNL     1       3.627   3.488  18.075  0.00  0.00    +0.000 C 
ATOM      5  O   UNL     1       2.935   4.341  19.015  0.00  0.00    +0.000 OA
ENDROOT
BRANCH   4   6
ATOM      6  C   UNL     1       4.440   4.278  17.083  0.00  0.00    +0.000 A 
ATOM      7  C   UNL     1       4.385   5.672  16.993  0.00  0.00    +0.000 A 
ATOM      8  C   UNL     1       5.163   6.341  16.052  0.00  0.00    +0.000 A 
ATOM      9  C   UNL     1       5.983   5.591  15.226  0.00  0.00    +0.000 A 
ATOM     10  N   UNL     1       6.075   4.246  15.285  0.00  0.00    +0.000 NA
ATOM     11  C   UNL     1       5.309   3.626  16.211  0.00  0.00    +0.000 A 
ENDBRANCH   4   6
BRANCH   1  13
ATOM     12 BR   UNL     1       1.723   2.767  21.637  0.00  0.00    +0.000 Br
ATOM     13  C   UNL     1       1.004   4.129  20.452  0.00  0.00    +0.000 C 
ENDBRANCH   1  13
TORSDOF 2
ENDMDL
