MODEL 1
REMARK VINA RESULT:      -9.6      0.000      0.000
REMARK  Name = 
REMARK  5 active torsions:
REMARK  status: ('A' for Active; 'I' for Inactive)
REMARK    1  A    between atoms: C_2  and  C_3
REMARK    2  A    between atoms: C_4  and  C_5
REMARK    3  A    between atoms: C_8  and  C_9
REMARK    4  A    between atoms: C_9  and  O_11
REMARK    5  A    between atoms: C_23  and  C_24
REMARK                            x       y       z     vdW  Elec       q    Type
REMARK                         _______ _______ _______ _____ _____    ______ ____
ROOT
ATOM      1  C   UNL     1       3.205   4.538  19.862  0.00  0.00    +0.000 A 
ATOM      2  C   UNL     1       3.366   5.615  19.057  0.00  0.00    +0.000 A 
ATOM      3  C   UNL     1       2.654   6.866  19.372  0.00  0.00    +0.000 A 
ATOM      4  C   UNL     1       1.862   6.944  20.461  0.00  0.00    +0.000 A 
ATOM      5  N   UNL     1       1.718   5.846  21.268  0.00  0.00    +0.000 N 
ATOM      6  C   UNL     1       2.327   4.640  21.058  0.00  0.00    +0.000 A 
ATOM      7  O   UNL     1       2.139   3.703  21.825  0.00  0.00    +0.000 OA
ATOM      8  C   UNL     1       1.127   8.196  20.780  0.00  0.00    +0.000 A 
ATOM      9  C   UNL     1       0.654   8.458  22.074  0.00  0.00    +0.000 A 
ATOM     10  C   UNL     1      -0.079   9.609  22.344  0.00  0.00    +0.000 A 
ATOM     11  C   UNL     1      -0.355  10.513  21.321  0.00  0.00    +0.000 A 
ATOM     12  C   UNL     1       0.117  10.304  20.014  0.00  0.00    +0.000 A 
ATOM     13  C   UNL     1       0.889   9.147  19.750  0.00  0.00    +0.000 A 
ATOM     14  C   UNL     1       1.464   8.839  18.383  0.00  0.00    +0.000 C 
ATOM     15  C   UNL     1       2.776   8.057  18.456  0.00  0.00    +0.000 C 
ATOM     16  H   UNL     1       1.093   5.868  22.063  0.00  0.00    +0.000 HD
ENDROOT
BRANCH   2  17
ATOM     17  C   UNL     1       4.248   5.468  17.871  0.00  0.00    +0.000 A 
ATOM     18  C   UNL     1       3.863   4.642  16.805  0.00  0.00    +0.000 A 
ATOM     19  C   UNL     1       4.709   4.470  15.706  0.00  0.00    +0.000 A 
ATOM     20  C   UNL     1       5.947   5.125  15.653  0.00  0.00    +0.000 A 
ATOM     21  C   UNL     1       6.329   5.964  16.707  0.00  0.00    +0.000 A 
ATOM     22  C   UNL     1       5.483   6.130  17.813  0.00  0.00    +0.000 A 
BRANCH  20  23
ATOM     23  C   UNL     1       6.766   4.953  14.422  0.00  0.00    +0.000 C 
ATOM     24  O   UNL     1       7.781   5.597  14.219  0.00  0.00    +0.000 OA
BRANCH  23  25
ATOM     25  O   UNL     1       6.290   4.042  13.547  0.00  0.00    +0.000 OA
ATOM     26  H   UNL     1       6.776   3.199  13.510  0.00  0.00    +0.000 HD
ENDBRANCH  23  25
ENDBRANCH  20  23
ENDBRANCH   2  17
BRANCH  12  27
ATOM     27  C   UNL     1      -0.215  11.291  18.988  0.00  0.00    +0.000 A 
ATOM     28  C   UNL     1       0.401  12.511  18.610  0.00  0.00    +0.000 A 
ATOM     29  N   UNL     1      -0.245  13.139  17.624  0.00  0.00    +0.000 NA
ATOM     30  N   UNL     1      -1.259  12.311  17.336  0.00  0.00    +0.000 N 
ATOM     31  C   UNL     1      -1.281  11.191  18.115  0.00  0.00    +0.000 A 
ATOM     32  H   UNL     1      -1.899  12.574  16.595  0.00  0.00    +0.000 HD
ENDBRANCH  12  27
BRANCH   1  34
ATOM     33  N   UNL     1       4.290   2.230  19.452  0.00  0.00    +0.000 NA
ATOM     34  C   UNL     1       3.826   3.282  19.627  0.00  0.00    +0.000 C 
ENDBRANCH   1  34
TORSDOF 5
ENDMDL
MODEL 2
REMARK VINA RESULT:      -9.2      0.307      1.120
REMARK  Name = 
REMARK  5 active torsions:
REMARK  status: ('A' for Active; 'I' for Inactive)
REMARK    1  A    between atoms: C_2  and  C_3
REMARK    2  A    between atoms: C_4  and  C_5
REMARK    3  A    between atoms: C_8  and  C_9
REMARK    4  A    between atoms: C_9  and  O_11
REMARK    5  A    between atoms: C_23  and  C_24
REMARK                            x       y       z     vdW  Elec       q    Type
REMARK                         _______ _______ _______ _____ _____    ______ ____
ROOT
ATOM      1  C   UNL     1       3.202   4.307  19.910  0.00  0.00    +0.000 A 
ATOM      2  C   UNL     1       3.403   5.384  19.114  0.00  0.00    +0.000 A 
ATOM      3  C   UNL     1       2.749   6.662  19.448  0.00  0.00    +0.000 A 
ATOM      4  C   UNL     1       1.972   6.764  20.545  0.00  0.00    +0.000 A 
ATOM      5  N   UNL     1       1.787   5.666  21.343  0.00  0.00    +0.000 N 
ATOM      6  C   UNL     1       2.340   4.436  21.115  0.00  0.00    +0.000 A 
ATOM      7  O   UNL     1       2.118   3.501  21.875  0.00  0.00    +0.000 OA
ATOM      8  C   UNL     1       1.296   8.044  20.883  0.00  0.00    +0.000 A 
ATOM      9  C   UNL     1       0.846   8.313  22.184  0.00  0.00    +0.000 A 
ATOM     10  C   UNL     1       0.168   9.494  22.472  0.00  0.00    +0.000 A 
ATOM     11  C   UNL     1      -0.077  10.419  21.460  0.00  0.00    +0.000 A 
ATOM     12  C   UNL     1       0.373  10.202  20.146  0.00  0.00    +0.000 A 
ATOM     13  C   UNL     1       1.091   9.014  19.864  0.00  0.00    +0.000 A 
ATOM     14  C   UNL     1       1.639   8.696  18.488  0.00  0.00    +0.000 C 
ATOM     15  C   UNL     1       2.916   7.855  18.542  0.00  0.00    +0.000 C 
ATOM     16  H   UNL     1       1.171   5.707  22.143  0.00  0.00    +0.000 HD
ENDROOT
BRANCH   2  17
ATOM     17  C   UNL     1       4.267   5.210  17.918  0.00  0.00    +0.000 A 
ATOM     18  C   UNL     1       5.510   5.854  17.846  0.00  0.00    +0.000 A 
ATOM     19  C   UNL     1       6.306   5.724  16.705  0.00  0.00    +0.000 A 
ATOM     20  C   UNL     1       5.875   4.946  15.623  0.00  0.00    +0.000 A 
ATOM     21  C   UNL     1       4.640   4.287  15.695  0.00  0.00    +0.000 A 
ATOM     22  C   UNL     1       3.839   4.424  16.837  0.00  0.00    +0.000 A 
BRANCH  20  23
ATOM     23  C   UNL     1       6.802   4.794  14.469  0.00  0.00    +0.000 C 
ATOM     24  O   UNL     1       7.687   5.599  14.232  0.00  0.00    +0.000 OA
BRANCH  23  25
ATOM     25  O   UNL     1       6.579   3.706  13.701  0.00  0.00    +0.000 OA
ATOM     26  H   UNL     1       5.702   3.660  13.280  0.00  0.00    +0.000 HD
ENDBRANCH  23  25
ENDBRANCH  20  23
ENDBRANCH   2  17
BRANCH  12  27
ATOM     27  C   UNL     1       0.076  11.213  19.133  0.00  0.00    +0.000 A 
ATOM     28  C   UNL     1      -1.075  11.456  18.342  0.00  0.00    +0.000 A 
ATOM     29  N   UNL     1      -0.925  12.483  17.502  0.00  0.00    +0.000 NA
ATOM     30  N   UNL     1       0.309  12.931  17.772  0.00  0.00    +0.000 N 
ATOM     31  C   UNL     1       0.945  12.214  18.744  0.00  0.00    +0.000 A 
ATOM     32  H   UNL     1       0.654  13.732  17.255  0.00  0.00    +0.000 HD
ENDBRANCH  12  27
BRANCH   1  34
ATOM     33  N   UNL     1       4.259   1.988  19.490  0.00  0.00    +0.000 NA
ATOM     34  C   UNL     1       3.765   3.028  19.657  0.00  0.00    +0.000 C 
ENDBRANCH   1  34
TORSDOF 5
ENDMDL
MODEL 3
REMARK VINA RESULT:      -8.6      0.963      1.032
REMARK  Name = 
REMARK  5 active torsions:
REMARK  status: ('A' for Active; 'I' for Inactive)
REMARK    1  A    between atoms: C_2  and  C_3
REMARK    2  A    between atoms: C_4  and  C_5
REMARK    3  A    between atoms: C_8  and  C_9
REMARK    4  A    between atoms: C_9  and  O_11
REMARK    5  A    between atoms: C_23  and  C_24
REMARK                            x       y       z     vdW  Elec       q    Type
REMARK                         _______ _______ _______ _____ _____    ______ ____
ROOT
ATOM      1  C   UNL     1       3.142   4.046  18.828  0.00  0.00    +0.000 A 
ATOM      2  C   UNL     1       3.537   5.220  18.280  0.00  0.00    +0.000 A 
ATOM      3  C   UNL     1       2.979   6.483  18.797  0.00  0.00    +0.000 A 
ATOM      4  C   UNL     1       2.099   6.472  19.818  0.00  0.00    +0.000 A 
ATOM      5  N   UNL     1       1.718   5.275  20.365  0.00  0.00    +0.000 N 
ATOM      6  C   UNL     1       2.169   4.052  19.952  0.00  0.00    +0.000 A 
ATOM      7  O   UNL     1       1.771   3.025  20.491  0.00  0.00    +0.000 OA
ATOM      8  C   UNL     1       1.519   7.739  20.337  0.00  0.00    +0.000 A 
ATOM      9  C   UNL     1       0.957   7.814  21.620  0.00  0.00    +0.000 A 
ATOM     10  C   UNL     1       0.371   8.993  22.071  0.00  0.00    +0.000 A 
ATOM     11  C   UNL     1       0.333  10.112  21.242  0.00  0.00    +0.000 A 
ATOM     12  C   UNL     1       0.902  10.089  19.957  0.00  0.00    +0.000 A 
ATOM     13  C   UNL     1       1.526   8.897  19.514  0.00  0.00    +0.000 A 
ATOM     14  C   UNL     1       2.190   8.776  18.158  0.00  0.00    +0.000 C 
ATOM     15  C   UNL     1       3.363   7.795  18.160  0.00  0.00    +0.000 C 
ATOM     16  H   UNL     1       1.024   5.241  21.100  0.00  0.00    +0.000 HD
ENDROOT
BRANCH   2  17
ATOM     17  C   UNL     1       4.506   5.169  17.156  0.00  0.00    +0.000 A 
ATOM     18  C   UNL     1       4.125   4.626  15.920  0.00  0.00    +0.000 A 
ATOM     19  C   UNL     1       5.047   4.539  14.874  0.00  0.00    +0.000 A 
ATOM     20  C   UNL     1       6.359   4.999  15.044  0.00  0.00    +0.000 A 
ATOM     21  C   UNL     1       6.741   5.558  16.271  0.00  0.00    +0.000 A 
ATOM     22  C   UNL     1       5.818   5.637  17.322  0.00  0.00    +0.000 A 
BRANCH  20  23
ATOM     23  C   UNL     1       7.269   4.942  13.867  0.00  0.00    +0.000 C 
ATOM     24  O   UNL     1       8.250   5.658  13.765  0.00  0.00    +0.000 OA
BRANCH  23  25
ATOM     25  O   UNL     1       6.915   4.047  12.921  0.00  0.00    +0.000 OA
ATOM     26  H   UNL     1       7.635   3.737  12.343  0.00  0.00    +0.000 HD
ENDBRANCH  23  25
ENDBRANCH  20  23
ENDBRANCH   2  17
BRANCH  12  27
ATOM     27  C   UNL     1       0.822  11.298  19.139  0.00  0.00    +0.000 A 
ATOM     28  C   UNL     1       1.812  12.202  18.679  0.00  0.00    +0.000 A 
ATOM     29  N   UNL     1       1.309  13.213  17.967  0.00  0.00    +0.000 NA
ATOM     30  N   UNL     1      -0.004  12.947  17.933  0.00  0.00    +0.000 N 
ATOM     31  C   UNL     1      -0.346  11.812  18.609  0.00  0.00    +0.000 A 
ATOM     32  H   UNL     1      -0.611  13.584  17.428  0.00  0.00    +0.000 HD
ENDBRANCH  12  27
BRANCH   1  34
ATOM     33  N   UNL     1       3.926   1.730  17.996  0.00  0.00    +0.000 NA
ATOM     34  C   UNL     1       3.600   2.778  18.381  0.00  0.00    +0.000 C 
ENDBRANCH   1  34
TORSDOF 5
ENDMDL
MODEL 4
REMARK VINA RESULT:      -6.9      5.582      8.275
REMARK  Name = 
REMARK  5 active torsions:
REMARK  status: ('A' for Active; 'I' for Inactive)
REMARK    1  A    between atoms: C_2  and  C_3
REMARK    2  A    between atoms: C_4  and  C_5
REMARK    3  A    between atoms: C_8  and  C_9
REMARK    4  A    between atoms: C_9  and  O_11
REMARK    5  A    between atoms: C_23  and  C_24
REMARK                            x       y       z     vdW  Elec       q    Type
REMARK                         _______ _______ _______ _____ _____    ______ ____
ROOT
ATOM      1  C   UNL     1      -0.068  10.727  19.842  0.00  0.00    +0.000 A 
ATOM      2  C   UNL     1      -1.273  11.245  19.504  0.00  0.00    +0.000 A 
ATOM      3  C   UNL     1      -1.997  12.085  20.474  0.00  0.00    +0.000 A 
ATOM      4  C   UNL     1      -1.459  12.351  21.681  0.00  0.00    +0.000 A 
ATOM      5  N   UNL     1      -0.235  11.825  22.003  0.00  0.00    +0.000 N 
ATOM      6  C   UNL     1       0.511  11.029  21.178  0.00  0.00    +0.000 A 
ATOM      7  O   UNL     1       1.595  10.591  21.546  0.00  0.00    +0.000 OA
ATOM      8  C   UNL     1      -2.187  13.185  22.673  0.00  0.00    +0.000 A 
ATOM      9  C   UNL     1      -1.517  13.821  23.728  0.00  0.00    +0.000 A 
ATOM     10  C   UNL     1      -2.220  14.554  24.678  0.00  0.00    +0.000 A 
ATOM     11  C   UNL     1      -3.606  14.656  24.590  0.00  0.00    +0.000 A 
ATOM     12  C   UNL     1      -4.319  14.054  23.539  0.00  0.00    +0.000 A 
ATOM     13  C   UNL     1      -3.596  13.335  22.556  0.00  0.00    +0.000 A 
ATOM     14  C   UNL     1      -4.265  12.669  21.371  0.00  0.00    +0.000 C 
ATOM     15  C   UNL     1      -3.364  12.621  20.135  0.00  0.00    +0.000 C 
ATOM     16  H   UNL     1       0.166  11.973  22.919  0.00  0.00    +0.000 HD
ENDROOT
BRANCH   2  17
ATOM     17  C   UNL     1      -1.816  10.913  18.162  0.00  0.00    +0.000 A 
ATOM     18  C   UNL     1      -1.795  11.870  17.136  0.00  0.00    +0.000 A 
ATOM     19  C   UNL     1      -2.342  11.575  15.885  0.00  0.00    +0.000 A 
ATOM     20  C   UNL     1      -2.913  10.319  15.638  0.00  0.00    +0.000 A 
ATOM     21  C   UNL     1      -2.923   9.354  16.654  0.00  0.00    +0.000 A 
ATOM     22  C   UNL     1      -2.380   9.654  17.911  0.00  0.00    +0.000 A 
BRANCH  20  23
ATOM     23  C   UNL     1      -3.414  10.047  14.264  0.00  0.00    +0.000 C 
ATOM     24  O   UNL     1      -4.601  10.066  13.986  0.00  0.00    +0.000 OA
BRANCH  23  25
ATOM     25  O   UNL     1      -2.455   9.765  13.356  0.00  0.00    +0.000 OA
ATOM     26  H   UNL     1      -2.726   9.828  12.423  0.00  0.00    +0.000 HD
ENDBRANCH  23  25
ENDBRANCH  20  23
ENDBRANCH   2  17
BRANCH  12  27
ATOM     27  C   UNL     1      -5.774  14.197  23.512  0.00  0.00    +0.000 A 
ATOM     28  C   UNL     1      -6.617  15.241  23.055  0.00  0.00    +0.000 A 
ATOM     29  N   UNL     1      -7.914  14.985  23.239  0.00  0.00    +0.000 NA
ATOM     30  N   UNL     1      -7.917  13.760  23.783  0.00  0.00    +0.000 N 
ATOM     31  C   UNL     1      -6.666  13.242  23.958  0.00  0.00    +0.000 A 
ATOM     32  H   UNL     1      -8.810  13.336  24.009  0.00  0.00    +0.000 HD
ENDBRANCH  12  27
BRANCH   1  34
ATOM     33  N   UNL     1       1.331   9.237  18.262  0.00  0.00    +0.000 NA
ATOM     34  C   UNL     1       0.693   9.884  18.989  0.00  0.00    +0.000 C 
ENDBRANCH   1  34
TORSDOF 5
ENDMDL
MODEL 5
REMARK VINA RESULT:      -6.8      5.674      8.358
REMARK  Name = 
REMARK  5 active torsions:
REMARK  status: ('A' for Active; 'I' for Inactive)
REMARK    1  A    between atoms: C_2  and  C_3
REMARK    2  A    between atoms: C_4  and  C_5
REMARK    3  A    between atoms: C_8  and  C_9
REMARK    4  A    between atoms: C_9  and  O_11
REMARK    5  A    between atoms: C_23  and  C_24
REMARK                            x       y       z     vdW  Elec       q    Type
REMARK                         _______ _______ _______ _____ _____    ______ ____
ROOT
ATOM      1  C   UNL     1      -0.177  10.780  20.165  0.00  0.00    +0.000 A 
ATOM      2  C   UNL     1      -1.329  11.376  19.774  0.00  0.00    +0.000 A 
ATOM      3  C   UNL     1      -2.024  12.286  20.701  0.00  0.00    +0.000 A 
ATOM      4  C   UNL     1      -1.508  12.540  21.921  0.00  0.00    +0.000 A 
ATOM      5  N   UNL     1      -0.338  11.935  22.297  0.00  0.00    +0.000 N 
ATOM      6  C   UNL     1       0.376  11.069  21.514  0.00  0.00    +0.000 A 
ATOM      7  O   UNL     1       1.413  10.563  21.929  0.00  0.00    +0.000 OA
ATOM      8  C   UNL     1      -2.208  13.446  22.870  0.00  0.00    +0.000 A 
ATOM      9  C   UNL     1      -1.529  14.055  23.936  0.00  0.00    +0.000 A 
ATOM     10  C   UNL     1      -2.210  14.858  24.846  0.00  0.00    +0.000 A 
ATOM     11  C   UNL     1      -3.581  15.057  24.707  0.00  0.00    +0.000 A 
ATOM     12  C   UNL     1      -4.299  14.484  23.644  0.00  0.00    +0.000 A 
ATOM     13  C   UNL     1      -3.597  13.694  22.701  0.00  0.00    +0.000 A 
ATOM     14  C   UNL     1      -4.272  13.052  21.506  0.00  0.00    +0.000 C 
ATOM     15  C   UNL     1      -3.336  12.913  20.304  0.00  0.00    +0.000 C 
ATOM     16  H   UNL     1       0.041  12.074  23.223  0.00  0.00    +0.000 HD
ENDROOT
BRANCH   2  17
ATOM     17  C   UNL     1      -1.850  11.055  18.420  0.00  0.00    +0.000 A 
ATOM     18  C   UNL     1      -2.392   9.789  18.155  0.00  0.00    +0.000 A 
ATOM     19  C   UNL     1      -2.845   9.471  16.871  0.00  0.00    +0.000 A 
ATOM     20  C   UNL     1      -2.769  10.414  15.838  0.00  0.00    +0.000 A 
ATOM     21  C   UNL     1      -2.244  11.686  16.101  0.00  0.00    +0.000 A 
ATOM     22  C   UNL     1      -1.783  12.001  17.387  0.00  0.00    +0.000 A 
BRANCH  20  23
ATOM     23  C   UNL     1      -3.334  10.035  14.515  0.00  0.00    +0.000 C 
ATOM     24  O   UNL     1      -2.630   9.818  13.543  0.00  0.00    +0.000 OA
BRANCH  23  25
ATOM     25  O   UNL     1      -4.681   9.963  14.472  0.00  0.00    +0.000 OA
ATOM     26  H   UNL     1      -5.051   9.076  14.314  0.00  0.00    +0.000 HD
ENDBRANCH  23  25
ENDBRANCH  20  23
ENDBRANCH   2  17
BRANCH  12  27
ATOM     27  C   UNL     1      -5.738  14.731  23.562  0.00  0.00    +0.000 A 
ATOM     28  C   UNL     1      -6.487  15.823  23.055  0.00  0.00    +0.000 A 
ATOM     29  N   UNL     1      -7.805  15.664  23.198  0.00  0.00    +0.000 NA
ATOM     30  N   UNL     1      -7.915  14.455  23.765  0.00  0.00    +0.000 N 
ATOM     31  C   UNL     1      -6.712  13.853  23.995  0.00  0.00    +0.000 A 
ATOM     32  H   UNL     1      -8.843  14.101  23.967  0.00  0.00    +0.000 HD
ENDBRANCH  12  27
BRANCH   1  34
ATOM     33  N   UNL     1       1.166   9.160  18.667  0.00  0.00    +0.000 NA
ATOM     34  C   UNL     1       0.549   9.867  19.355  0.00  0.00    +0.000 C 
ENDBRANCH   1  34
TORSDOF 5
ENDMDL
MODEL 6
REMARK VINA RESULT:      -6.6      4.003      7.967
REMARK  Name = 
REMARK  5 active torsions:
REMARK  status: ('A' for Active; 'I' for Inactive)
REMARK    1  A    between atoms: C_2  and  C_3
REMARK    2  A    between atoms: C_4  and  C_5
REMARK    3  A    between atoms: C_8  and  C_9
REMARK    4  A    between atoms: C_9  and  O_11
REMARK    5  A    between atoms: C_23  and  C_24
REMARK                            x       y       z     vdW  Elec       q    Type
REMARK                         _______ _______ _______ _____ _____    ______ ____
ROOT
ATOM      1  C   UNL     1       0.167   9.849  21.169  0.00  0.00    +0.000 A 
ATOM      2  C   UNL     1       0.898  10.076  20.052  0.00  0.00    +0.000 A 
ATOM      3  C   UNL     1       1.545   8.943  19.367  0.00  0.00    +0.000 A 
ATOM      4  C   UNL     1       1.397   7.688  19.837  0.00  0.00    +0.000 A 
ATOM      5  N   UNL     1       0.647   7.476  20.964  0.00  0.00    +0.000 N 
ATOM      6  C   UNL     1       0.015   8.459  21.676  0.00  0.00    +0.000 A 
ATOM      7  O   UNL     1      -0.631   8.185  22.680  0.00  0.00    +0.000 OA
ATOM      8  C   UNL     1       2.058   6.539  19.164  0.00  0.00    +0.000 A 
ATOM      9  C   UNL     1       1.606   5.224  19.348  0.00  0.00    +0.000 A 
ATOM     10  C   UNL     1       2.268   4.155  18.753  0.00  0.00    +0.000 A 
ATOM     11  C   UNL     1       3.396   4.386  17.969  0.00  0.00    +0.000 A 
ATOM     12  C   UNL     1       3.872   5.688  17.738  0.00  0.00    +0.000 A 
ATOM     13  C   UNL     1       3.177   6.776  18.320  0.00  0.00    +0.000 A 
ATOM     14  C   UNL     1       3.593   8.218  18.115  0.00  0.00    +0.000 C 
ATOM     15  C   UNL     1       2.409   9.186  18.156  0.00  0.00    +0.000 C 
ATOM     16  H   UNL     1       0.562   6.550  21.361  0.00  0.00    +0.000 HD
ENDROOT
BRANCH   2  17
ATOM     17  C   UNL     1       1.028  11.480  19.584  0.00  0.00    +0.000 A 
ATOM     18  C   UNL     1       2.112  12.265  20.003  0.00  0.00    +0.000 A 
ATOM     19  C   UNL     1       2.214  13.599  19.596  0.00  0.00    +0.000 A 
ATOM     20  C   UNL     1       1.242  14.164  18.761  0.00  0.00    +0.000 A 
ATOM     21  C   UNL     1       0.166  13.379  18.326  0.00  0.00    +0.000 A 
ATOM     22  C   UNL     1       0.059  12.044  18.741  0.00  0.00    +0.000 A 
BRANCH  20  23
ATOM     23  C   UNL     1       1.450  15.566  18.310  0.00  0.00    +0.000 C 
ATOM     24  O   UNL     1       0.566  16.404  18.355  0.00  0.00    +0.000 OA
BRANCH  23  25
ATOM     25  O   UNL     1       2.686  15.832  17.837  0.00  0.00    +0.000 OA
ATOM     26  H   UNL     1       3.406  15.793  18.491  0.00  0.00    +0.000 HD
ENDBRANCH  23  25
ENDBRANCH  20  23
ENDBRANCH   2  17
BRANCH  12  27
ATOM     27  C   UNL     1       5.065   5.856  16.909  0.00  0.00    +0.000 A 
ATOM     28  C   UNL     1       6.388   6.257  17.219  0.00  0.00    +0.000 A 
ATOM     29  N   UNL     1       7.184   6.309  16.148  0.00  0.00    +0.000 NA
ATOM     30  N   UNL     1       6.388   5.908  15.147  0.00  0.00    +0.000 N 
ATOM     31  C   UNL     1       5.117   5.617  15.550  0.00  0.00    +0.000 A 
ATOM     32  H   UNL     1       6.779   5.854  14.213  0.00  0.00    +0.000 HD
ENDBRANCH  12  27
BRANCH   1  34
ATOM     33  N   UNL     1      -1.021  11.681  22.549  0.00  0.00    +0.000 NA
ATOM     34  C   UNL     1      -0.470  10.876  21.914  0.00  0.00    +0.000 C 
ENDBRANCH   1  34
TORSDOF 5
ENDMDL
