MODEL 1
REMARK VINA RESULT:      -8.0      0.000      0.000
REMARK  Name = 
REMARK  9 active torsions:
REMARK  status: ('A' for Active; 'I' for Inactive)
REMARK    1  A    between atoms: C_1  and  O_2
REMARK    2  A    between atoms: O_2  and  C_3
REMARK    3  A    between atoms: C_8  and  C_9
REMARK    4  A    between atoms: C_12  and  C_13
REMARK    5  A    between atoms: C_13  and  C_14
REMARK    6  A    between atoms: C_14  and  N_15
REMARK    7  A    between atoms: C_14  and  C_23
REMARK    8  A    between atoms: C_16  and  C_18
REMARK    9  A    between atoms: C_23  and  O_25
REMARK                            x       y       z     vdW  Elec       q    Type
REMARK                         _______ _______ _______ _____ _____    ______ ____
ROOT
ATOM      1  C   UNK     1       3.524   5.483  17.950  0.00  0.00    +0.000 C 
ENDROOT
BRANCH   1   5
ATOM      2  C   UNK     1       1.447   9.113  19.240  0.00  0.00    +0.000 A 
ATOM      3  C   UNK     1       2.062   9.023  17.980  0.00  0.00    +0.000 A 
ATOM      4  C   UNK     1       2.779   7.884  17.578  0.00  0.00    +0.000 A 
ATOM      5  C   UNK     1       2.889   6.775  18.419  0.00  0.00    +0.000 A 
ATOM      6  C   UNK     1       2.311   6.857  19.691  0.00  0.00    +0.000 A 
ATOM      7  C   UNK     1       1.615   8.008  20.094  0.00  0.00    +0.000 A 
BRANCH   2  13
ATOM      8  C   UNK     1      -0.571  10.684  18.936  0.00  0.00    +0.000 A 
ATOM      9  C   UNK     1      -1.364  11.740  19.422  0.00  0.00    +0.000 A 
ATOM     10  C   UNK     1      -0.990  12.452  20.560  0.00  0.00    +0.000 A 
ATOM     11  C   UNK     1       0.169  12.106  21.234  0.00  0.00    +0.000 A 
ATOM     12  C   UNK     1       0.941  11.029  20.782  0.00  0.00    +0.000 A 
ATOM     13  C   UNK     1       0.597  10.281  19.633  0.00  0.00    +0.000 A 
BRANCH   8  15
ATOM     14  C   UNK     1      -2.311   9.936  17.502  0.00  0.00    +0.000 C 
ATOM     15  O   UNK     1      -0.921   9.985  17.806  0.00  0.00    +0.000 OA
ENDBRANCH   8  15
ENDBRANCH   2  13
ENDBRANCH   1   5
BRANCH   1  16
ATOM     16  C   UNK     1       5.062   5.464  17.871  0.00  0.00    +0.000 C 
BRANCH  16  17
ATOM     17  N   UNK     1       5.562   4.919  16.597  0.00  0.00    +0.000 N 
ATOM     18  C   UNK     1       6.734   5.284  15.979  0.00  0.00    +0.000 C 
ATOM     19  O   UNK     1       7.395   6.248  16.366  0.00  0.00    +0.000 OA
ATOM     20  H   UNK     1       5.188   4.028  16.271  0.00  0.00    +0.000 HD
BRANCH  18  21
ATOM     21  C   UNK     1       7.086   4.458  14.730  0.00  0.00    +0.000 C 
ATOM     22  C   UNK     1       7.539   5.316  13.564  0.00  0.00    +0.000 C 
ATOM     23  C   UNK     1       7.242   4.452  12.353  0.00  0.00    +0.000 C 
ATOM     24  C   UNK     1       6.088   3.558  12.778  0.00  0.00    +0.000 C 
ATOM     25  N   UNK     1       5.862   3.799  14.207  0.00  0.00    +0.000 NA
ATOM     26  H   UNK     1       5.723   2.912  14.692  0.00  0.00    +0.000 HD
ENDBRANCH  18  21
ENDBRANCH  16  17
BRANCH  16  27
ATOM     27  C   UNK     1       5.685   4.768  19.090  0.00  0.00    +0.000 C 
ATOM     28  O   UNK     1       5.355   3.647  19.461  0.00  0.00    +0.000 OA
BRANCH  27  29
ATOM     29  O   UNK     1       6.652   5.468  19.727  0.00  0.00    +0.000 OA
ATOM     30  H   UNK     1       6.473   5.584  20.693  0.00  0.00    +0.000 HD
ENDBRANCH  27  29
ENDBRANCH  16  27
ENDBRANCH   1  16
TORSDOF 8
ENDMDL
MODEL 2
REMARK VINA RESULT:      -7.9      1.468      2.117
REMARK  Name = 
REMARK  9 active torsions:
REMARK  status: ('A' for Active; 'I' for Inactive)
REMARK    1  A    between atoms: C_1  and  O_2
REMARK    2  A    between atoms: O_2  and  C_3
REMARK    3  A    between atoms: C_8  and  C_9
REMARK    4  A    between atoms: C_12  and  C_13
REMARK    5  A    between atoms: C_13  and  C_14
REMARK    6  A    between atoms: C_14  and  N_15
REMARK    7  A    between atoms: C_14  and  C_23
REMARK    8  A    between atoms: C_16  and  C_18
REMARK    9  A    between atoms: C_23  and  O_25
REMARK                            x       y       z     vdW  Elec       q    Type
REMARK                         _______ _______ _______ _____ _____    ______ ____
ROOT
ATOM      1  C   UNK     1       3.669   5.789  18.452  0.00  0.00    +0.000 C 
ENDROOT
BRANCH   1   5
ATOM      2  C   UNK     1       1.204   9.382  18.871  0.00  0.00    +0.000 A 
ATOM      3  C   UNK     1       1.918   9.110  17.692  0.00  0.00    +0.000 A 
ATOM      4  C   UNK     1       2.756   7.990  17.567  0.00  0.00    +0.000 A 
ATOM      5  C   UNK     1       2.894   7.080  18.617  0.00  0.00    +0.000 A 
ATOM      6  C   UNK     1       2.217   7.350  19.811  0.00  0.00    +0.000 A 
ATOM      7  C   UNK     1       1.399   8.484  19.937  0.00  0.00    +0.000 A 
BRANCH   2  13
ATOM      8  C   UNK     1       0.608  11.869  19.172  0.00  0.00    +0.000 A 
ATOM      9  C   UNK     1      -0.362  12.888  19.169  0.00  0.00    +0.000 A 
ATOM     10  C   UNK     1      -1.716  12.588  19.032  0.00  0.00    +0.000 A 
ATOM     11  C   UNK     1      -2.113  11.270  18.879  0.00  0.00    +0.000 A 
ATOM     12  C   UNK     1      -1.149  10.254  18.838  0.00  0.00    +0.000 A 
ATOM     13  C   UNK     1       0.232  10.516  18.974  0.00  0.00    +0.000 A 
BRANCH   8  15
ATOM     14  C   UNK     1       2.576  12.808  18.229  0.00  0.00    +0.000 C 
ATOM     15  O   UNK     1       1.945  12.151  19.324  0.00  0.00    +0.000 OA
ENDBRANCH   8  15
ENDBRANCH   2  13
ENDBRANCH   1   5
BRANCH   1  16
ATOM     16  C   UNK     1       5.196   5.921  18.301  0.00  0.00    +0.000 C 
BRANCH  16  17
ATOM     17  N   UNK     1       5.637   5.867  16.896  0.00  0.00    +0.000 N 
ATOM     18  C   UNK     1       5.475   4.797  16.050  0.00  0.00    +0.000 C 
ATOM     19  O   UNK     1       5.090   3.703  16.460  0.00  0.00    +0.000 OA
ATOM     20  H   UNK     1       5.824   6.746  16.413  0.00  0.00    +0.000 HD
BRANCH  18  21
ATOM     21  C   UNK     1       5.902   5.058  14.595  0.00  0.00    +0.000 C 
ATOM     22  C   UNK     1       5.761   3.834  13.711  0.00  0.00    +0.000 C 
ATOM     23  C   UNK     1       6.748   4.094  12.588  0.00  0.00    +0.000 C 
ATOM     24  C   UNK     1       7.815   4.988  13.199  0.00  0.00    +0.000 C 
ATOM     25  N   UNK     1       7.359   5.342  14.546  0.00  0.00    +0.000 NA
ATOM     26  H   UNK     1       7.516   6.335  14.718  0.00  0.00    +0.000 HD
ENDBRANCH  18  21
ENDBRANCH  16  17
BRANCH  16  27
ATOM     27  C   UNK     1       5.944   4.915  19.188  0.00  0.00    +0.000 C 
ATOM     28  O   UNK     1       6.947   5.205  19.829  0.00  0.00    +0.000 OA
BRANCH  27  29
ATOM     29  O   UNK     1       5.406   3.674  19.238  0.00  0.00    +0.000 OA
ATOM     30  H   UNK     1       5.838   3.041  18.612  0.00  0.00    +0.000 HD
ENDBRANCH  27  29
ENDBRANCH  16  27
ENDBRANCH   1  16
TORSDOF 8
ENDMDL
MODEL 3
REMARK VINA RESULT:      -7.9      1.161      1.580
REMARK  Name = 
REMARK  9 active torsions:
REMARK  status: ('A' for Active; 'I' for Inactive)
REMARK    1  A    between atoms: C_1  and  O_2
REMARK    2  A    between atoms: O_2  and  C_3
REMARK    3  A    between atoms: C_8  and  C_9
REMARK    4  A    between atoms: C_12  and  C_13
REMARK    5  A    between atoms: C_13  and  C_14
REMARK    6  A    between atoms: C_14  and  N_15
REMARK    7  A    between atoms: C_14  and  C_23
REMARK    8  A    between atoms: C_16  and  C_18
REMARK    9  A    between atoms: C_23  and  O_25
REMARK                            x       y       z     vdW  Elec       q    Type
REMARK                         _______ _______ _______ _____ _____    ______ ____
ROOT
ATOM      1  C   UNK     1       3.412   5.692  19.070  0.00  0.00    +0.000 C 
ENDROOT
BRANCH   1   5
ATOM      2  C   UNK     1       1.265   9.499  18.843  0.00  0.00    +0.000 A 
ATOM      3  C   UNK     1       1.309   8.746  20.029  0.00  0.00    +0.000 A 
ATOM      4  C   UNK     1       1.947   7.497  20.098  0.00  0.00    +0.000 A 
ATOM      5  C   UNK     1       2.590   6.961  18.980  0.00  0.00    +0.000 A 
ATOM      6  C   UNK     1       2.529   7.680  17.781  0.00  0.00    +0.000 A 
ATOM      7  C   UNK     1       1.870   8.917  17.714  0.00  0.00    +0.000 A 
BRANCH   2  13
ATOM      8  C   UNK     1      -0.668  11.150  18.430  0.00  0.00    +0.000 A 
ATOM      9  C   UNK     1      -1.169  12.464  18.492  0.00  0.00    +0.000 A 
ATOM     10  C   UNK     1      -0.345  13.529  18.850  0.00  0.00    +0.000 A 
ATOM     11  C   UNK     1       0.982  13.292  19.166  0.00  0.00    +0.000 A 
ATOM     12  C   UNK     1       1.478  11.982  19.149  0.00  0.00    +0.000 A 
ATOM     13  C   UNK     1       0.676  10.875  18.792  0.00  0.00    +0.000 A 
BRANCH   8  15
ATOM     14  C   UNK     1      -2.848  10.386  17.876  0.00  0.00    +0.000 C 
ATOM     15  O   UNK     1      -1.466  10.094  18.062  0.00  0.00    +0.000 OA
ENDBRANCH   8  15
ENDBRANCH   2  13
ENDBRANCH   1   5
BRANCH   1  16
ATOM     16  C   UNK     1       4.870   5.785  18.584  0.00  0.00    +0.000 C 
BRANCH  16  17
ATOM     17  N   UNK     1       4.999   5.612  17.126  0.00  0.00    +0.000 N 
ATOM     18  C   UNK     1       6.085   5.985  16.372  0.00  0.00    +0.000 C 
ATOM     19  O   UNK     1       6.993   6.669  16.843  0.00  0.00    +0.000 OA
ATOM     20  H   UNK     1       4.392   4.935  16.663  0.00  0.00    +0.000 HD
BRANCH  18  21
ATOM     21  C   UNK     1       6.017   5.562  14.894  0.00  0.00    +0.000 C 
ATOM     22  C   UNK     1       5.476   4.158  14.707  0.00  0.00    +0.000 C 
ATOM     23  C   UNK     1       6.044   3.737  13.365  0.00  0.00    +0.000 C 
ATOM     24  C   UNK     1       7.330   4.534  13.211  0.00  0.00    +0.000 C 
ATOM     25  N   UNK     1       7.390   5.471  14.337  0.00  0.00    +0.000 NA
ATOM     26  H   UNK     1       7.683   6.392  14.008  0.00  0.00    +0.000 HD
ENDBRANCH  18  21
ENDBRANCH  16  17
BRANCH  16  27
ATOM     27  C   UNK     1       5.792   4.839  19.368  0.00  0.00    +0.000 C 
ATOM     28  O   UNK     1       5.531   3.657  19.560  0.00  0.00    +0.000 OA
BRANCH  27  29
ATOM     29  O   UNK     1       6.940   5.393  19.823  0.00  0.00    +0.000 OA
ATOM     30  H   UNK     1       7.084   6.313  19.489  0.00  0.00    +0.000 HD
ENDBRANCH  27  29
ENDBRANCH  16  27
ENDBRANCH   1  16
TORSDOF 8
ENDMDL
MODEL 4
REMARK VINA RESULT:      -7.8      1.900      2.745
REMARK  Name = 
REMARK  9 active torsions:
REMARK  status: ('A' for Active; 'I' for Inactive)
REMARK    1  A    between atoms: C_1  and  O_2
REMARK    2  A    between atoms: O_2  and  C_3
REMARK    3  A    between atoms: C_8  and  C_9
REMARK    4  A    between atoms: C_12  and  C_13
REMARK    5  A    between atoms: C_13  and  C_14
REMARK    6  A    between atoms: C_14  and  N_15
REMARK    7  A    between atoms: C_14  and  C_23
REMARK    8  A    between atoms: C_16  and  C_18
REMARK    9  A    between atoms: C_23  and  O_25
REMARK                            x       y       z     vdW  Elec       q    Type
REMARK                         _______ _______ _______ _____ _____    ______ ____
ROOT
ATOM      1  C   UNK     1       2.923   5.525  20.340  0.00  0.00    +0.000 C 
ENDROOT
BRANCH   1   5
ATOM      2  C   UNK     1       1.144   9.358  19.198  0.00  0.00    +0.000 A 
ATOM      3  C   UNK     1       0.920   8.788  20.463  0.00  0.00    +0.000 A 
ATOM      4  C   UNK     1       1.439   7.532  20.820  0.00  0.00    +0.000 A 
ATOM      5  C   UNK     1       2.228   6.805  19.926  0.00  0.00    +0.000 A 
ATOM      6  C   UNK     1       2.436   7.341  18.650  0.00  0.00    +0.000 A 
ATOM      7  C   UNK     1       1.895   8.586  18.293  0.00  0.00    +0.000 A 
BRANCH   2  13
ATOM      8  C   UNK     1      -0.637  11.049  18.422  0.00  0.00    +0.000 A 
ATOM      9  C   UNK     1      -1.018  12.384  18.198  0.00  0.00    +0.000 A 
ATOM     10  C   UNK     1      -0.100  13.424  18.333  0.00  0.00    +0.000 A 
ATOM     11  C   UNK     1       1.203  13.142  18.709  0.00  0.00    +0.000 A 
ATOM     12  C   UNK     1       1.579  11.820  18.975  0.00  0.00    +0.000 A 
ATOM     13  C   UNK     1       0.680  10.738  18.850  0.00  0.00    +0.000 A 
BRANCH   8  15
ATOM     14  C   UNK     1      -2.830  10.365  17.820  0.00  0.00    +0.000 C 
ATOM     15  O   UNK     1      -1.528  10.013  18.276  0.00  0.00    +0.000 OA
ENDBRANCH   8  15
ENDBRANCH   2  13
ENDBRANCH   1   5
BRANCH   1  16
ATOM     16  C   UNK     1       2.974   4.402  19.289  0.00  0.00    +0.000 C 
BRANCH  16  17
ATOM     17  N   UNK     1       3.926   4.683  18.199  0.00  0.00    +0.000 N 
ATOM     18  C   UNK     1       5.260   4.355  18.202  0.00  0.00    +0.000 C 
ATOM     19  O   UNK     1       5.821   3.942  19.216  0.00  0.00    +0.000 OA
ATOM     20  H   UNK     1       3.554   4.876  17.269  0.00  0.00    +0.000 HD
BRANCH  18  21
ATOM     21  C   UNK     1       5.994   4.638  16.879  0.00  0.00    +0.000 C 
ATOM     22  C   UNK     1       5.292   5.678  16.027  0.00  0.00    +0.000 C 
ATOM     23  C   UNK     1       5.774   5.367  14.623  0.00  0.00    +0.000 C 
ATOM     24  C   UNK     1       6.101   3.882  14.636  0.00  0.00    +0.000 C 
ATOM     25  N   UNK     1       5.964   3.426  16.023  0.00  0.00    +0.000 NA
ATOM     26  H   UNK     1       6.746   2.819  16.268  0.00  0.00    +0.000 HD
ENDBRANCH  18  21
ENDBRANCH  16  17
BRANCH  16  27
ATOM     27  C   UNK     1       1.574   4.047  18.766  0.00  0.00    +0.000 C 
ATOM     28  O   UNK     1       1.282   4.059  17.576  0.00  0.00    +0.000 OA
BRANCH  27  29
ATOM     29  O   UNK     1       0.674   3.695  19.713  0.00  0.00    +0.000 OA
ATOM     30  H   UNK     1       0.495   2.722  19.733  0.00  0.00    +0.000 HD
ENDBRANCH  27  29
ENDBRANCH  16  27
ENDBRANCH   1  16
TORSDOF 8
ENDMDL
MODEL 5
REMARK VINA RESULT:      -7.8      1.089      1.756
REMARK  Name = 
REMARK  9 active torsions:
REMARK  status: ('A' for Active; 'I' for Inactive)
REMARK    1  A    between atoms: C_1  and  O_2
REMARK    2  A    between atoms: O_2  and  C_3
REMARK    3  A    between atoms: C_8  and  C_9
REMARK    4  A    between atoms: C_12  and  C_13
REMARK    5  A    between atoms: C_13  and  C_14
REMARK    6  A    between atoms: C_14  and  N_15
REMARK    7  A    between atoms: C_14  and  C_23
REMARK    8  A    between atoms: C_16  and  C_18
REMARK    9  A    between atoms: C_23  and  O_25
REMARK                            x       y       z     vdW  Elec       q    Type
REMARK                         _______ _______ _______ _____ _____    ______ ____
ROOT
ATOM      1  C   UNK     1       3.594   5.415  17.981  0.00  0.00    +0.000 C 
ENDROOT
BRANCH   1   5
ATOM      2  C   UNK     1       1.492   9.018  19.306  0.00  0.00    +0.000 A 
ATOM      3  C   UNK     1       2.141   8.958  18.061  0.00  0.00    +0.000 A 
ATOM      4  C   UNK     1       2.866   7.827  17.650  0.00  0.00    +0.000 A 
ATOM      5  C   UNK     1       2.950   6.696  18.466  0.00  0.00    +0.000 A 
ATOM      6  C   UNK     1       2.338   6.749  19.723  0.00  0.00    +0.000 A 
ATOM      7  C   UNK     1       1.634   7.891  20.136  0.00  0.00    +0.000 A 
BRANCH   2  13
ATOM      8  C   UNK     1       0.514  10.657  21.035  0.00  0.00    +0.000 A 
ATOM      9  C   UNK     1      -0.244  11.809  21.313  0.00  0.00    +0.000 A 
ATOM     10  C   UNK     1      -0.940  12.470  20.303  0.00  0.00    +0.000 A 
ATOM     11  C   UNK     1      -0.873  11.998  19.003  0.00  0.00    +0.000 A 
ATOM     12  C   UNK     1      -0.086  10.877  18.711  0.00  0.00    +0.000 A 
ATOM     13  C   UNK     1       0.635  10.179  19.705  0.00  0.00    +0.000 A 
BRANCH   8  15
ATOM     14  C   UNK     1       0.403   9.491  23.101  0.00  0.00    +0.000 C 
ATOM     15  O   UNK     1       1.192   9.987  22.025  0.00  0.00    +0.000 OA
ENDBRANCH   8  15
ENDBRANCH   2  13
ENDBRANCH   1   5
BRANCH   1  16
ATOM     16  C   UNK     1       5.131   5.415  17.883  0.00  0.00    +0.000 C 
BRANCH  16  17
ATOM     17  N   UNK     1       5.621   4.873  16.603  0.00  0.00    +0.000 N 
ATOM     18  C   UNK     1       6.762   5.277  15.952  0.00  0.00    +0.000 C 
ATOM     19  O   UNK     1       7.393   6.270  16.311  0.00  0.00    +0.000 OA
ATOM     20  H   UNK     1       5.275   3.964  16.297  0.00  0.00    +0.000 HD
BRANCH  18  21
ATOM     21  C   UNK     1       7.115   4.449  14.704  0.00  0.00    +0.000 C 
ATOM     22  C   UNK     1       7.608   5.303  13.551  0.00  0.00    +0.000 C 
ATOM     23  C   UNK     1       7.312   4.452  12.330  0.00  0.00    +0.000 C 
ATOM     24  C   UNK     1       6.130   3.583  12.731  0.00  0.00    +0.000 C 
ATOM     25  N   UNK     1       5.886   3.822  14.156  0.00  0.00    +0.000 NA
ATOM     26  H   UNK     1       5.717   2.936  14.634  0.00  0.00    +0.000 HD
ENDBRANCH  18  21
ENDBRANCH  16  17
BRANCH  16  27
ATOM     27  C   UNK     1       5.778   4.728  19.094  0.00  0.00    +0.000 C 
ATOM     28  O   UNK     1       5.463   3.606  19.475  0.00  0.00    +0.000 OA
BRANCH  27  29
ATOM     29  O   UNK     1       6.750   5.438  19.713  0.00  0.00    +0.000 OA
ATOM     30  H   UNK     1       6.944   6.299  19.266  0.00  0.00    +0.000 HD
ENDBRANCH  27  29
ENDBRANCH  16  27
ENDBRANCH   1  16
TORSDOF 8
ENDMDL
MODEL 6
REMARK VINA RESULT:      -7.8      1.819      2.451
REMARK  Name = 
REMARK  9 active torsions:
REMARK  status: ('A' for Active; 'I' for Inactive)
REMARK    1  A    between atoms: C_1  and  O_2
REMARK    2  A    between atoms: O_2  and  C_3
REMARK    3  A    between atoms: C_8  and  C_9
REMARK    4  A    between atoms: C_12  and  C_13
REMARK    5  A    between atoms: C_13  and  C_14
REMARK    6  A    between atoms: C_14  and  N_15
REMARK    7  A    between atoms: C_14  and  C_23
REMARK    8  A    between atoms: C_16  and  C_18
REMARK    9  A    between atoms: C_23  and  O_25
REMARK                            x       y       z     vdW  Elec       q    Type
REMARK                         _______ _______ _______ _____ _____    ______ ____
ROOT
ATOM      1  C   UNK     1       3.420   5.732  19.597  0.00  0.00    +0.000 C 
ENDROOT
BRANCH   1   5
ATOM      2  C   UNK     1       1.224   9.451  18.891  0.00  0.00    +0.000 A 
ATOM      3  C   UNK     1       1.174   8.788  20.129  0.00  0.00    +0.000 A 
ATOM      4  C   UNK     1       1.829   7.565  20.349  0.00  0.00    +0.000 A 
ATOM      5  C   UNK     1       2.584   6.967  19.337  0.00  0.00    +0.000 A 
ATOM      6  C   UNK     1       2.619   7.594  18.087  0.00  0.00    +0.000 A 
ATOM      7  C   UNK     1       1.943   8.805  17.868  0.00  0.00    +0.000 A 
BRANCH   2  13
ATOM      8  C   UNK     1      -0.743  11.014  18.323  0.00  0.00    +0.000 A 
ATOM      9  C   UNK     1      -1.261  12.319  18.232  0.00  0.00    +0.000 A 
ATOM     10  C   UNK     1      -0.445  13.430  18.435  0.00  0.00    +0.000 A 
ATOM     11  C   UNK     1       0.892  13.250  18.746  0.00  0.00    +0.000 A 
ATOM     12  C   UNK     1       1.406  11.954  18.880  0.00  0.00    +0.000 A 
ATOM     13  C   UNK     1       0.613  10.802  18.683  0.00  0.00    +0.000 A 
BRANCH   8  15
ATOM     14  C   UNK     1      -2.887  10.168  17.749  0.00  0.00    +0.000 C 
ATOM     15  O   UNK     1      -1.533   9.911  18.109  0.00  0.00    +0.000 OA
ENDBRANCH   8  15
ENDBRANCH   2  13
ENDBRANCH   1   5
BRANCH   1  16
ATOM     16  C   UNK     1       3.270   4.578  18.588  0.00  0.00    +0.000 C 
BRANCH  16  17
ATOM     17  N   UNK     1       3.878   4.881  17.280  0.00  0.00    +0.000 N 
ATOM     18  C   UNK     1       5.213   4.765  16.975  0.00  0.00    +0.000 C 
ATOM     19  O   UNK     1       6.058   4.558  17.846  0.00  0.00    +0.000 OA
ATOM     20  H   UNK     1       3.272   4.911  16.459  0.00  0.00    +0.000 HD
BRANCH  18  21
ATOM     21  C   UNK     1       5.558   5.011  15.496  0.00  0.00    +0.000 C 
ATOM     22  C   UNK     1       5.446   3.758  14.649  0.00  0.00    +0.000 C 
ATOM     23  C   UNK     1       6.364   4.042  13.475  0.00  0.00    +0.000 C 
ATOM     24  C   UNK     1       7.405   5.010  14.013  0.00  0.00    +0.000 C 
ATOM     25  N   UNK     1       6.992   5.373  15.371  0.00  0.00    +0.000 NA
ATOM     26  H   UNK     1       7.100   6.378  15.511  0.00  0.00    +0.000 HD
ENDBRANCH  18  21
ENDBRANCH  16  17
BRANCH  16  27
ATOM     27  C   UNK     1       1.810   4.118  18.462  0.00  0.00    +0.000 C 
ATOM     28  O   UNK     1       1.158   3.695  19.410  0.00  0.00    +0.000 OA
BRANCH  27  29
ATOM     29  O   UNK     1       1.271   4.231  17.226  0.00  0.00    +0.000 OA
ATOM     30  H   UNK     1       0.906   3.378  16.884  0.00  0.00    +0.000 HD
ENDBRANCH  27  29
ENDBRANCH  16  27
ENDBRANCH   1  16
TORSDOF 8
ENDMDL
MODEL 7
REMARK VINA RESULT:      -7.6      3.872      8.773
REMARK  Name = 
REMARK  9 active torsions:
REMARK  status: ('A' for Active; 'I' for Inactive)
REMARK    1  A    between atoms: C_1  and  O_2
REMARK    2  A    between atoms: O_2  and  C_3
REMARK    3  A    between atoms: C_8  and  C_9
REMARK    4  A    between atoms: C_12  and  C_13
REMARK    5  A    between atoms: C_13  and  C_14
REMARK    6  A    between atoms: C_14  and  N_15
REMARK    7  A    between atoms: C_14  and  C_23
REMARK    8  A    between atoms: C_16  and  C_18
REMARK    9  A    between atoms: C_23  and  O_25
REMARK                            x       y       z     vdW  Elec       q    Type
REMARK                         _______ _______ _______ _____ _____    ______ ____
ROOT
ATOM      1  C   UNK     1       2.135  10.330  18.065  0.00  0.00    +0.000 C 
ENDROOT
BRANCH   1   5
ATOM      2  C   UNK     1       2.276   6.180  19.446  0.00  0.00    +0.000 A 
ATOM      3  C   UNK     1       2.563   6.525  18.114  0.00  0.00    +0.000 A 
ATOM      4  C   UNK     1       2.466   7.846  17.647  0.00  0.00    +0.000 A 
ATOM      5  C   UNK     1       2.098   8.883  18.507  0.00  0.00    +0.000 A 
ATOM      6  C   UNK     1       1.776   8.555  19.829  0.00  0.00    +0.000 A 
ATOM      7  C   UNK     1       1.854   7.229  20.283  0.00  0.00    +0.000 A 
BRANCH   2  13
ATOM      8  C   UNK     1       3.580   3.967  19.637  0.00  0.00    +0.000 A 
ATOM      9  C   UNK     1       3.741   2.708  20.244  0.00  0.00    +0.000 A 
ATOM     10  C   UNK     1       2.793   2.219  21.142  0.00  0.00    +0.000 A 
ATOM     11  C   UNK     1       1.685   2.988  21.454  0.00  0.00    +0.000 A 
ATOM     12  C   UNK     1       1.539   4.260  20.886  0.00  0.00    +0.000 A 
ATOM     13  C   UNK     1       2.477   4.793  19.973  0.00  0.00    +0.000 A 
BRANCH   8  15
ATOM     14  C   UNK     1       5.716   4.947  19.289  0.00  0.00    +0.000 C 
ATOM     15  O   UNK     1       4.499   4.453  18.738  0.00  0.00    +0.000 OA
ENDBRANCH   8  15
ENDBRANCH   2  13
ENDBRANCH   1   5
BRANCH   1  16
ATOM     16  C   UNK     1       1.002  11.234  18.585  0.00  0.00    +0.000 C 
BRANCH  16  17
ATOM     17  N   UNK     1      -0.324  10.840  18.074  0.00  0.00    +0.000 N 
ATOM     18  C   UNK     1      -1.512  10.982  18.749  0.00  0.00    +0.000 C 
ATOM     19  O   UNK     1      -1.546  11.302  19.937  0.00  0.00    +0.000 OA
ATOM     20  H   UNK     1      -0.437  10.711  17.069  0.00  0.00    +0.000 HD
BRANCH  18  21
ATOM     21  C   UNK     1      -2.763  10.618  17.930  0.00  0.00    +0.000 C 
ATOM     22  C   UNK     1      -2.429   9.961  16.605  0.00  0.00    +0.000 C 
ATOM     23  C   UNK     1      -3.650  10.247  15.752  0.00  0.00    +0.000 C 
ATOM     24  C   UNK     1      -4.234  11.533  16.313  0.00  0.00    +0.000 C 
ATOM     25  N   UNK     1      -3.470  11.858  17.522  0.00  0.00    +0.000 NA
ATOM     26  H   UNK     1      -4.104  12.147  18.267  0.00  0.00    +0.000 HD
ENDBRANCH  18  21
ENDBRANCH  16  17
BRANCH  16  27
ATOM     27  C   UNK     1       1.303  12.720  18.342  0.00  0.00    +0.000 C 
ATOM     28  O   UNK     1       0.756  13.624  18.963  0.00  0.00    +0.000 OA
BRANCH  27  29
ATOM     29  O   UNK     1       2.241  12.976  17.401  0.00  0.00    +0.000 OA
ATOM     30  H   UNK     1       2.490  13.932  17.352  0.00  0.00    +0.000 HD
ENDBRANCH  27  29
ENDBRANCH  16  27
ENDBRANCH   1  16
TORSDOF 8
ENDMDL
MODEL 8
REMARK VINA RESULT:      -7.6      1.172      1.642
REMARK  Name = 
REMARK  9 active torsions:
REMARK  status: ('A' for Active; 'I' for Inactive)
REMARK    1  A    between atoms: C_1  and  O_2
REMARK    2  A    between atoms: O_2  and  C_3
REMARK    3  A    between atoms: C_8  and  C_9
REMARK    4  A    between atoms: C_12  and  C_13
REMARK    5  A    between atoms: C_13  and  C_14
REMARK    6  A    between atoms: C_14  and  N_15
REMARK    7  A    between atoms: C_14  and  C_23
REMARK    8  A    between atoms: C_16  and  C_18
REMARK    9  A    between atoms: C_23  and  O_25
REMARK                            x       y       z     vdW  Elec       q    Type
REMARK                         _______ _______ _______ _____ _____    ______ ____
ROOT
ATOM      1  C   UNK     1       3.852   4.944  17.993  0.00  0.00    +0.000 C 
ENDROOT
BRANCH   1   5
ATOM      2  C   UNK     1       1.443   7.944  20.079  0.00  0.00    +0.000 A 
ATOM      3  C   UNK     1       1.539   6.622  20.543  0.00  0.00    +0.000 A 
ATOM      4  C   UNK     1       2.263   5.637  19.851  0.00  0.00    +0.000 A 
ATOM      5  C   UNK     1       2.943   5.947  18.672  0.00  0.00    +0.000 A 
ATOM      6  C   UNK     1       2.833   7.250  18.175  0.00  0.00    +0.000 A 
ATOM      7  C   UNK     1       2.089   8.223  18.860  0.00  0.00    +0.000 A 
BRANCH   2  13
ATOM      8  C   UNK     1       0.143  10.158  20.284  0.00  0.00    +0.000 A 
ATOM      9  C   UNK     1      -0.556  11.079  21.086  0.00  0.00    +0.000 A 
ATOM     10  C   UNK     1      -0.609  10.928  22.471  0.00  0.00    +0.000 A 
ATOM     11  C   UNK     1       0.021   9.847  23.066  0.00  0.00    +0.000 A 
ATOM     12  C   UNK     1       0.683   8.903  22.270  0.00  0.00    +0.000 A 
ATOM     13  C   UNK     1       0.759   9.020  20.865  0.00  0.00    +0.000 A 
BRANCH   8  15
ATOM     14  C   UNK     1      -1.024  10.293  18.219  0.00  0.00    +0.000 C 
ATOM     15  O   UNK     1       0.216  10.305  18.920  0.00  0.00    +0.000 OA
ENDBRANCH   8  15
ENDBRANCH   2  13
ENDBRANCH   1   5
BRANCH   1  16
ATOM     16  C   UNK     1       5.228   5.464  17.537  0.00  0.00    +0.000 C 
BRANCH  16  17
ATOM     17  N   UNK     1       5.675   4.861  16.269  0.00  0.00    +0.000 N 
ATOM     18  C   UNK     1       6.805   5.216  15.572  0.00  0.00    +0.000 C 
ATOM     19  O   UNK     1       7.462   6.211  15.873  0.00  0.00    +0.000 OA
ATOM     20  H   UNK     1       5.305   3.946  16.010  0.00  0.00    +0.000 HD
BRANCH  18  21
ATOM     21  C   UNK     1       7.111   4.331  14.352  0.00  0.00    +0.000 C 
ATOM     22  C   UNK     1       7.552   5.129  13.140  0.00  0.00    +0.000 C 
ATOM     23  C   UNK     1       7.210   4.220  11.975  0.00  0.00    +0.000 C 
ATOM     24  C   UNK     1       6.050   3.367  12.465  0.00  0.00    +0.000 C 
ATOM     25  N   UNK     1       5.864   3.674  13.886  0.00  0.00    +0.000 NA
ATOM     26  H   UNK     1       5.719   2.811  14.412  0.00  0.00    +0.000 HD
ENDBRANCH  18  21
ENDBRANCH  16  17
BRANCH  16  27
ATOM     27  C   UNK     1       6.281   5.338  18.648  0.00  0.00    +0.000 C 
ATOM     28  O   UNK     1       6.284   4.425  19.466  0.00  0.00    +0.000 OA
BRANCH  27  29
ATOM     29  O   UNK     1       7.234   6.298  18.655  0.00  0.00    +0.000 OA
ATOM     30  H   UNK     1       8.115   5.966  18.958  0.00  0.00    +0.000 HD
ENDBRANCH  27  29
ENDBRANCH  16  27
ENDBRANCH   1  16
TORSDOF 8
ENDMDL
MODEL 9
REMARK VINA RESULT:      -7.6      1.529      1.907
REMARK  Name = 
REMARK  9 active torsions:
REMARK  status: ('A' for Active; 'I' for Inactive)
REMARK    1  A    between atoms: C_1  and  O_2
REMARK    2  A    between atoms: O_2  and  C_3
REMARK    3  A    between atoms: C_8  and  C_9
REMARK    4  A    between atoms: C_12  and  C_13
REMARK    5  A    between atoms: C_13  and  C_14
REMARK    6  A    between atoms: C_14  and  N_15
REMARK    7  A    between atoms: C_14  and  C_23
REMARK    8  A    between atoms: C_16  and  C_18
REMARK    9  A    between atoms: C_23  and  O_25
REMARK                            x       y       z     vdW  Elec       q    Type
REMARK                         _______ _______ _______ _____ _____    ______ ____
ROOT
ATOM      1  C   UNK     1       2.455   5.127  19.428  0.00  0.00    +0.000 C 
ENDROOT
BRANCH   1   5
ATOM      2  C   UNK     1       1.457   9.351  18.860  0.00  0.00    +0.000 A 
ATOM      3  C   UNK     1       1.968   8.566  17.812  0.00  0.00    +0.000 A 
ATOM      4  C   UNK     1       2.344   7.225  17.998  0.00  0.00    +0.000 A 
ATOM      5  C   UNK     1       2.200   6.608  19.242  0.00  0.00    +0.000 A 
ATOM      6  C   UNK     1       1.725   7.382  20.306  0.00  0.00    +0.000 A 
ATOM      7  C   UNK     1       1.371   8.728  20.119  0.00  0.00    +0.000 A 
BRANCH   2  13
ATOM      8  C   UNK     1      -0.407  11.084  18.463  0.00  0.00    +0.000 A 
ATOM      9  C   UNK     1      -0.801  12.430  18.353  0.00  0.00    +0.000 A 
ATOM     10  C   UNK     1       0.142  13.456  18.359  0.00  0.00    +0.000 A 
ATOM     11  C   UNK     1       1.486  13.149  18.491  0.00  0.00    +0.000 A 
ATOM     12  C   UNK     1       1.883  11.815  18.644  0.00  0.00    +0.000 A 
ATOM     13  C   UNK     1       0.959  10.746  18.643  0.00  0.00    +0.000 A 
BRANCH   8  15
ATOM     14  C   UNK     1      -2.622  10.393  17.954  0.00  0.00    +0.000 C 
ATOM     15  O   UNK     1      -1.326  10.062  18.442  0.00  0.00    +0.000 OA
ENDBRANCH   8  15
ENDBRANCH   2  13
ENDBRANCH   1   5
BRANCH   1  16
ATOM     16  C   UNK     1       3.882   4.634  19.126  0.00  0.00    +0.000 C 
BRANCH  16  17
ATOM     17  N   UNK     1       4.309   4.930  17.747  0.00  0.00    +0.000 N 
ATOM     18  C   UNK     1       5.611   4.986  17.310  0.00  0.00    +0.000 C 
ATOM     19  O   UNK     1       6.557   4.962  18.097  0.00  0.00    +0.000 OA
ATOM     20  H   UNK     1       3.630   4.816  16.994  0.00  0.00    +0.000 HD
BRANCH  18  21
ATOM     21  C   UNK     1       5.771   5.176  15.792  0.00  0.00    +0.000 C 
ATOM     22  C   UNK     1       5.496   3.907  15.007  0.00  0.00    +0.000 C 
ATOM     23  C   UNK     1       6.266   4.117  13.717  0.00  0.00    +0.000 C 
ATOM     24  C   UNK     1       7.409   5.049  14.085  0.00  0.00    +0.000 C 
ATOM     25  N   UNK     1       7.191   5.468  15.473  0.00  0.00    +0.000 NA
ATOM     26  H   UNK     1       7.359   6.470  15.565  0.00  0.00    +0.000 HD
ENDBRANCH  18  21
ENDBRANCH  16  17
BRANCH  16  27
ATOM     27  C   UNK     1       4.061   3.153  19.489  0.00  0.00    +0.000 C 
ATOM     28  O   UNK     1       3.130   2.356  19.525  0.00  0.00    +0.000 OA
BRANCH  27  29
ATOM     29  O   UNK     1       5.332   2.768  19.748  0.00  0.00    +0.000 OA
ATOM     30  H   UNK     1       5.978   3.087  19.071  0.00  0.00    +0.000 HD
ENDBRANCH  27  29
ENDBRANCH  16  27
ENDBRANCH   1  16
TORSDOF 8
ENDMDL
