MODEL 1
REMARK VINA RESULT:      -6.1      0.000      0.000
REMARK  Name = 
REMARK  11 active torsions:
REMARK  status: ('A' for Active; 'I' for Inactive)
REMARK    1  A    between atoms: C_1  and  C_2
REMARK    2  A    between atoms: C_10  and  C_11
REMARK    3  A    between atoms: C_15  and  C_16
REMARK    4  A    between atoms: C_19  and  C_20
REMARK    5  A    between atoms: C_20  and  O_21
REMARK    6  A    between atoms: C_20  and  C_26
REMARK    7  A    between atoms: O_21  and  C_22
REMARK    8  A    between atoms: C_22  and  C_23
REMARK    9  A    between atoms: C_22  and  C_24
REMARK   10  A    between atoms: C_22  and  C_25
REMARK   11  A    between atoms: C_26  and  O_28
REMARK                            x       y       z     vdW  Elec       q    Type
REMARK                         _______ _______ _______ _____ _____    ______ ____
ROOT
ATOM      1  C   UNL     1      -3.692  13.306  20.934  0.00  0.00    +0.000 C 
ATOM      2  C   UNL     1      -3.013  12.338  20.016  0.00  0.00    +0.000 A 
ATOM      3  N   UNL     1      -3.800  12.136  18.939  0.00  0.00    +0.000 NA
ATOM      4  C   UNL     1      -3.400  11.400  17.918  0.00  0.00    +0.000 A 
ATOM      5  C   UNL     1      -4.244  11.419  16.825  0.00  0.00    +0.000 A 
ATOM      6  C   UNL     1      -3.957  10.721  15.659  0.00  0.00    +0.000 A 
ATOM      7  C   UNL     1      -2.840   9.913  15.636  0.00  0.00    +0.000 A 
ATOM      8  C   UNL     1      -2.013   9.851  16.764  0.00  0.00    +0.000 A 
ATOM      9  C   UNL     1      -2.200  10.677  17.919  0.00  0.00    +0.000 A 
ATOM     10  C   UNL     1      -1.296  10.879  19.059  0.00  0.00    +0.000 A 
ATOM     11  C   UNL     1      -1.721  11.786  20.132  0.00  0.00    +0.000 A 
ENDROOT
BRANCH  10  12
ATOM     12  C   UNL     1       0.057  10.163  19.007  0.00  0.00    +0.000 A 
ATOM     13  C   UNL     1       1.076  10.563  18.108  0.00  0.00    +0.000 A 
ATOM     14  C   UNL     1       2.186   9.757  17.793  0.00  0.00    +0.000 A 
ATOM     15  C   UNL     1       2.400   8.585  18.490  0.00  0.00    +0.000 A 
ATOM     16  C   UNL     1       1.502   8.228  19.491  0.00  0.00    +0.000 A 
ATOM     17  C   UNL     1       0.332   8.982  19.721  0.00  0.00    +0.000 A 
BRANCH  16  18
ATOM     18  C   UNL     1       1.758   7.056  20.277  0.00  0.00    +0.000 C 
ATOM     19  N   UNL     1       1.977   6.129  20.922  0.00  0.00    +0.000 NA
ENDBRANCH  16  18
ENDBRANCH  10  12
BRANCH  11  20
ATOM     20  C   UNL     1      -0.725  12.262  21.200  0.00  0.00    +0.000 C 
BRANCH  20  21
ATOM     21  C   UNL     1      -0.735  11.898  22.707  0.00  0.00    +0.000 C 
ATOM     22  O   UNL     1      -0.389  10.870  23.257  0.00  0.00    +0.000 OA
BRANCH  21  23
ATOM     23  O   UNL     1      -1.151  12.963  23.463  0.00  0.00    +0.000 OA
ATOM     24  H   UNL     1      -2.108  12.901  23.667  0.00  0.00    +0.000 HD
ENDBRANCH  21  23
ENDBRANCH  20  21
BRANCH  20  25
ATOM     25  O   UNL     1      -0.341  13.633  21.010  0.00  0.00    +0.000 OA
BRANCH  25  26
ATOM     26  C   UNL     1       0.884  13.978  20.332  0.00  0.00    +0.000 C 
ATOM     27  C   UNL     1       0.704  14.180  18.822  0.00  0.00    +0.000 C 
ATOM     28  C   UNL     1       1.293  15.297  21.008  0.00  0.00    +0.000 C 
ATOM     29  C   UNL     1       2.050  13.007  20.554  0.00  0.00    +0.000 C 
ENDBRANCH  25  26
ENDBRANCH  20  25
ENDBRANCH  11  20
TORSDOF 7
ENDMDL
MODEL 2
REMARK VINA RESULT:      -5.6      2.089      5.226
REMARK  Name = 
REMARK  11 active torsions:
REMARK  status: ('A' for Active; 'I' for Inactive)
REMARK    1  A    between atoms: C_1  and  C_2
REMARK    2  A    between atoms: C_10  and  C_11
REMARK    3  A    between atoms: C_15  and  C_16
REMARK    4  A    between atoms: C_19  and  C_20
REMARK    5  A    between atoms: C_20  and  O_21
REMARK    6  A    between atoms: C_20  and  C_26
REMARK    7  A    between atoms: O_21  and  C_22
REMARK    8  A    between atoms: C_22  and  C_23
REMARK    9  A    between atoms: C_22  and  C_24
REMARK   10  A    between atoms: C_22  and  C_25
REMARK   11  A    between atoms: C_26  and  O_28
REMARK                            x       y       z     vdW  Elec       q    Type
REMARK                         _______ _______ _______ _____ _____    ______ ____
ROOT
ATOM      1  C   UNL     1       1.395  10.230  18.574  0.00  0.00    +0.000 C 
ATOM      2  C   UNL     1       0.037  10.847  18.697  0.00  0.00    +0.000 A 
ATOM      3  N   UNL     1      -0.727  10.423  17.669  0.00  0.00    +0.000 NA
ATOM      4  C   UNL     1      -2.007  10.736  17.584  0.00  0.00    +0.000 A 
ATOM      5  C   UNL     1      -2.693  10.097  16.569  0.00  0.00    +0.000 A 
ATOM      6  C   UNL     1      -4.052  10.293  16.359  0.00  0.00    +0.000 A 
ATOM      7  C   UNL     1      -4.708  11.226  17.135  0.00  0.00    +0.000 A 
ATOM      8  C   UNL     1      -4.000  11.914  18.129  0.00  0.00    +0.000 A 
ATOM      9  C   UNL     1      -2.640  11.619  18.469  0.00  0.00    +0.000 A 
ATOM     10  C   UNL     1      -1.858  12.092  19.619  0.00  0.00    +0.000 A 
ATOM     11  C   UNL     1      -0.467  11.645  19.745  0.00  0.00    +0.000 A 
ENDROOT
BRANCH  10  12
ATOM     12  C   UNL     1      -2.585  12.979  20.634  0.00  0.00    +0.000 A 
ATOM     13  C   UNL     1      -2.415  14.385  20.649  0.00  0.00    +0.000 A 
ATOM     14  C   UNL     1      -2.790  15.195  21.739  0.00  0.00    +0.000 A 
ATOM     15  C   UNL     1      -3.496  14.644  22.788  0.00  0.00    +0.000 A 
ATOM     16  C   UNL     1      -3.818  13.292  22.742  0.00  0.00    +0.000 A 
ATOM     17  C   UNL     1      -3.341  12.466  21.704  0.00  0.00    +0.000 A 
BRANCH  16  18
ATOM     18  C   UNL     1      -4.622  12.727  23.788  0.00  0.00    +0.000 C 
ATOM     19  N   UNL     1      -5.254  12.253  24.624  0.00  0.00    +0.000 NA
ENDBRANCH  16  18
ENDBRANCH  10  12
BRANCH  11  20
ATOM     20  C   UNL     1       0.315  11.864  21.049  0.00  0.00    +0.000 C 
BRANCH  20  21
ATOM     21  C   UNL     1       1.254  13.051  21.381  0.00  0.00    +0.000 C 
ATOM     22  O   UNL     1       2.366  13.301  20.955  0.00  0.00    +0.000 OA
BRANCH  21  23
ATOM     23  O   UNL     1       0.646  13.930  22.240  0.00  0.00    +0.000 OA
ATOM     24  H   UNL     1       1.103  13.953  23.107  0.00  0.00    +0.000 HD
ENDBRANCH  21  23
ENDBRANCH  20  21
BRANCH  20  25
ATOM     25  O   UNL     1       0.840  10.636  21.579  0.00  0.00    +0.000 OA
BRANCH  25  26
ATOM     26  C   UNL     1       0.087   9.848  22.523  0.00  0.00    +0.000 C 
ATOM     27  C   UNL     1      -1.082  10.616  23.155  0.00  0.00    +0.000 C 
ATOM     28  C   UNL     1      -0.433   8.684  21.665  0.00  0.00    +0.000 C 
ATOM     29  C   UNL     1       0.911   9.212  23.649  0.00  0.00    +0.000 C 
ENDBRANCH  25  26
ENDBRANCH  20  25
ENDBRANCH  11  20
TORSDOF 7
ENDMDL
MODEL 3
REMARK VINA RESULT:      -5.6      1.922      4.649
REMARK  Name = 
REMARK  11 active torsions:
REMARK  status: ('A' for Active; 'I' for Inactive)
REMARK    1  A    between atoms: C_1  and  C_2
REMARK    2  A    between atoms: C_10  and  C_11
REMARK    3  A    between atoms: C_15  and  C_16
REMARK    4  A    between atoms: C_19  and  C_20
REMARK    5  A    between atoms: C_20  and  O_21
REMARK    6  A    between atoms: C_20  and  C_26
REMARK    7  A    between atoms: O_21  and  C_22
REMARK    8  A    between atoms: C_22  and  C_23
REMARK    9  A    between atoms: C_22  and  C_24
REMARK   10  A    between atoms: C_22  and  C_25
REMARK   11  A    between atoms: C_26  and  O_28
REMARK                            x       y       z     vdW  Elec       q    Type
REMARK                         _______ _______ _______ _____ _____    ______ ____
ROOT
ATOM      1  C   UNL     1       1.334  10.096  18.605  0.00  0.00    +0.000 C 
ATOM      2  C   UNL     1      -0.011  10.734  18.759  0.00  0.00    +0.000 A 
ATOM      3  N   UNL     1      -0.791  10.356  17.725  0.00  0.00    +0.000 NA
ATOM      4  C   UNL     1      -2.066  10.694  17.661  0.00  0.00    +0.000 A 
ATOM      5  C   UNL     1      -2.772  10.100  16.632  0.00  0.00    +0.000 A 
ATOM      6  C   UNL     1      -4.129  10.327  16.440  0.00  0.00    +0.000 A 
ATOM      7  C   UNL     1      -4.761  11.247  17.250  0.00  0.00    +0.000 A 
ATOM      8  C   UNL     1      -4.033  11.890  18.259  0.00  0.00    +0.000 A 
ATOM      9  C   UNL     1      -2.675  11.561  18.578  0.00  0.00    +0.000 A 
ATOM     10  C   UNL     1      -1.876  11.984  19.735  0.00  0.00    +0.000 A 
ATOM     11  C   UNL     1      -0.492  11.507  19.835  0.00  0.00    +0.000 A 
ENDROOT
BRANCH  10  12
ATOM     12  C   UNL     1      -2.578  12.851  20.784  0.00  0.00    +0.000 A 
ATOM     13  C   UNL     1      -2.558  14.265  20.713  0.00  0.00    +0.000 A 
ATOM     14  C   UNL     1      -2.896  15.096  21.799  0.00  0.00    +0.000 A 
ATOM     15  C   UNL     1      -3.421  14.540  22.947  0.00  0.00    +0.000 A 
ATOM     16  C   UNL     1      -3.600  13.162  23.002  0.00  0.00    +0.000 A 
ATOM     17  C   UNL     1      -3.154  12.328  21.957  0.00  0.00    +0.000 A 
BRANCH  16  18
ATOM     18  C   UNL     1      -4.221  12.582  24.158  0.00  0.00    +0.000 C 
ATOM     19  N   UNL     1      -4.721  12.095  25.073  0.00  0.00    +0.000 NA
ENDBRANCH  16  18
ENDBRANCH  10  12
BRANCH  11  20
ATOM     20  C   UNL     1       0.304  11.671  21.139  0.00  0.00    +0.000 C 
BRANCH  20  21
ATOM     21  C   UNL     1       0.288  10.719  22.362  0.00  0.00    +0.000 C 
ATOM     22  O   UNL     1      -0.469  10.694  23.314  0.00  0.00    +0.000 OA
BRANCH  21  23
ATOM     23  O   UNL     1       1.262   9.761  22.247  0.00  0.00    +0.000 OA
ATOM     24  H   UNL     1       1.814   9.908  21.451  0.00  0.00    +0.000 HD
ENDBRANCH  21  23
ENDBRANCH  20  21
BRANCH  20  25
ATOM     25  O   UNL     1       0.375  13.042  21.562  0.00  0.00    +0.000 OA
BRANCH  25  26
ATOM     26  C   UNL     1       1.311  13.960  20.962  0.00  0.00    +0.000 C 
ATOM     27  C   UNL     1       0.796  14.581  19.656  0.00  0.00    +0.000 C 
ATOM     28  C   UNL     1       1.478  15.040  22.043  0.00  0.00    +0.000 C 
ATOM     29  C   UNL     1       2.712  13.393  20.707  0.00  0.00    +0.000 C 
ENDBRANCH  25  26
ENDBRANCH  20  25
ENDBRANCH  11  20
TORSDOF 7
ENDMDL
MODEL 4
REMARK VINA RESULT:      -5.5      2.615      6.002
REMARK  Name = 
REMARK  11 active torsions:
REMARK  status: ('A' for Active; 'I' for Inactive)
REMARK    1  A    between atoms: C_1  and  C_2
REMARK    2  A    between atoms: C_10  and  C_11
REMARK    3  A    between atoms: C_15  and  C_16
REMARK    4  A    between atoms: C_19  and  C_20
REMARK    5  A    between atoms: C_20  and  O_21
REMARK    6  A    between atoms: C_20  and  C_26
REMARK    7  A    between atoms: O_21  and  C_22
REMARK    8  A    between atoms: C_22  and  C_23
REMARK    9  A    between atoms: C_22  and  C_24
REMARK   10  A    between atoms: C_22  and  C_25
REMARK   11  A    between atoms: C_26  and  O_28
REMARK                            x       y       z     vdW  Elec       q    Type
REMARK                         _______ _______ _______ _____ _____    ______ ____
ROOT
ATOM      1  C   UNL     1      -1.149  10.586  17.739  0.00  0.00    +0.000 C 
ATOM      2  C   UNL     1      -2.146  11.311  18.588  0.00  0.00    +0.000 A 
ATOM      3  N   UNL     1      -3.356  11.237  17.996  0.00  0.00    +0.000 NA
ATOM      4  C   UNL     1      -4.442  11.710  18.581  0.00  0.00    +0.000 A 
ATOM      5  C   UNL     1      -5.624  11.417  17.929  0.00  0.00    +0.000 A 
ATOM      6  C   UNL     1      -6.859  11.816  18.424  0.00  0.00    +0.000 A 
ATOM      7  C   UNL     1      -6.888  12.607  19.553  0.00  0.00    +0.000 A 
ATOM      8  C   UNL     1      -5.685  12.950  20.184  0.00  0.00    +0.000 A 
ATOM      9  C   UNL     1      -4.413  12.425  19.785  0.00  0.00    +0.000 A 
ATOM     10  C   UNL     1      -3.124  12.515  20.482  0.00  0.00    +0.000 A 
ATOM     11  C   UNL     1      -1.952  11.890  19.859  0.00  0.00    +0.000 A 
ENDROOT
BRANCH  10  12
ATOM     12  C   UNL     1      -3.119  13.213  21.845  0.00  0.00    +0.000 A 
ATOM     13  C   UNL     1      -3.580  12.561  23.015  0.00  0.00    +0.000 A 
ATOM     14  C   UNL     1      -3.900  13.246  24.204  0.00  0.00    +0.000 A 
ATOM     15  C   UNL     1      -3.617  14.591  24.314  0.00  0.00    +0.000 A 
ATOM     16  C   UNL     1      -3.023  15.241  23.238  0.00  0.00    +0.000 A 
ATOM     17  C   UNL     1      -2.811  14.575  22.013  0.00  0.00    +0.000 A 
BRANCH  16  18
ATOM     18  C   UNL     1      -2.649  16.620  23.371  0.00  0.00    +0.000 C 
ATOM     19  N   UNL     1      -2.367  17.732  23.461  0.00  0.00    +0.000 NA
ENDBRANCH  16  18
ENDBRANCH  10  12
BRANCH  11  20
ATOM     20  C   UNL     1      -0.649  11.697  20.650  0.00  0.00    +0.000 C 
BRANCH  20  21
ATOM     21  C   UNL     1       0.569  12.655  20.680  0.00  0.00    +0.000 C 
ATOM     22  O   UNL     1       1.035  13.287  21.608  0.00  0.00    +0.000 OA
BRANCH  21  23
ATOM     23  O   UNL     1       1.191  12.691  19.458  0.00  0.00    +0.000 OA
ATOM     24  H   UNL     1       2.088  12.299  19.504  0.00  0.00    +0.000 HD
ENDBRANCH  21  23
ENDBRANCH  20  21
BRANCH  20  25
ATOM     25  O   UNL     1      -0.220  10.326  20.663  0.00  0.00    +0.000 OA
BRANCH  25  26
ATOM     26  C   UNL     1      -0.050   9.609  21.903  0.00  0.00    +0.000 C 
ATOM     27  C   UNL     1      -0.796  10.251  23.080  0.00  0.00    +0.000 C 
ATOM     28  C   UNL     1      -0.636   8.224  21.583  0.00  0.00    +0.000 C 
ATOM     29  C   UNL     1       1.404   9.369  22.325  0.00  0.00    +0.000 C 
ENDBRANCH  25  26
ENDBRANCH  20  25
ENDBRANCH  11  20
TORSDOF 7
ENDMDL
MODEL 5
REMARK VINA RESULT:      -5.5      2.111      5.259
REMARK  Name = 
REMARK  11 active torsions:
REMARK  status: ('A' for Active; 'I' for Inactive)
REMARK    1  A    between atoms: C_1  and  C_2
REMARK    2  A    between atoms: C_10  and  C_11
REMARK    3  A    between atoms: C_15  and  C_16
REMARK    4  A    between atoms: C_19  and  C_20
REMARK    5  A    between atoms: C_20  and  O_21
REMARK    6  A    between atoms: C_20  and  C_26
REMARK    7  A    between atoms: O_21  and  C_22
REMARK    8  A    between atoms: C_22  and  C_23
REMARK    9  A    between atoms: C_22  and  C_24
REMARK   10  A    between atoms: C_22  and  C_25
REMARK   11  A    between atoms: C_26  and  O_28
REMARK                            x       y       z     vdW  Elec       q    Type
REMARK                         _______ _______ _______ _____ _____    ______ ____
ROOT
ATOM      1  C   UNL     1       1.335  10.475  18.603  0.00  0.00    +0.000 C 
ATOM      2  C   UNL     1      -0.050  11.026  18.738  0.00  0.00    +0.000 A 
ATOM      3  N   UNL     1      -0.801  10.569  17.714  0.00  0.00    +0.000 NA
ATOM      4  C   UNL     1      -2.095  10.820  17.640  0.00  0.00    +0.000 A 
ATOM      5  C   UNL     1      -2.757  10.153  16.627  0.00  0.00    +0.000 A 
ATOM      6  C   UNL     1      -4.125  10.284  16.428  0.00  0.00    +0.000 A 
ATOM      7  C   UNL     1      -4.819  11.181  17.213  0.00  0.00    +0.000 A 
ATOM      8  C   UNL     1      -4.138  11.898  18.204  0.00  0.00    +0.000 A 
ATOM      9  C   UNL     1      -2.763  11.668  18.533  0.00  0.00    +0.000 A 
ATOM     10  C   UNL     1      -1.996  12.174  19.679  0.00  0.00    +0.000 A 
ATOM     11  C   UNL     1      -0.584  11.794  19.793  0.00  0.00    +0.000 A 
ENDROOT
BRANCH  10  12
ATOM     12  C   UNL     1      -2.758  13.021  20.703  0.00  0.00    +0.000 A 
ATOM     13  C   UNL     1      -2.692  14.435  20.695  0.00  0.00    +0.000 A 
ATOM     14  C   UNL     1      -3.094  15.233  21.784  0.00  0.00    +0.000 A 
ATOM     15  C   UNL     1      -3.727  14.648  22.862  0.00  0.00    +0.000 A 
ATOM     16  C   UNL     1      -3.948  13.275  22.844  0.00  0.00    +0.000 A 
ATOM     17  C   UNL     1      -3.441  12.470  21.803  0.00  0.00    +0.000 A 
BRANCH  16  18
ATOM     18  C   UNL     1      -4.678  12.668  23.920  0.00  0.00    +0.000 C 
ATOM     19  N   UNL     1      -5.244  12.188  24.799  0.00  0.00    +0.000 NA
ENDBRANCH  16  18
ENDBRANCH  10  12
BRANCH  11  20
ATOM     20  C   UNL     1       0.196  12.045  21.092  0.00  0.00    +0.000 C 
BRANCH  20  21
ATOM     21  C   UNL     1       0.943  13.343  21.491  0.00  0.00    +0.000 C 
ATOM     22  O   UNL     1       0.518  14.348  22.028  0.00  0.00    +0.000 OA
BRANCH  21  23
ATOM     23  O   UNL     1       2.283  13.238  21.219  0.00  0.00    +0.000 OA
ATOM     24  H   UNL     1       2.806  13.133  22.041  0.00  0.00    +0.000 HD
ENDBRANCH  21  23
ENDBRANCH  20  21
BRANCH  20  25
ATOM     25  O   UNL     1       0.929  10.885  21.518  0.00  0.00    +0.000 OA
BRANCH  25  26
ATOM     26  C   UNL     1       0.303   9.857  22.313  0.00  0.00    +0.000 C 
ATOM     27  C   UNL     1       1.262   9.198  23.313  0.00  0.00    +0.000 C 
ATOM     28  C   UNL     1      -0.806  10.621  23.053  0.00  0.00    +0.000 C 
ATOM     29  C   UNL     1      -0.400   8.752  21.517  0.00  0.00    +0.000 C 
ENDBRANCH  25  26
ENDBRANCH  20  25
ENDBRANCH  11  20
TORSDOF 7
ENDMDL
MODEL 6
REMARK VINA RESULT:      -5.5      2.566      5.484
REMARK  Name = 
REMARK  11 active torsions:
REMARK  status: ('A' for Active; 'I' for Inactive)
REMARK    1  A    between atoms: C_1  and  C_2
REMARK    2  A    between atoms: C_10  and  C_11
REMARK    3  A    between atoms: C_15  and  C_16
REMARK    4  A    between atoms: C_19  and  C_20
REMARK    5  A    between atoms: C_20  and  O_21
REMARK    6  A    between atoms: C_20  and  C_26
REMARK    7  A    between atoms: O_21  and  C_22
REMARK    8  A    between atoms: C_22  and  C_23
REMARK    9  A    between atoms: C_22  and  C_24
REMARK   10  A    between atoms: C_22  and  C_25
REMARK   11  A    between atoms: C_26  and  O_28
REMARK                            x       y       z     vdW  Elec       q    Type
REMARK                         _______ _______ _______ _____ _____    ______ ____
ROOT
ATOM      1  C   UNL     1      -2.088   9.757  16.686  0.00  0.00    +0.000 C 
ATOM      2  C   UNL     1      -2.519  10.711  17.755  0.00  0.00    +0.000 A 
ATOM      3  N   UNL     1      -3.819  11.017  17.567  0.00  0.00    +0.000 NA
ATOM      4  C   UNL     1      -4.485  11.766  18.427  0.00  0.00    +0.000 A 
ATOM      5  C   UNL     1      -5.842  11.857  18.186  0.00  0.00    +0.000 A 
ATOM      6  C   UNL     1      -6.692  12.582  19.011  0.00  0.00    +0.000 A 
ATOM      7  C   UNL     1      -6.140  13.306  20.047  0.00  0.00    +0.000 A 
ATOM      8  C   UNL     1      -4.757  13.257  20.259  0.00  0.00    +0.000 A 
ATOM      9  C   UNL     1      -3.880  12.397  19.522  0.00  0.00    +0.000 A 
ATOM     10  C   UNL     1      -2.470  12.080  19.785  0.00  0.00    +0.000 A 
ATOM     11  C   UNL     1      -1.782  11.161  18.871  0.00  0.00    +0.000 A 
ENDROOT
BRANCH  10  12
ATOM     12  C   UNL     1      -1.843  12.696  21.038  0.00  0.00    +0.000 A 
ATOM     13  C   UNL     1      -2.132  12.201  22.334  0.00  0.00    +0.000 A 
ATOM     14  C   UNL     1      -1.851  12.918  23.513  0.00  0.00    +0.000 A 
ATOM     15  C   UNL     1      -1.124  14.089  23.444  0.00  0.00    +0.000 A 
ATOM     16  C   UNL     1      -0.688  14.534  22.200  0.00  0.00    +0.000 A 
ATOM     17  C   UNL     1      -1.071  13.872  21.016  0.00  0.00    +0.000 A 
BRANCH  16  18
ATOM     18  C   UNL     1       0.138  15.705  22.125  0.00  0.00    +0.000 C 
ATOM     19  N   UNL     1       0.812  16.637  22.084  0.00  0.00    +0.000 NA
ENDBRANCH  16  18
ENDBRANCH  10  12
BRANCH  11  20
ATOM     20  C   UNL     1      -0.414  10.567  19.235  0.00  0.00    +0.000 C 
BRANCH  20  21
ATOM     21  C   UNL     1       0.813  10.417  18.300  0.00  0.00    +0.000 C 
ATOM     22  O   UNL     1       1.274   9.418  17.782  0.00  0.00    +0.000 OA
BRANCH  21  23
ATOM     23  O   UNL     1       1.364  11.641  18.018  0.00  0.00    +0.000 OA
ATOM     24  H   UNL     1       2.012  11.578  17.284  0.00  0.00    +0.000 HD
ENDBRANCH  21  23
ENDBRANCH  20  21
BRANCH  20  25
ATOM     25  O   UNL     1      -0.531   9.431  20.107  0.00  0.00    +0.000 OA
BRANCH  25  26
ATOM     26  C   UNL     1       0.323   9.283  21.259  0.00  0.00    +0.000 C 
ATOM     27  C   UNL     1       1.023  10.587  21.664  0.00  0.00    +0.000 C 
ATOM     28  C   UNL     1      -0.654   8.832  22.357  0.00  0.00    +0.000 C 
ATOM     29  C   UNL     1       1.381   8.179  21.152  0.00  0.00    +0.000 C 
ENDBRANCH  25  26
ENDBRANCH  20  25
ENDBRANCH  11  20
TORSDOF 7
ENDMDL
MODEL 7
REMARK VINA RESULT:      -5.4      0.846      1.216
REMARK  Name = 
REMARK  11 active torsions:
REMARK  status: ('A' for Active; 'I' for Inactive)
REMARK    1  A    between atoms: C_1  and  C_2
REMARK    2  A    between atoms: C_10  and  C_11
REMARK    3  A    between atoms: C_15  and  C_16
REMARK    4  A    between atoms: C_19  and  C_20
REMARK    5  A    between atoms: C_20  and  O_21
REMARK    6  A    between atoms: C_20  and  C_26
REMARK    7  A    between atoms: O_21  and  C_22
REMARK    8  A    between atoms: C_22  and  C_23
REMARK    9  A    between atoms: C_22  and  C_24
REMARK   10  A    between atoms: C_22  and  C_25
REMARK   11  A    between atoms: C_26  and  O_28
REMARK                            x       y       z     vdW  Elec       q    Type
REMARK                         _______ _______ _______ _____ _____    ______ ____
ROOT
ATOM      1  C   UNL     1      -2.995  12.845  21.291  0.00  0.00    +0.000 C 
ATOM      2  C   UNL     1      -2.420  11.936  20.251  0.00  0.00    +0.000 A 
ATOM      3  N   UNL     1      -3.252  11.910  19.189  0.00  0.00    +0.000 NA
ATOM      4  C   UNL     1      -2.940  11.262  18.081  0.00  0.00    +0.000 A 
ATOM      5  C   UNL     1      -3.813  11.461  17.029  0.00  0.00    +0.000 A 
ATOM      6  C   UNL     1      -3.616  10.875  15.785  0.00  0.00    +0.000 A 
ATOM      7  C   UNL     1      -2.564   9.996  15.634  0.00  0.00    +0.000 A 
ATOM      8  C   UNL     1      -1.710   9.752  16.717  0.00  0.00    +0.000 A 
ATOM      9  C   UNL     1      -1.799  10.459  17.960  0.00  0.00    +0.000 A 
ATOM     10  C   UNL     1      -0.848  10.470  19.079  0.00  0.00    +0.000 A 
ATOM     11  C   UNL     1      -1.170  11.283  20.257  0.00  0.00    +0.000 A 
ENDROOT
BRANCH  10  12
ATOM     12  C   UNL     1       0.444   9.669  18.899  0.00  0.00    +0.000 A 
ATOM     13  C   UNL     1       1.396  10.005  17.905  0.00  0.00    +0.000 A 
ATOM     14  C   UNL     1       2.417   9.129  17.487  0.00  0.00    +0.000 A 
ATOM     15  C   UNL     1       2.620   7.944  18.164  0.00  0.00    +0.000 A 
ATOM     16  C   UNL     1       1.801   7.643  19.248  0.00  0.00    +0.000 A 
ATOM     17  C   UNL     1       0.710   8.470  19.587  0.00  0.00    +0.000 A 
BRANCH  16  18
ATOM     18  C   UNL     1       2.055   6.454  20.010  0.00  0.00    +0.000 C 
ATOM     19  N   UNL     1       2.270   5.514  20.638  0.00  0.00    +0.000 NA
ENDBRANCH  16  18
ENDBRANCH  10  12
BRANCH  11  20
ATOM     20  C   UNL     1      -0.110  11.567  21.331  0.00  0.00    +0.000 C 
BRANCH  20  21
ATOM     21  C   UNL     1       0.182  10.720  22.596  0.00  0.00    +0.000 C 
ATOM     22  O   UNL     1      -0.495  10.562  23.595  0.00  0.00    +0.000 OA
BRANCH  21  23
ATOM     23  O   UNL     1       1.363  10.036  22.464  0.00  0.00    +0.000 OA
ATOM     24  H   UNL     1       2.133  10.636  22.556  0.00  0.00    +0.000 HD
ENDBRANCH  21  23
ENDBRANCH  20  21
BRANCH  20  25
ATOM     25  O   UNL     1       0.007  12.970  21.620  0.00  0.00    +0.000 OA
BRANCH  25  26
ATOM     26  C   UNL     1       0.969  13.795  20.933  0.00  0.00    +0.000 C 
ATOM     27  C   UNL     1       2.033  12.986  20.180  0.00  0.00    +0.000 C 
ATOM     28  C   UNL     1       0.100  14.592  19.948  0.00  0.00    +0.000 C 
ATOM     29  C   UNL     1       1.682  14.834  21.807  0.00  0.00    +0.000 C 
ENDBRANCH  25  26
ENDBRANCH  20  25
ENDBRANCH  11  20
TORSDOF 7
ENDMDL
MODEL 8
REMARK VINA RESULT:      -5.4      2.627      5.673
REMARK  Name = 
REMARK  11 active torsions:
REMARK  status: ('A' for Active; 'I' for Inactive)
REMARK    1  A    between atoms: C_1  and  C_2
REMARK    2  A    between atoms: C_10  and  C_11
REMARK    3  A    between atoms: C_15  and  C_16
REMARK    4  A    between atoms: C_19  and  C_20
REMARK    5  A    between atoms: C_20  and  O_21
REMARK    6  A    between atoms: C_20  and  C_26
REMARK    7  A    between atoms: O_21  and  C_22
REMARK    8  A    between atoms: C_22  and  C_23
REMARK    9  A    between atoms: C_22  and  C_24
REMARK   10  A    between atoms: C_22  and  C_25
REMARK   11  A    between atoms: C_26  and  O_28
REMARK                            x       y       z     vdW  Elec       q    Type
REMARK                         _______ _______ _______ _____ _____    ______ ____
ROOT
ATOM      1  C   UNL     1      -1.431  10.747  17.774  0.00  0.00    +0.000 C 
ATOM      2  C   UNL     1      -2.403  11.447  18.671  0.00  0.00    +0.000 A 
ATOM      3  N   UNL     1      -3.640  11.335  18.144  0.00  0.00    +0.000 NA
ATOM      4  C   UNL     1      -4.707  11.779  18.783  0.00  0.00    +0.000 A 
ATOM      5  C   UNL     1      -5.912  11.450  18.194  0.00  0.00    +0.000 A 
ATOM      6  C   UNL     1      -7.131  11.815  18.752  0.00  0.00    +0.000 A 
ATOM      7  C   UNL     1      -7.124  12.610  19.879  0.00  0.00    +0.000 A 
ATOM      8  C   UNL     1      -5.901  12.990  20.445  0.00  0.00    +0.000 A 
ATOM      9  C   UNL     1      -4.637  12.500  19.982  0.00  0.00    +0.000 A 
ATOM     10  C   UNL     1      -3.316  12.631  20.610  0.00  0.00    +0.000 A 
ATOM     11  C   UNL     1      -2.160  12.037  19.929  0.00  0.00    +0.000 A 
ENDROOT
BRANCH  10  12
ATOM     12  C   UNL     1      -3.261  13.335  21.969  0.00  0.00    +0.000 A 
ATOM     13  C   UNL     1      -3.555  12.650  23.174  0.00  0.00    +0.000 A 
ATOM     14  C   UNL     1      -3.835  13.309  24.386  0.00  0.00    +0.000 A 
ATOM     15  C   UNL     1      -3.673  14.676  24.474  0.00  0.00    +0.000 A 
ATOM     16  C   UNL     1      -3.238  15.372  23.352  0.00  0.00    +0.000 A 
ATOM     17  C   UNL     1      -3.070  14.721  22.112  0.00  0.00    +0.000 A 
BRANCH  16  18
ATOM     18  C   UNL     1      -2.987  16.782  23.454  0.00  0.00    +0.000 C 
ATOM     19  N   UNL     1      -2.811  17.916  23.533  0.00  0.00    +0.000 NA
ENDBRANCH  16  18
ENDBRANCH  10  12
BRANCH  11  20
ATOM     20  C   UNL     1      -0.813  11.886  20.652  0.00  0.00    +0.000 C 
BRANCH  20  21
ATOM     21  C   UNL     1      -0.488  10.916  21.817  0.00  0.00    +0.000 C 
ATOM     22  O   UNL     1      -0.396  11.141  23.009  0.00  0.00    +0.000 OA
BRANCH  21  23
ATOM     23  O   UNL     1      -0.358   9.630  21.360  0.00  0.00    +0.000 OA
ATOM     24  H   UNL     1      -0.167   9.612  20.399  0.00  0.00    +0.000 HD
ENDBRANCH  21  23
ENDBRANCH  20  21
BRANCH  20  25
ATOM     25  O   UNL     1      -0.155  13.149  20.843  0.00  0.00    +0.000 OA
BRANCH  25  26
ATOM     26  C   UNL     1       0.745  13.679  19.848  0.00  0.00    +0.000 C 
ATOM     27  C   UNL     1       0.064  14.643  18.868  0.00  0.00    +0.000 C 
ATOM     28  C   UNL     1       1.794  14.419  20.692  0.00  0.00    +0.000 C 
ATOM     29  C   UNL     1       1.515  12.629  19.038  0.00  0.00    +0.000 C 
ENDBRANCH  25  26
ENDBRANCH  20  25
ENDBRANCH  11  20
TORSDOF 7
ENDMDL
MODEL 9
REMARK VINA RESULT:      -5.4      2.520      5.594
REMARK  Name = 
REMARK  11 active torsions:
REMARK  status: ('A' for Active; 'I' for Inactive)
REMARK    1  A    between atoms: C_1  and  C_2
REMARK    2  A    between atoms: C_10  and  C_11
REMARK    3  A    between atoms: C_15  and  C_16
REMARK    4  A    between atoms: C_19  and  C_20
REMARK    5  A    between atoms: C_20  and  O_21
REMARK    6  A    between atoms: C_20  and  C_26
REMARK    7  A    between atoms: O_21  and  C_22
REMARK    8  A    between atoms: C_22  and  C_23
REMARK    9  A    between atoms: C_22  and  C_24
REMARK   10  A    between atoms: C_22  and  C_25
REMARK   11  A    between atoms: C_26  and  O_28
REMARK                            x       y       z     vdW  Elec       q    Type
REMARK                         _______ _______ _______ _____ _____    ______ ____
ROOT
ATOM      1  C   UNL     1      -1.752   9.778  16.809  0.00  0.00    +0.000 C 
ATOM      2  C   UNL     1      -2.210  10.745  17.855  0.00  0.00    +0.000 A 
ATOM      3  N   UNL     1      -3.541  10.925  17.728  0.00  0.00    +0.000 NA
ATOM      4  C   UNL     1      -4.226  11.655  18.589  0.00  0.00    +0.000 A 
ATOM      5  C   UNL     1      -5.597  11.614  18.422  0.00  0.00    +0.000 A 
ATOM      6  C   UNL     1      -6.464  12.304  19.260  0.00  0.00    +0.000 A 
ATOM      7  C   UNL     1      -5.926  13.125  20.227  0.00  0.00    +0.000 A 
ATOM      8  C   UNL     1      -4.534  13.210  20.362  0.00  0.00    +0.000 A 
ATOM      9  C   UNL     1      -3.624  12.393  19.616  0.00  0.00    +0.000 A 
ATOM     10  C   UNL     1      -2.179  12.215  19.812  0.00  0.00    +0.000 A 
ATOM     11  C   UNL     1      -1.460  11.315  18.904  0.00  0.00    +0.000 A 
ENDROOT
BRANCH  10  12
ATOM     12  C   UNL     1      -1.545  12.948  20.998  0.00  0.00    +0.000 A 
ATOM     13  C   UNL     1      -1.755  12.524  22.333  0.00  0.00    +0.000 A 
ATOM     14  C   UNL     1      -1.475  13.332  23.452  0.00  0.00    +0.000 A 
ATOM     15  C   UNL     1      -0.824  14.536  23.279  0.00  0.00    +0.000 A 
ATOM     16  C   UNL     1      -0.462  14.923  21.993  0.00  0.00    +0.000 A 
ATOM     17  C   UNL     1      -0.847  14.163  20.870  0.00  0.00    +0.000 A 
BRANCH  16  18
ATOM     18  C   UNL     1       0.288  16.133  21.810  0.00  0.00    +0.000 C 
ATOM     19  N   UNL     1       0.910  17.089  21.663  0.00  0.00    +0.000 NA
ENDBRANCH  16  18
ENDBRANCH  10  12
BRANCH  11  20
ATOM     20  C   UNL     1      -0.026  10.863  19.218  0.00  0.00    +0.000 C 
BRANCH  20  21
ATOM     21  C   UNL     1       1.262  11.260  18.451  0.00  0.00    +0.000 C 
ATOM     22  O   UNL     1       1.965  12.244  18.577  0.00  0.00    +0.000 OA
BRANCH  21  23
ATOM     23  O   UNL     1       1.623  10.279  17.564  0.00  0.00    +0.000 OA
ATOM     24  H   UNL     1       1.199  10.416  16.690  0.00  0.00    +0.000 HD
ENDBRANCH  21  23
ENDBRANCH  20  21
BRANCH  20  25
ATOM     25  O   UNL     1       0.032   9.487  19.630  0.00  0.00    +0.000 OA
BRANCH  25  26
ATOM     26  C   UNL     1       0.446   9.125  20.963  0.00  0.00    +0.000 C 
ATOM     27  C   UNL     1      -0.679   8.497  21.797  0.00  0.00    +0.000 C 
ATOM     28  C   UNL     1       1.566   8.103  20.711  0.00  0.00    +0.000 C 
ATOM     29  C   UNL     1       1.079  10.257  21.781  0.00  0.00    +0.000 C 
ENDBRANCH  25  26
ENDBRANCH  20  25
ENDBRANCH  11  20
TORSDOF 7
ENDMDL
