MODEL 1
REMARK VINA RESULT:     -10.0      0.000      0.000
REMARK  Name = 
REMARK  3 active torsions:
REMARK  status: ('A' for Active; 'I' for Inactive)
REMARK    1  A    between atoms: C_4  and  C_5
REMARK    2  A    between atoms: C_7  and  C_8
REMARK    3  A    between atoms: C_18  and  C_19
REMARK                            x       y       z     vdW  Elec       q    Type
REMARK                         _______ _______ _______ _____ _____    ______ ____
ROOT
ATOM      1  C   UNL     1       3.770   5.610  18.015  0.00  0.00    +0.000 A 
ATOM      2  N   UNL     1       4.778   5.840  17.104  0.00  0.00    +0.000 NA
ATOM      3  C   UNL     1       5.225   4.667  16.701  0.00  0.00    +0.000 A 
ATOM      4  N   UNL     1       4.633   3.667  17.445  0.00  0.00    +0.000 N 
ATOM      5  C   UNL     1       3.710   4.261  18.328  0.00  0.00    +0.000 A 
ATOM      6  H   UNL     1       4.783   2.675  17.342  0.00  0.00    +0.000 HD
ENDROOT
BRANCH   3   7
ATOM      7  C   UNL     1       6.109   4.608  15.477  0.00  0.00    +0.000 A 
ATOM      8  C   UNL     1       7.379   5.131  15.646  0.00  0.00    +0.000 A 
ATOM      9  N   UNL     1       7.823   5.506  14.420  0.00  0.00    +0.000 N 
ATOM     10  C   UNL     1       7.177   4.757  13.472  0.00  0.00    +0.000 A 
ATOM     11  C   UNL     1       7.521   4.588  12.123  0.00  0.00    +0.000 A 
ATOM     12  C   UNL     1       6.728   3.748  11.360  0.00  0.00    +0.000 A 
ATOM     13  C   UNL     1       5.581   3.174  11.917  0.00  0.00    +0.000 A 
ATOM     14  C   UNL     1       5.210   3.408  13.260  0.00  0.00    +0.000 A 
ATOM     15  C   UNL     1       6.048   4.183  14.101  0.00  0.00    +0.000 A 
ATOM     16  H   UNL     1       8.574   6.156  14.243  0.00  0.00    +0.000 HD
ENDBRANCH   3   7
BRANCH   1  20
ATOM     17  C   UNL     1       1.459   8.890  19.528  0.00  0.00    +0.000 A 
ATOM     18  C   UNL     1       1.756   7.809  20.351  0.00  0.00    +0.000 A 
ATOM     19  C   UNL     1       2.436   6.707  19.830  0.00  0.00    +0.000 A 
ATOM     20  C   UNL     1       2.923   6.700  18.512  0.00  0.00    +0.000 A 
ATOM     21  C   UNL     1       2.572   7.774  17.688  0.00  0.00    +0.000 A 
ATOM     22  C   UNL     1       1.838   8.856  18.189  0.00  0.00    +0.000 A 
ENDBRANCH   1  20
BRANCH   5  23
ATOM     23  C   UNL     1       2.834   3.547  19.277  0.00  0.00    +0.000 A 
ATOM     24  C   UNL     1       3.320   3.158  20.541  0.00  0.00    +0.000 A 
ATOM     25  C   UNL     1       2.451   2.778  21.574  0.00  0.00    +0.000 A 
ATOM     26  C   UNL     1       1.084   2.714  21.335  0.00  0.00    +0.000 A 
ATOM     27  C   UNL     1       0.595   3.005  20.060  0.00  0.00    +0.000 A 
ATOM     28  C   UNL     1       1.460   3.423  19.039  0.00  0.00    +0.000 A 
ENDBRANCH   5  23
TORSDOF 3
ENDMDL
MODEL 2
REMARK VINA RESULT:     -10.0      0.657      3.659
REMARK  Name = 
REMARK  3 active torsions:
REMARK  status: ('A' for Active; 'I' for Inactive)
REMARK    1  A    between atoms: C_4  and  C_5
REMARK    2  A    between atoms: C_7  and  C_8
REMARK    3  A    between atoms: C_18  and  C_19
REMARK                            x       y       z     vdW  Elec       q    Type
REMARK                         _______ _______ _______ _____ _____    ______ ____
ROOT
ATOM      1  C   UNL     1       3.209   4.961  18.180  0.00  0.00    +0.000 A 
ATOM      2  N   UNL     1       3.928   4.403  17.146  0.00  0.00    +0.000 NA
ATOM      3  C   UNL     1       4.526   5.385  16.501  0.00  0.00    +0.000 A 
ATOM      4  N   UNL     1       4.089   6.596  16.999  0.00  0.00    +0.000 N 
ATOM      5  C   UNL     1       3.206   6.343  18.068  0.00  0.00    +0.000 A 
ATOM      6  H   UNL     1       4.389   7.511  16.698  0.00  0.00    +0.000 HD
ENDROOT
BRANCH   3   7
ATOM      7  C   UNL     1       5.626   5.050  15.522  0.00  0.00    +0.000 A 
ATOM      8  C   UNL     1       6.899   5.413  15.925  0.00  0.00    +0.000 A 
ATOM      9  N   UNL     1       7.646   5.563  14.801  0.00  0.00    +0.000 N 
ATOM     10  C   UNL     1       7.102   4.793  13.807  0.00  0.00    +0.000 A 
ATOM     11  C   UNL     1       7.690   4.407  12.594  0.00  0.00    +0.000 A 
ATOM     12  C   UNL     1       6.950   3.592  11.754  0.00  0.00    +0.000 A 
ATOM     13  C   UNL     1       5.634   3.256  12.088  0.00  0.00    +0.000 A 
ATOM     14  C   UNL     1       5.032   3.708  13.283  0.00  0.00    +0.000 A 
ATOM     15  C   UNL     1       5.788   4.464  14.215  0.00  0.00    +0.000 A 
ATOM     16  H   UNL     1       8.511   6.077  14.739  0.00  0.00    +0.000 HD
ENDBRANCH   3   7
BRANCH   1  20
ATOM     17  C   UNL     1       1.346   2.695  21.308  0.00  0.00    +0.000 A 
ATOM     18  C   UNL     1       2.717   2.927  21.338  0.00  0.00    +0.000 A 
ATOM     19  C   UNL     1       3.331   3.593  20.276  0.00  0.00    +0.000 A 
ATOM     20  C   UNL     1       2.583   4.129  19.214  0.00  0.00    +0.000 A 
ATOM     21  C   UNL     1       1.214   3.843  19.178  0.00  0.00    +0.000 A 
ATOM     22  C   UNL     1       0.602   3.123  20.212  0.00  0.00    +0.000 A 
ENDBRANCH   1  20
BRANCH   5  23
ATOM     23  C   UNL     1       2.540   7.359  18.903  0.00  0.00    +0.000 A 
ATOM     24  C   UNL     1       2.055   8.550  18.326  0.00  0.00    +0.000 A 
ATOM     25  C   UNL     1       1.149   9.377  19.007  0.00  0.00    +0.000 A 
ATOM     26  C   UNL     1       0.768   9.059  20.304  0.00  0.00    +0.000 A 
ATOM     27  C   UNL     1       1.313   7.934  20.925  0.00  0.00    +0.000 A 
ATOM     28  C   UNL     1       2.189   7.086  20.231  0.00  0.00    +0.000 A 
ENDBRANCH   5  23
TORSDOF 3
ENDMDL
MODEL 3
REMARK VINA RESULT:      -9.9      0.565      1.431
REMARK  Name = 
REMARK  3 active torsions:
REMARK  status: ('A' for Active; 'I' for Inactive)
REMARK    1  A    between atoms: C_4  and  C_5
REMARK    2  A    between atoms: C_7  and  C_8
REMARK    3  A    between atoms: C_18  and  C_19
REMARK                            x       y       z     vdW  Elec       q    Type
REMARK                         _______ _______ _______ _____ _____    ______ ____
ROOT
ATOM      1  C   UNL     1       3.613   6.194  18.062  0.00  0.00    +0.000 A 
ATOM      2  N   UNL     1       4.656   6.296  17.168  0.00  0.00    +0.000 NA
ATOM      3  C   UNL     1       5.058   5.073  16.886  0.00  0.00    +0.000 A 
ATOM      4  N   UNL     1       4.399   4.172  17.697  0.00  0.00    +0.000 N 
ATOM      5  C   UNL     1       3.480   4.884  18.494  0.00  0.00    +0.000 A 
ATOM      6  H   UNL     1       4.505   3.169  17.689  0.00  0.00    +0.000 HD
ENDROOT
BRANCH   3   7
ATOM      7  C   UNL     1       5.973   4.863  15.702  0.00  0.00    +0.000 A 
ATOM      8  C   UNL     1       7.275   5.293  15.884  0.00  0.00    +0.000 A 
ATOM      9  N   UNL     1       7.786   5.550  14.653  0.00  0.00    +0.000 N 
ATOM     10  C   UNL     1       7.112   4.794  13.731  0.00  0.00    +0.000 A 
ATOM     11  C   UNL     1       7.483   4.510  12.410  0.00  0.00    +0.000 A 
ATOM     12  C   UNL     1       6.648   3.687  11.673  0.00  0.00    +0.000 A 
ATOM     13  C   UNL     1       5.441   3.244  12.222  0.00  0.00    +0.000 A 
ATOM     14  C   UNL     1       5.049   3.594  13.533  0.00  0.00    +0.000 A 
ATOM     15  C   UNL     1       5.920   4.354  14.354  0.00  0.00    +0.000 A 
ATOM     16  H   UNL     1       8.593   6.125  14.464  0.00  0.00    +0.000 HD
ENDBRANCH   3   7
BRANCH   1  20
ATOM     17  C   UNL     1       1.091   9.510  19.080  0.00  0.00    +0.000 A 
ATOM     18  C   UNL     1       1.673   9.439  17.818  0.00  0.00    +0.000 A 
ATOM     19  C   UNL     1       2.559   8.403  17.521  0.00  0.00    +0.000 A 
ATOM     20  C   UNL     1       2.805   7.362  18.433  0.00  0.00    +0.000 A 
ATOM     21  C   UNL     1       2.249   7.478  19.711  0.00  0.00    +0.000 A 
ATOM     22  C   UNL     1       1.406   8.548  20.035  0.00  0.00    +0.000 A 
ENDBRANCH   1  20
BRANCH   5  23
ATOM     23  C   UNL     1       2.546   4.300  19.475  0.00  0.00    +0.000 A 
ATOM     24  C   UNL     1       1.361   3.671  19.044  0.00  0.00    +0.000 A 
ATOM     25  C   UNL     1       0.623   2.837  19.896  0.00  0.00    +0.000 A 
ATOM     26  C   UNL     1       1.024   2.674  21.215  0.00  0.00    +0.000 A 
ATOM     27  C   UNL     1       2.143   3.365  21.685  0.00  0.00    +0.000 A 
ATOM     28  C   UNL     1       2.902   4.169  20.823  0.00  0.00    +0.000 A 
ENDBRANCH   5  23
TORSDOF 3
ENDMDL
MODEL 4
REMARK VINA RESULT:      -9.4      0.846      3.791
REMARK  Name = 
REMARK  3 active torsions:
REMARK  status: ('A' for Active; 'I' for Inactive)
REMARK    1  A    between atoms: C_4  and  C_5
REMARK    2  A    between atoms: C_7  and  C_8
REMARK    3  A    between atoms: C_18  and  C_19
REMARK                            x       y       z     vdW  Elec       q    Type
REMARK                         _______ _______ _______ _____ _____    ______ ____
ROOT
ATOM      1  C   UNL     1       3.014   5.108  18.356  0.00  0.00    +0.000 A 
ATOM      2  N   UNL     1       3.830   4.534  17.405  0.00  0.00    +0.000 NA
ATOM      3  C   UNL     1       4.370   5.511  16.703  0.00  0.00    +0.000 A 
ATOM      4  N   UNL     1       3.806   6.714  17.077  0.00  0.00    +0.000 N 
ATOM      5  C   UNL     1       2.897   6.470  18.125  0.00  0.00    +0.000 A 
ATOM      6  H   UNL     1       4.040   7.624  16.710  0.00  0.00    +0.000 HD
ENDROOT
BRANCH   3   7
ATOM      7  C   UNL     1       5.543   5.197  15.804  0.00  0.00    +0.000 A 
ATOM      8  C   UNL     1       6.781   5.543  16.314  0.00  0.00    +0.000 A 
ATOM      9  N   UNL     1       7.614   5.721  15.256  0.00  0.00    +0.000 N 
ATOM     10  C   UNL     1       7.146   4.981  14.202  0.00  0.00    +0.000 A 
ATOM     11  C   UNL     1       7.826   4.626  13.028  0.00  0.00    +0.000 A 
ATOM     12  C   UNL     1       7.152   3.838  12.111  0.00  0.00    +0.000 A 
ATOM     13  C   UNL     1       5.813   3.499  12.332  0.00  0.00    +0.000 A 
ATOM     14  C   UNL     1       5.121   3.921  13.489  0.00  0.00    +0.000 A 
ATOM     15  C   UNL     1       5.804   4.647  14.497  0.00  0.00    +0.000 A 
ATOM     16  H   UNL     1       8.483   6.232  15.276  0.00  0.00    +0.000 HD
ENDBRANCH   3   7
BRANCH   1  20
ATOM     17  C   UNL     1       1.330   2.617  21.413  0.00  0.00    +0.000 A 
ATOM     18  C   UNL     1       0.592   2.913  20.271  0.00  0.00    +0.000 A 
ATOM     19  C   UNL     1       1.112   3.791  19.319  0.00  0.00    +0.000 A 
ATOM     20  C   UNL     1       2.413   4.311  19.431  0.00  0.00    +0.000 A 
ATOM     21  C   UNL     1       3.118   4.040  20.609  0.00  0.00    +0.000 A 
ATOM     22  C   UNL     1       2.577   3.207  21.596  0.00  0.00    +0.000 A 
ENDBRANCH   1  20
BRANCH   5  23
ATOM     23  C   UNL     1       2.104   7.487  18.841  0.00  0.00    +0.000 A 
ATOM     24  C   UNL     1       1.895   7.380  20.231  0.00  0.00    +0.000 A 
ATOM     25  C   UNL     1       1.436   8.467  20.988  0.00  0.00    +0.000 A 
ATOM     26  C   UNL     1       1.112   9.660  20.354  0.00  0.00    +0.000 A 
ATOM     27  C   UNL     1       1.224   9.752  18.964  0.00  0.00    +0.000 A 
ATOM     28  C   UNL     1       1.720   8.678  18.213  0.00  0.00    +0.000 A 
ENDBRANCH   5  23
TORSDOF 3
ENDMDL
MODEL 5
REMARK VINA RESULT:      -9.3      2.712      7.498
REMARK  Name = 
REMARK  3 active torsions:
REMARK  status: ('A' for Active; 'I' for Inactive)
REMARK    1  A    between atoms: C_4  and  C_5
REMARK    2  A    between atoms: C_7  and  C_8
REMARK    3  A    between atoms: C_18  and  C_19
REMARK                            x       y       z     vdW  Elec       q    Type
REMARK                         _______ _______ _______ _____ _____    ______ ____
ROOT
ATOM      1  C   UNL     1       2.541   6.391  18.846  0.00  0.00    +0.000 A 
ATOM      2  N   UNL     1       1.798   7.519  19.112  0.00  0.00    +0.000 NA
ATOM      3  C   UNL     1       2.249   8.485  18.336  0.00  0.00    +0.000 A 
ATOM      4  N   UNL     1       3.378   8.053  17.672  0.00  0.00    +0.000 N 
ATOM      5  C   UNL     1       3.606   6.706  18.016  0.00  0.00    +0.000 A 
ATOM      6  H   UNL     1       3.921   8.582  17.007  0.00  0.00    +0.000 HD
ENDROOT
BRANCH   3   7
ATOM      7  C   UNL     1       1.424   9.741  18.185  0.00  0.00    +0.000 A 
ATOM      8  C   UNL     1       2.151  10.917  18.132  0.00  0.00    +0.000 A 
ATOM      9  N   UNL     1       1.328  11.915  18.543  0.00  0.00    +0.000 N 
ATOM     10  C   UNL     1       0.032  11.540  18.307  0.00  0.00    +0.000 A 
ATOM     11  C   UNL     1      -1.112  12.350  18.291  0.00  0.00    +0.000 A 
ATOM     12  C   UNL     1      -2.321  11.745  17.993  0.00  0.00    +0.000 A 
ATOM     13  C   UNL     1      -2.383  10.360  17.809  0.00  0.00    +0.000 A 
ATOM     14  C   UNL     1      -1.230   9.548  17.894  0.00  0.00    +0.000 A 
ATOM     15  C   UNL     1       0.041  10.140  18.101  0.00  0.00    +0.000 A 
ATOM     16  H   UNL     1       1.627  12.820  18.873  0.00  0.00    +0.000 HD
ENDBRANCH   3   7
BRANCH   1  20
ATOM     17  C   UNL     1       1.281   2.638  20.495  0.00  0.00    +0.000 A 
ATOM     18  C   UNL     1       1.887   3.589  21.310  0.00  0.00    +0.000 A 
ATOM     19  C   UNL     1       2.370   4.773  20.752  0.00  0.00    +0.000 A 
ATOM     20  C   UNL     1       2.171   5.081  19.396  0.00  0.00    +0.000 A 
ATOM     21  C   UNL     1       1.604   4.093  18.585  0.00  0.00    +0.000 A 
ATOM     22  C   UNL     1       1.171   2.877  19.129  0.00  0.00    +0.000 A 
ENDBRANCH   1  20
BRANCH   5  23
ATOM     23  C   UNL     1       4.690   5.849  17.499  0.00  0.00    +0.000 A 
ATOM     24  C   UNL     1       4.958   5.794  16.117  0.00  0.00    +0.000 A 
ATOM     25  C   UNL     1       6.157   5.259  15.625  0.00  0.00    +0.000 A 
ATOM     26  C   UNL     1       7.078   4.707  16.506  0.00  0.00    +0.000 A 
ATOM     27  C   UNL     1       6.784   4.667  17.871  0.00  0.00    +0.000 A 
ATOM     28  C   UNL     1       5.603   5.237  18.366  0.00  0.00    +0.000 A 
ENDBRANCH   5  23
TORSDOF 3
ENDMDL
MODEL 6
REMARK VINA RESULT:      -9.3      2.381      7.972
REMARK  Name = 
REMARK  3 active torsions:
REMARK  status: ('A' for Active; 'I' for Inactive)
REMARK    1  A    between atoms: C_4  and  C_5
REMARK    2  A    between atoms: C_7  and  C_8
REMARK    3  A    between atoms: C_18  and  C_19
REMARK                            x       y       z     vdW  Elec       q    Type
REMARK                         _______ _______ _______ _____ _____    ______ ____
ROOT
ATOM      1  C   UNL     1       3.248   5.744  18.447  0.00  0.00    +0.000 A 
ATOM      2  N   UNL     1       2.376   6.566  19.128  0.00  0.00    +0.000 NA
ATOM      3  C   UNL     1       2.549   7.792  18.675  0.00  0.00    +0.000 A 
ATOM      4  N   UNL     1       3.628   7.817  17.814  0.00  0.00    +0.000 N 
ATOM      5  C   UNL     1       4.118   6.503  17.680  0.00  0.00    +0.000 A 
ATOM      6  H   UNL     1       3.978   8.621  17.316  0.00  0.00    +0.000 HD
ENDROOT
BRANCH   3   7
ATOM      7  C   UNL     1       1.519   8.844  19.010  0.00  0.00    +0.000 A 
ATOM      8  C   UNL     1       1.055   9.574  17.931  0.00  0.00    +0.000 A 
ATOM      9  N   UNL     1       0.608  10.762  18.414  0.00  0.00    +0.000 N 
ATOM     10  C   UNL     1       0.251  10.595  19.726  0.00  0.00    +0.000 A 
ATOM     11  C   UNL     1      -0.525  11.447  20.525  0.00  0.00    +0.000 A 
ATOM     12  C   UNL     1      -0.783  11.047  21.825  0.00  0.00    +0.000 A 
ATOM     13  C   UNL     1      -0.204   9.876  22.324  0.00  0.00    +0.000 A 
ATOM     14  C   UNL     1       0.630   9.062  21.526  0.00  0.00    +0.000 A 
ATOM     15  C   UNL     1       0.841   9.385  20.162  0.00  0.00    +0.000 A 
ATOM     16  H   UNL     1       0.471  11.600  17.870  0.00  0.00    +0.000 HD
ENDBRANCH   3   7
BRANCH   1  20
ATOM     17  C   UNL     1       3.180   1.462  18.664  0.00  0.00    +0.000 A 
ATOM     18  C   UNL     1       2.331   2.128  17.786  0.00  0.00    +0.000 A 
ATOM     19  C   UNL     1       2.297   3.523  17.780  0.00  0.00    +0.000 A 
ATOM     20  C   UNL     1       3.177   4.283  18.569  0.00  0.00    +0.000 A 
ATOM     21  C   UNL     1       3.987   3.596  19.479  0.00  0.00    +0.000 A 
ATOM     22  C   UNL     1       3.982   2.196  19.533  0.00  0.00    +0.000 A 
ENDBRANCH   1  20
BRANCH   5  23
ATOM     23  C   UNL     1       5.242   6.078  16.824  0.00  0.00    +0.000 A 
ATOM     24  C   UNL     1       6.440   5.610  17.401  0.00  0.00    +0.000 A 
ATOM     25  C   UNL     1       7.390   4.908  16.645  0.00  0.00    +0.000 A 
ATOM     26  C   UNL     1       7.187   4.723  15.284  0.00  0.00    +0.000 A 
ATOM     27  C   UNL     1       6.050   5.263  14.679  0.00  0.00    +0.000 A 
ATOM     28  C   UNL     1       5.082   5.932  15.441  0.00  0.00    +0.000 A 
ENDBRANCH   5  23
TORSDOF 3
ENDMDL
MODEL 7
REMARK VINA RESULT:      -9.1      2.801      7.526
REMARK  Name = 
REMARK  3 active torsions:
REMARK  status: ('A' for Active; 'I' for Inactive)
REMARK    1  A    between atoms: C_4  and  C_5
REMARK    2  A    between atoms: C_7  and  C_8
REMARK    3  A    between atoms: C_18  and  C_19
REMARK                            x       y       z     vdW  Elec       q    Type
REMARK                         _______ _______ _______ _____ _____    ______ ____
ROOT
ATOM      1  C   UNL     1       2.570   6.484  18.472  0.00  0.00    +0.000 A 
ATOM      2  N   UNL     1       1.730   7.525  18.804  0.00  0.00    +0.000 NA
ATOM      3  C   UNL     1       2.197   8.612  18.223  0.00  0.00    +0.000 A 
ATOM      4  N   UNL     1       3.417   8.336  17.638  0.00  0.00    +0.000 N 
ATOM      5  C   UNL     1       3.693   6.966  17.820  0.00  0.00    +0.000 A 
ATOM      6  H   UNL     1       3.992   8.980  17.118  0.00  0.00    +0.000 HD
ENDROOT
BRANCH   3   7
ATOM      7  C   UNL     1       1.313   9.835  18.151  0.00  0.00    +0.000 A 
ATOM      8  C   UNL     1       1.981  11.045  18.214  0.00  0.00    +0.000 A 
ATOM      9  N   UNL     1       1.099  11.965  18.681  0.00  0.00    +0.000 N 
ATOM     10  C   UNL     1      -0.170  11.547  18.380  0.00  0.00    +0.000 A 
ATOM     11  C   UNL     1      -1.353  12.299  18.397  0.00  0.00    +0.000 A 
ATOM     12  C   UNL     1      -2.523  11.662  18.018  0.00  0.00    +0.000 A 
ATOM     13  C   UNL     1      -2.509  10.296  17.720  0.00  0.00    +0.000 A 
ATOM     14  C   UNL     1      -1.319   9.537  17.772  0.00  0.00    +0.000 A 
ATOM     15  C   UNL     1      -0.086  10.171  18.061  0.00  0.00    +0.000 A 
ATOM     16  H   UNL     1       1.343  12.853  19.092  0.00  0.00    +0.000 HD
ENDBRANCH   3   7
BRANCH   1  20
ATOM     17  C   UNL     1       1.384   2.463  19.377  0.00  0.00    +0.000 A 
ATOM     18  C   UNL     1       1.453   3.414  20.391  0.00  0.00    +0.000 A 
ATOM     19  C   UNL     1       1.919   4.698  20.106  0.00  0.00    +0.000 A 
ATOM     20  C   UNL     1       2.229   5.093  18.793  0.00  0.00    +0.000 A 
ATOM     21  C   UNL     1       2.200   4.110  17.799  0.00  0.00    +0.000 A 
ATOM     22  C   UNL     1       1.790   2.802  18.090  0.00  0.00    +0.000 A 
ENDBRANCH   1  20
BRANCH   5  23
ATOM     23  C   UNL     1       4.879   6.246  17.318  0.00  0.00    +0.000 A 
ATOM     24  C   UNL     1       5.777   5.637  18.217  0.00  0.00    +0.000 A 
ATOM     25  C   UNL     1       6.716   4.690  17.785  0.00  0.00    +0.000 A 
ATOM     26  C   UNL     1       6.817   4.387  16.433  0.00  0.00    +0.000 A 
ATOM     27  C   UNL     1       5.999   5.052  15.517  0.00  0.00    +0.000 A 
ATOM     28  C   UNL     1       5.034   5.971  15.954  0.00  0.00    +0.000 A 
ENDBRANCH   5  23
TORSDOF 3
ENDMDL
MODEL 8
REMARK VINA RESULT:      -8.9      2.851      7.629
REMARK  Name = 
REMARK  3 active torsions:
REMARK  status: ('A' for Active; 'I' for Inactive)
REMARK    1  A    between atoms: C_4  and  C_5
REMARK    2  A    between atoms: C_7  and  C_8
REMARK    3  A    between atoms: C_18  and  C_19
REMARK                            x       y       z     vdW  Elec       q    Type
REMARK                         _______ _______ _______ _____ _____    ______ ____
ROOT
ATOM      1  C   UNL     1       2.315   6.476  19.034  0.00  0.00    +0.000 A 
ATOM      2  N   UNL     1       1.606   7.590  19.426  0.00  0.00    +0.000 NA
ATOM      3  C   UNL     1       1.888   8.560  18.579  0.00  0.00    +0.000 A 
ATOM      4  N   UNL     1       2.889   8.147  17.723  0.00  0.00    +0.000 N 
ATOM      5  C   UNL     1       3.205   6.808  18.025  0.00  0.00    +0.000 A 
ATOM      6  H   UNL     1       3.292   8.683  16.970  0.00  0.00    +0.000 HD
ENDROOT
BRANCH   3   7
ATOM      7  C   UNL     1       1.021   9.797  18.574  0.00  0.00    +0.000 A 
ATOM      8  C   UNL     1       1.613  10.928  19.108  0.00  0.00    +0.000 A 
ATOM      9  N   UNL     1       0.611  11.740  19.532  0.00  0.00    +0.000 N 
ATOM     10  C   UNL     1      -0.518  11.459  18.809  0.00  0.00    +0.000 A 
ATOM     11  C   UNL     1      -1.683  12.230  18.693  0.00  0.00    +0.000 A 
ATOM     12  C   UNL     1      -2.688  11.751  17.870  0.00  0.00    +0.000 A 
ATOM     13  C   UNL     1      -2.556  10.498  17.262  0.00  0.00    +0.000 A 
ATOM     14  C   UNL     1      -1.403   9.703  17.443  0.00  0.00    +0.000 A 
ATOM     15  C   UNL     1      -0.311  10.200  18.198  0.00  0.00    +0.000 A 
ATOM     16  H   UNL     1       0.711  12.491  20.198  0.00  0.00    +0.000 HD
ENDBRANCH   3   7
BRANCH   1  20
ATOM     17  C   UNL     1       1.461   2.712  20.904  0.00  0.00    +0.000 A 
ATOM     18  C   UNL     1       2.237   3.659  21.566  0.00  0.00    +0.000 A 
ATOM     19  C   UNL     1       2.581   4.847  20.920  0.00  0.00    +0.000 A 
ATOM     20  C   UNL     1       2.079   5.163  19.646  0.00  0.00    +0.000 A 
ATOM     21  C   UNL     1       1.342   4.178  18.979  0.00  0.00    +0.000 A 
ATOM     22  C   UNL     1       1.044   2.959  19.600  0.00  0.00    +0.000 A 
ENDBRANCH   1  20
BRANCH   5  23
ATOM     23  C   UNL     1       4.197   5.970  17.324  0.00  0.00    +0.000 A 
ATOM     24  C   UNL     1       4.226   4.577  17.529  0.00  0.00    +0.000 A 
ATOM     25  C   UNL     1       4.920   3.723  16.660  0.00  0.00    +0.000 A 
ATOM     26  C   UNL     1       5.654   4.259  15.610  0.00  0.00    +0.000 A 
ATOM     27  C   UNL     1       5.713   5.645  15.448  0.00  0.00    +0.000 A 
ATOM     28  C   UNL     1       4.988   6.496  16.295  0.00  0.00    +0.000 A 
ENDBRANCH   5  23
TORSDOF 3
ENDMDL
MODEL 9
REMARK VINA RESULT:      -8.9      2.935      8.448
REMARK  Name = 
REMARK  3 active torsions:
REMARK  status: ('A' for Active; 'I' for Inactive)
REMARK    1  A    between atoms: C_4  and  C_5
REMARK    2  A    between atoms: C_7  and  C_8
REMARK    3  A    between atoms: C_18  and  C_19
REMARK                            x       y       z     vdW  Elec       q    Type
REMARK                         _______ _______ _______ _____ _____    ______ ____
ROOT
ATOM      1  C   UNL     1       2.074   6.313  19.755  0.00  0.00    +0.000 A 
ATOM      2  N   UNL     1       1.541   7.371  20.458  0.00  0.00    +0.000 NA
ATOM      3  C   UNL     1       1.717   8.459  19.734  0.00  0.00    +0.000 A 
ATOM      4  N   UNL     1       2.494   8.160  18.633  0.00  0.00    +0.000 N 
ATOM      5  C   UNL     1       2.766   6.777  18.647  0.00  0.00    +0.000 A 
ATOM      6  H   UNL     1       2.775   8.800  17.906  0.00  0.00    +0.000 HD
ENDROOT
BRANCH   3   7
ATOM      7  C   UNL     1       0.960   9.711  20.107  0.00  0.00    +0.000 A 
ATOM      8  C   UNL     1       0.973  10.711  19.150  0.00  0.00    +0.000 A 
ATOM      9  N   UNL     1       0.764  11.886  19.797  0.00  0.00    +0.000 N 
ATOM     10  C   UNL     1       0.081  11.633  20.957  0.00  0.00    +0.000 A 
ATOM     11  C   UNL     1      -0.600  12.545  21.775  0.00  0.00    +0.000 A 
ATOM     12  C   UNL     1      -1.251  12.045  22.890  0.00  0.00    +0.000 A 
ATOM     13  C   UNL     1      -1.140  10.688  23.213  0.00  0.00    +0.000 A 
ATOM     14  C   UNL     1      -0.395   9.793  22.414  0.00  0.00    +0.000 A 
ATOM     15  C   UNL     1       0.205  10.246  21.213  0.00  0.00    +0.000 A 
ATOM     16  H   UNL     1       0.988  12.800  19.435  0.00  0.00    +0.000 HD
ENDBRANCH   3   7
BRANCH   1  20
ATOM     17  C   UNL     1       1.631   2.205  20.902  0.00  0.00    +0.000 A 
ATOM     18  C   UNL     1       0.923   2.705  19.814  0.00  0.00    +0.000 A 
ATOM     19  C   UNL     1       1.007   4.061  19.496  0.00  0.00    +0.000 A 
ATOM     20  C   UNL     1       1.871   4.926  20.187  0.00  0.00    +0.000 A 
ATOM     21  C   UNL     1       2.536   4.416  21.307  0.00  0.00    +0.000 A 
ATOM     22  C   UNL     1       2.410   3.068  21.667  0.00  0.00    +0.000 A 
ENDBRANCH   1  20
BRANCH   5  23
ATOM     23  C   UNL     1       3.534   6.033  17.630  0.00  0.00    +0.000 A 
ATOM     24  C   UNL     1       4.502   6.691  16.845  0.00  0.00    +0.000 A 
ATOM     25  C   UNL     1       5.460   5.976  16.113  0.00  0.00    +0.000 A 
ATOM     26  C   UNL     1       5.421   4.588  16.100  0.00  0.00    +0.000 A 
ATOM     27  C   UNL     1       4.410   3.922  16.797  0.00  0.00    +0.000 A 
ATOM     28  C   UNL     1       3.476   4.636  17.560  0.00  0.00    +0.000 A 
ENDBRANCH   5  23
TORSDOF 3
ENDMDL
