MODEL 1
REMARK VINA RESULT:      -6.8      0.000      0.000
REMARK  Name = 
REMARK  4 active torsions:
REMARK  status: ('A' for Active; 'I' for Inactive)
REMARK    1  A    between atoms: C_1  and  C_2
REMARK    2  A    between atoms: C_2  and  O_3
REMARK    3  A    between atoms: C_2  and  C_11
REMARK    4  A    between atoms: O_3  and  C_4
REMARK                            x       y       z     vdW  Elec       q    Type
REMARK                         _______ _______ _______ _____ _____    ______ ____
ROOT
ATOM      1  C   UNL     1       2.484   8.247  17.695  0.00  0.00    +0.000 C 
ATOM      2  C   UNL     1       3.156   6.888  17.940  0.00  0.00    +0.000 C 
ENDROOT
BRANCH   2   3
ATOM      3  C   UNL     1       2.618   6.338  19.295  0.00  0.00    +0.000 C 
ATOM      4  O   UNL     1       2.212   7.111  20.172  0.00  0.00    +0.000 OA
ATOM      5  N   UNL     1       2.497   4.968  19.468  0.00  0.00    +0.000 N 
ATOM      6  C   UNL     1       3.097   3.929  18.631  0.00  0.00    +0.000 C 
ATOM      7  C   UNL     1       2.103   2.787  18.389  0.00  0.00    +0.000 C 
ATOM      8  O   UNL     1       1.566   2.279  19.618  0.00  0.00    +0.000 OA
ATOM      9  C   UNL     1       0.907   3.321  20.355  0.00  0.00    +0.000 C 
ATOM     10  C   UNL     1       1.883   4.451  20.694  0.00  0.00    +0.000 C 
ENDBRANCH   2   3
BRANCH   2  11
ATOM     11  O   UNL     1       4.578   7.034  17.950  0.00  0.00    +0.000 OA
BRANCH  11  12
ATOM     12  C   UNL     1       5.317   6.220  17.127  0.00  0.00    +0.000 A 
ATOM     13  C   UNL     1       5.123   6.127  15.744  0.00  0.00    +0.000 A 
ATOM     14  C   UNL     1       5.936   5.308  14.955  0.00  0.00    +0.000 A 
ATOM     15  C   UNL     1       6.949   4.558  15.540  0.00  0.00    +0.000 A 
ATOM     16  C   UNL     1       7.157   4.632  16.916  0.00  0.00    +0.000 A 
ATOM     17  C   UNL     1       6.353   5.466  17.701  0.00  0.00    +0.000 A 
ATOM     18 CL   UNL     1       6.655   5.493  19.407  0.00  0.00    +0.000 Cl
ENDBRANCH  11  12
ENDBRANCH   2  11
TORSDOF 3
ENDMDL
MODEL 2
REMARK VINA RESULT:      -6.4      2.346      5.384
REMARK  Name = 
REMARK  4 active torsions:
REMARK  status: ('A' for Active; 'I' for Inactive)
REMARK    1  A    between atoms: C_1  and  C_2
REMARK    2  A    between atoms: C_2  and  O_3
REMARK    3  A    between atoms: C_2  and  C_11
REMARK    4  A    between atoms: O_3  and  C_4
REMARK                            x       y       z     vdW  Elec       q    Type
REMARK                         _______ _______ _______ _____ _____    ______ ____
ROOT
ATOM      1  C   UNL     1       3.419   1.354  18.361  0.00  0.00    +0.000 C 
ATOM      2  C   UNL     1       3.322   2.840  17.985  0.00  0.00    +0.000 C 
ENDROOT
BRANCH   2   3
ATOM      3  C   UNL     1       4.601   3.545  18.531  0.00  0.00    +0.000 C 
ATOM      4  O   UNL     1       4.937   3.410  19.714  0.00  0.00    +0.000 OA
ATOM      5  N   UNL     1       5.418   4.236  17.651  0.00  0.00    +0.000 N 
ATOM      6  C   UNL     1       5.079   4.650  16.289  0.00  0.00    +0.000 C 
ATOM      7  C   UNL     1       6.263   4.421  15.343  0.00  0.00    +0.000 C 
ATOM      8  O   UNL     1       7.464   5.032  15.833  0.00  0.00    +0.000 OA
ATOM      9  C   UNL     1       7.802   4.520  17.133  0.00  0.00    +0.000 C 
ATOM     10  C   UNL     1       6.681   4.799  18.138  0.00  0.00    +0.000 C 
ENDBRANCH   2   3
BRANCH   2  11
ATOM     11  O   UNL     1       2.127   3.410  18.525  0.00  0.00    +0.000 OA
BRANCH  11  12
ATOM     12  C   UNL     1       2.147   4.737  18.878  0.00  0.00    +0.000 A 
ATOM     13  C   UNL     1       2.281   5.786  17.961  0.00  0.00    +0.000 A 
ATOM     14  C   UNL     1       2.254   7.119  18.381  0.00  0.00    +0.000 A 
ATOM     15  C   UNL     1       2.103   7.424  19.727  0.00  0.00    +0.000 A 
ATOM     16  C   UNL     1       1.971   6.395  20.659  0.00  0.00    +0.000 A 
ATOM     17  C   UNL     1       1.983   5.062  20.234  0.00  0.00    +0.000 A 
ATOM     18 CL   UNL     1       1.834   3.834  21.448  0.00  0.00    +0.000 Cl
ENDBRANCH  11  12
ENDBRANCH   2  11
TORSDOF 3
ENDMDL
MODEL 3
REMARK VINA RESULT:      -6.4      1.155      1.213
REMARK  Name = 
REMARK  4 active torsions:
REMARK  status: ('A' for Active; 'I' for Inactive)
REMARK    1  A    between atoms: C_1  and  C_2
REMARK    2  A    between atoms: C_2  and  O_3
REMARK    3  A    between atoms: C_2  and  C_11
REMARK    4  A    between atoms: O_3  and  C_4
REMARK                            x       y       z     vdW  Elec       q    Type
REMARK                         _______ _______ _______ _____ _____    ______ ____
ROOT
ATOM      1  C   UNL     1       3.305   7.666  17.652  0.00  0.00    +0.000 C 
ATOM      2  C   UNL     1       3.553   6.195  18.018  0.00  0.00    +0.000 C 
ENDROOT
BRANCH   2   3
ATOM      3  C   UNL     1       2.892   5.941  19.406  0.00  0.00    +0.000 C 
ATOM      4  O   UNL     1       2.405   6.877  20.053  0.00  0.00    +0.000 OA
ATOM      5  N   UNL     1       2.757   4.640  19.862  0.00  0.00    +0.000 N 
ATOM      6  C   UNL     1       3.433   3.456  19.329  0.00  0.00    +0.000 C 
ATOM      7  C   UNL     1       2.466   2.269  19.254  0.00  0.00    +0.000 C 
ATOM      8  O   UNL     1       1.818   2.028  20.510  0.00  0.00    +0.000 OA
ATOM      9  C   UNL     1       1.092   3.191  20.940  0.00  0.00    +0.000 C 
ATOM     10  C   UNL     1       2.031   4.388  21.111  0.00  0.00    +0.000 C 
ENDBRANCH   2   3
BRANCH   2  11
ATOM     11  O   UNL     1       4.956   5.920  18.037  0.00  0.00    +0.000 OA
BRANCH  11  12
ATOM     12  C   UNL     1       5.524   5.387  16.906  0.00  0.00    +0.000 A 
ATOM     13  C   UNL     1       4.913   4.408  16.114  0.00  0.00    +0.000 A 
ATOM     14  C   UNL     1       5.528   3.935  14.951  0.00  0.00    +0.000 A 
ATOM     15  C   UNL     1       6.769   4.426  14.567  0.00  0.00    +0.000 A 
ATOM     16  C   UNL     1       7.397   5.400  15.343  0.00  0.00    +0.000 A 
ATOM     17  C   UNL     1       6.773   5.883  16.498  0.00  0.00    +0.000 A 
ATOM     18 CL   UNL     1       7.620   7.078  17.424  0.00  0.00    +0.000 Cl
ENDBRANCH  11  12
ENDBRANCH   2  11
TORSDOF 3
ENDMDL
MODEL 4
REMARK VINA RESULT:      -6.3      1.365      1.427
REMARK  Name = 
REMARK  4 active torsions:
REMARK  status: ('A' for Active; 'I' for Inactive)
REMARK    1  A    between atoms: C_1  and  C_2
REMARK    2  A    between atoms: C_2  and  O_3
REMARK    3  A    between atoms: C_2  and  C_11
REMARK    4  A    between atoms: O_3  and  C_4
REMARK                            x       y       z     vdW  Elec       q    Type
REMARK                         _______ _______ _______ _____ _____    ______ ____
ROOT
ATOM      1  C   UNL     1       2.722   7.413  18.639  0.00  0.00    +0.000 C 
ATOM      2  C   UNL     1       3.481   6.301  17.900  0.00  0.00    +0.000 C 
ENDROOT
BRANCH   2   3
ATOM      3  C   UNL     1       3.864   5.218  18.954  0.00  0.00    +0.000 C 
ATOM      4  O   UNL     1       4.719   5.453  19.816  0.00  0.00    +0.000 OA
ATOM      5  N   UNL     1       3.159   4.026  18.983  0.00  0.00    +0.000 N 
ATOM      6  C   UNL     1       2.269   3.514  17.940  0.00  0.00    +0.000 C 
ATOM      7  C   UNL     1       1.009   2.897  18.558  0.00  0.00    +0.000 C 
ATOM      8  O   UNL     1       1.329   1.916  19.555  0.00  0.00    +0.000 OA
ATOM      9  C   UNL     1       2.124   2.496  20.602  0.00  0.00    +0.000 C 
ATOM     10  C   UNL     1       3.436   3.054  20.046  0.00  0.00    +0.000 C 
ENDBRANCH   2   3
BRANCH   2  11
ATOM     11  O   UNL     1       4.631   6.838  17.244  0.00  0.00    +0.000 OA
BRANCH  11  12
ATOM     12  C   UNL     1       5.354   6.006  16.424  0.00  0.00    +0.000 A 
ATOM     13  C   UNL     1       4.797   5.279  15.365  0.00  0.00    +0.000 A 
ATOM     14  C   UNL     1       5.596   4.480  14.542  0.00  0.00    +0.000 A 
ATOM     15  C   UNL     1       6.962   4.385  14.772  0.00  0.00    +0.000 A 
ATOM     16  C   UNL     1       7.537   5.098  15.824  0.00  0.00    +0.000 A 
ATOM     17  C   UNL     1       6.738   5.910  16.637  0.00  0.00    +0.000 A 
ATOM     18 CL   UNL     1       7.516   6.751  17.937  0.00  0.00    +0.000 Cl
ENDBRANCH  11  12
ENDBRANCH   2  11
TORSDOF 3
ENDMDL
MODEL 5
REMARK VINA RESULT:      -6.2      2.394      5.420
REMARK  Name = 
REMARK  4 active torsions:
REMARK  status: ('A' for Active; 'I' for Inactive)
REMARK    1  A    between atoms: C_1  and  C_2
REMARK    2  A    between atoms: C_2  and  O_3
REMARK    3  A    between atoms: C_2  and  C_11
REMARK    4  A    between atoms: O_3  and  C_4
REMARK                            x       y       z     vdW  Elec       q    Type
REMARK                         _______ _______ _______ _____ _____    ______ ____
ROOT
ATOM      1  C   UNL     1       3.263   7.828  17.760  0.00  0.00    +0.000 C 
ATOM      2  C   UNL     1       3.361   6.544  18.596  0.00  0.00    +0.000 C 
ENDROOT
BRANCH   2   3
ATOM      3  C   UNL     1       4.134   5.490  17.745  0.00  0.00    +0.000 C 
ATOM      4  O   UNL     1       3.684   5.106  16.659  0.00  0.00    +0.000 OA
ATOM      5  N   UNL     1       5.384   5.069  18.167  0.00  0.00    +0.000 N 
ATOM      6  C   UNL     1       5.969   5.267  19.494  0.00  0.00    +0.000 C 
ATOM      7  C   UNL     1       7.449   5.650  19.381  0.00  0.00    +0.000 C 
ATOM      8  O   UNL     1       8.183   4.715  18.578  0.00  0.00    +0.000 OA
ATOM      9  C   UNL     1       7.623   4.630  17.258  0.00  0.00    +0.000 C 
ATOM     10  C   UNL     1       6.164   4.169  17.312  0.00  0.00    +0.000 C 
ENDBRANCH   2   3
BRANCH   2  11
ATOM     11  O   UNL     1       2.055   6.086  18.954  0.00  0.00    +0.000 OA
BRANCH  11  12
ATOM     12  C   UNL     1       1.955   4.929  19.686  0.00  0.00    +0.000 A 
ATOM     13  C   UNL     1       2.349   4.816  21.025  0.00  0.00    +0.000 A 
ATOM     14  C   UNL     1       2.184   3.618  21.726  0.00  0.00    +0.000 A 
ATOM     15  C   UNL     1       1.633   2.510  21.096  0.00  0.00    +0.000 A 
ATOM     16  C   UNL     1       1.236   2.599  19.762  0.00  0.00    +0.000 A 
ATOM     17  C   UNL     1       1.388   3.803  19.067  0.00  0.00    +0.000 A 
ATOM     18 CL   UNL     1       0.892   3.836  17.407  0.00  0.00    +0.000 Cl
ENDBRANCH  11  12
ENDBRANCH   2  11
TORSDOF 3
ENDMDL
MODEL 6
REMARK VINA RESULT:      -6.2      2.607      5.655
REMARK  Name = 
REMARK  4 active torsions:
REMARK  status: ('A' for Active; 'I' for Inactive)
REMARK    1  A    between atoms: C_1  and  C_2
REMARK    2  A    between atoms: C_2  and  O_3
REMARK    3  A    between atoms: C_2  and  C_11
REMARK    4  A    between atoms: O_3  and  C_4
REMARK                            x       y       z     vdW  Elec       q    Type
REMARK                         _______ _______ _______ _____ _____    ______ ____
ROOT
ATOM      1  C   UNL     1       2.095   4.742  17.980  0.00  0.00    +0.000 C 
ATOM      2  C   UNL     1       2.862   6.047  18.242  0.00  0.00    +0.000 C 
ENDROOT
BRANCH   2   3
ATOM      3  C   UNL     1       4.336   5.664  18.571  0.00  0.00    +0.000 C 
ATOM      4  O   UNL     1       4.627   5.161  19.663  0.00  0.00    +0.000 OA
ATOM      5  N   UNL     1       5.303   5.793  17.587  0.00  0.00    +0.000 N 
ATOM      6  C   UNL     1       5.175   6.535  16.332  0.00  0.00    +0.000 C 
ATOM      7  C   UNL     1       5.797   5.749  15.172  0.00  0.00    +0.000 C 
ATOM      8  O   UNL     1       7.147   5.356  15.458  0.00  0.00    +0.000 OA
ATOM      9  C   UNL     1       7.202   4.551  16.647  0.00  0.00    +0.000 C 
ATOM     10  C   UNL     1       6.666   5.324  17.855  0.00  0.00    +0.000 C 
ENDBRANCH   2   3
BRANCH   2  11
ATOM     11  O   UNL     1       2.248   6.776  19.308  0.00  0.00    +0.000 OA
BRANCH  11  12
ATOM     12  C   UNL     1       1.951   8.100  19.096  0.00  0.00    +0.000 A 
ATOM     13  C   UNL     1       2.291   8.800  17.933  0.00  0.00    +0.000 A 
ATOM     14  C   UNL     1       1.923  10.138  17.763  0.00  0.00    +0.000 A 
ATOM     15  C   UNL     1       1.220  10.801  18.760  0.00  0.00    +0.000 A 
ATOM     16  C   UNL     1       0.874  10.124  19.929  0.00  0.00    +0.000 A 
ATOM     17  C   UNL     1       1.229   8.781  20.090  0.00  0.00    +0.000 A 
ATOM     18 CL   UNL     1       0.784   8.009  21.576  0.00  0.00    +0.000 Cl
ENDBRANCH  11  12
ENDBRANCH   2  11
TORSDOF 3
ENDMDL
MODEL 7
REMARK VINA RESULT:      -6.0      2.226      4.733
REMARK  Name = 
REMARK  4 active torsions:
REMARK  status: ('A' for Active; 'I' for Inactive)
REMARK    1  A    between atoms: C_1  and  C_2
REMARK    2  A    between atoms: C_2  and  O_3
REMARK    3  A    between atoms: C_2  and  C_11
REMARK    4  A    between atoms: O_3  and  C_4
REMARK                            x       y       z     vdW  Elec       q    Type
REMARK                         _______ _______ _______ _____ _____    ______ ____
ROOT
ATOM      1  C   UNL     1       2.069   7.797  19.665  0.00  0.00    +0.000 C 
ATOM      2  C   UNL     1       2.748   6.487  19.239  0.00  0.00    +0.000 C 
ENDROOT
BRANCH   2   3
ATOM      3  C   UNL     1       3.667   6.811  18.023  0.00  0.00    +0.000 C 
ATOM      4  O   UNL     1       3.290   7.590  17.139  0.00  0.00    +0.000 OA
ATOM      5  N   UNL     1       4.955   6.302  17.996  0.00  0.00    +0.000 N 
ATOM      6  C   UNL     1       5.487   5.231  18.840  0.00  0.00    +0.000 C 
ATOM      7  C   UNL     1       6.905   5.569  19.315  0.00  0.00    +0.000 C 
ATOM      8  O   UNL     1       7.768   5.901  18.219  0.00  0.00    +0.000 OA
ATOM      9  C   UNL     1       7.247   7.018  17.480  0.00  0.00    +0.000 C 
ATOM     10  C   UNL     1       5.861   6.699  16.914  0.00  0.00    +0.000 C 
ENDBRANCH   2   3
BRANCH   2  11
ATOM     11  O   UNL     1       1.764   5.501  18.917  0.00  0.00    +0.000 OA
BRANCH  11  12
ATOM     12  C   UNL     1       2.183   4.206  18.734  0.00  0.00    +0.000 A 
ATOM     13  C   UNL     1       2.383   3.622  17.478  0.00  0.00    +0.000 A 
ATOM     14  C   UNL     1       2.850   2.309  17.360  0.00  0.00    +0.000 A 
ATOM     15  C   UNL     1       3.113   1.557  18.497  0.00  0.00    +0.000 A 
ATOM     16  C   UNL     1       2.918   2.118  19.759  0.00  0.00    +0.000 A 
ATOM     17  C   UNL     1       2.466   3.437  19.874  0.00  0.00    +0.000 A 
ATOM     18 CL   UNL     1       2.227   4.063  21.472  0.00  0.00    +0.000 Cl
ENDBRANCH  11  12
ENDBRANCH   2  11
TORSDOF 3
ENDMDL
MODEL 8
REMARK VINA RESULT:      -5.9      2.237      5.312
REMARK  Name = 
REMARK  4 active torsions:
REMARK  status: ('A' for Active; 'I' for Inactive)
REMARK    1  A    between atoms: C_1  and  C_2
REMARK    2  A    between atoms: C_2  and  O_3
REMARK    3  A    between atoms: C_2  and  C_11
REMARK    4  A    between atoms: O_3  and  C_4
REMARK                            x       y       z     vdW  Elec       q    Type
REMARK                         _______ _______ _______ _____ _____    ______ ____
ROOT
ATOM      1  C   UNL     1       1.970   3.992  20.956  0.00  0.00    +0.000 C 
ATOM      2  C   UNL     1       1.844   4.978  19.785  0.00  0.00    +0.000 C 
ENDROOT
BRANCH   2   3
ATOM      3  C   UNL     1       2.315   4.237  18.497  0.00  0.00    +0.000 C 
ATOM      4  O   UNL     1       1.493   3.854  17.655  0.00  0.00    +0.000 OA
ATOM      5  N   UNL     1       3.672   4.106  18.252  0.00  0.00    +0.000 N 
ATOM      6  C   UNL     1       4.756   4.322  19.211  0.00  0.00    +0.000 C 
ATOM      7  C   UNL     1       5.919   5.074  18.554  0.00  0.00    +0.000 C 
ATOM      8  O   UNL     1       6.356   4.432  17.348  0.00  0.00    +0.000 OA
ATOM      9  C   UNL     1       5.276   4.331  16.406  0.00  0.00    +0.000 C 
ATOM     10  C   UNL     1       4.118   3.515  16.987  0.00  0.00    +0.000 C 
ENDBRANCH   2   3
BRANCH   2  11
ATOM     11  O   UNL     1       2.620   6.151  20.040  0.00  0.00    +0.000 OA
BRANCH  11  12
ATOM     12  C   UNL     1       2.006   7.372  19.912  0.00  0.00    +0.000 A 
ATOM     13  C   UNL     1       1.192   7.943  20.897  0.00  0.00    +0.000 A 
ATOM     14  C   UNL     1       0.627   9.209  20.721  0.00  0.00    +0.000 A 
ATOM     15  C   UNL     1       0.858   9.921  19.551  0.00  0.00    +0.000 A 
ATOM     16  C   UNL     1       1.663   9.370  18.554  0.00  0.00    +0.000 A 
ATOM     17  C   UNL     1       2.240   8.109  18.740  0.00  0.00    +0.000 A 
ATOM     18 CL   UNL     1       3.213   7.478  17.452  0.00  0.00    +0.000 Cl
ENDBRANCH  11  12
ENDBRANCH   2  11
TORSDOF 3
ENDMDL
MODEL 9
REMARK VINA RESULT:      -5.9      2.362      5.063
REMARK  Name = 
REMARK  4 active torsions:
REMARK  status: ('A' for Active; 'I' for Inactive)
REMARK    1  A    between atoms: C_1  and  C_2
REMARK    2  A    between atoms: C_2  and  O_3
REMARK    3  A    between atoms: C_2  and  C_11
REMARK    4  A    between atoms: O_3  and  C_4
REMARK                            x       y       z     vdW  Elec       q    Type
REMARK                         _______ _______ _______ _____ _____    ______ ____
ROOT
ATOM      1  C   UNL     1       1.618   4.079  20.878  0.00  0.00    +0.000 C 
ATOM      2  C   UNL     1       1.648   5.080  19.714  0.00  0.00    +0.000 C 
ENDROOT
BRANCH   2   3
ATOM      3  C   UNL     1       2.190   4.326  18.463  0.00  0.00    +0.000 C 
ATOM      4  O   UNL     1       1.420   3.958  17.567  0.00  0.00    +0.000 OA
ATOM      5  N   UNL     1       3.558   4.167  18.310  0.00  0.00    +0.000 N 
ATOM      6  C   UNL     1       4.578   4.363  19.341  0.00  0.00    +0.000 C 
ATOM      7  C   UNL     1       5.798   5.090  18.764  0.00  0.00    +0.000 C 
ATOM      8  O   UNL     1       6.303   4.436  17.592  0.00  0.00    +0.000 OA
ATOM      9  C   UNL     1       5.288   4.354  16.578  0.00  0.00    +0.000 C 
ATOM     10  C   UNL     1       4.077   3.563  17.079  0.00  0.00    +0.000 C 
ENDBRANCH   2   3
BRANCH   2  11
ATOM     11  O   UNL     1       2.460   6.207  20.052  0.00  0.00    +0.000 OA
BRANCH  11  12
ATOM     12  C   UNL     1       2.184   7.407  19.442  0.00  0.00    +0.000 A 
ATOM     13  C   UNL     1       2.590   7.732  18.143  0.00  0.00    +0.000 A 
ATOM     14  C   UNL     1       2.242   8.957  17.565  0.00  0.00    +0.000 A 
ATOM     15  C   UNL     1       1.493   9.880  18.283  0.00  0.00    +0.000 A 
ATOM     16  C   UNL     1       1.082   9.578  19.580  0.00  0.00    +0.000 A 
ATOM     17  C   UNL     1       1.417   8.345  20.150  0.00  0.00    +0.000 A 
ATOM     18 CL   UNL     1       0.889   8.045  21.773  0.00  0.00    +0.000 Cl
ENDBRANCH  11  12
ENDBRANCH   2  11
TORSDOF 3
ENDMDL
