MODEL 1
REMARK VINA RESULT:      -7.5      0.000      0.000
REMARK  Name = 
REMARK  5 active torsions:
REMARK  status: ('A' for Active; 'I' for Inactive)
REMARK    1  A    between atoms: C_1  and  O_2
REMARK    2  A    between atoms: O_2  and  C_3
REMARK    3  A    between atoms: C_6  and  N_7
REMARK    4  A    between atoms: N_7  and  C_8
REMARK    5  A    between atoms: N_7  and  C_9
REMARK                            x       y       z     vdW  Elec       q    Type
REMARK                         _______ _______ _______ _____ _____    ______ ____
ROOT
ATOM      1  C   UNL     1       4.878   4.339  17.530  0.00  0.00    +0.000 A 
ATOM      2  N   UNL     1       5.104   4.002  16.214  0.00  0.00    +0.000 NA
ATOM      3  C   UNL     1       6.342   4.029  15.703  0.00  0.00    +0.000 A 
ATOM      4  N   UNL     1       6.450   3.733  14.355  0.00  0.00    +0.000 N 
ATOM      5  N   UNL     1       7.469   4.335  16.353  0.00  0.00    +0.000 NA
ATOM      6  C   UNL     1       7.226   4.674  17.625  0.00  0.00    +0.000 A 
ATOM      7  N   UNL     1       8.146   5.122  18.532  0.00  0.00    +0.000 N 
ATOM      8  C   UNL     1       7.479   5.408  19.688  0.00  0.00    +0.000 A 
ATOM      9  N   UNL     1       6.192   5.160  19.579  0.00  0.00    +0.000 NA
ATOM     10  C   UNL     1       6.013   4.704  18.287  0.00  0.00    +0.000 A 
ATOM     11  H   UNL     1       5.679   3.144  14.066  0.00  0.00    +0.000 HD
ATOM     12  H   UNL     1       7.388   3.424  14.131  0.00  0.00    +0.000 HD
ATOM     13  H   UNL     1       9.128   5.257  18.345  0.00  0.00    +0.000 HD
ENDROOT
BRANCH   1  14
ATOM     14  N   UNL     1       3.545   4.402  18.006  0.00  0.00    +0.000 N 
ATOM     15  C   UNL     1       2.737   3.322  17.438  0.00  0.00    +0.000 C 
BRANCH  14  19
ATOM     16  C   UNL     1       1.771   7.694  20.031  0.00  0.00    +0.000 A 
ATOM     17  C   UNL     1       2.343   7.854  18.772  0.00  0.00    +0.000 A 
ATOM     18  C   UNL     1       2.903   6.755  18.107  0.00  0.00    +0.000 A 
ATOM     19  C   UNL     1       2.932   5.471  18.683  0.00  0.00    +0.000 A 
ATOM     20  C   UNL     1       2.353   5.340  19.950  0.00  0.00    +0.000 A 
ATOM     21  C   UNL     1       1.780   6.433  20.620  0.00  0.00    +0.000 A 
BRANCH  16  23
ATOM     22  C   UNL     1       0.717   9.779  19.703  0.00  0.00    +0.000 C 
ATOM     23  O   UNL     1       1.271   8.828  20.607  0.00  0.00    +0.000 OA
ENDBRANCH  16  23
ENDBRANCH  14  19
ENDBRANCH   1  14
TORSDOF 3
ENDMDL
MODEL 2
REMARK VINA RESULT:      -7.5      0.147      1.080
REMARK  Name = 
REMARK  5 active torsions:
REMARK  status: ('A' for Active; 'I' for Inactive)
REMARK    1  A    between atoms: C_1  and  O_2
REMARK    2  A    between atoms: O_2  and  C_3
REMARK    3  A    between atoms: C_6  and  N_7
REMARK    4  A    between atoms: N_7  and  C_8
REMARK    5  A    between atoms: N_7  and  C_9
REMARK                            x       y       z     vdW  Elec       q    Type
REMARK                         _______ _______ _______ _____ _____    ______ ____
ROOT
ATOM      1  C   UNL     1       4.902   4.366  17.483  0.00  0.00    +0.000 A 
ATOM      2  N   UNL     1       5.102   4.014  16.167  0.00  0.00    +0.000 NA
ATOM      3  C   UNL     1       6.332   4.017  15.636  0.00  0.00    +0.000 A 
ATOM      4  N   UNL     1       6.414   3.708  14.290  0.00  0.00    +0.000 N 
ATOM      5  N   UNL     1       7.474   4.312  16.265  0.00  0.00    +0.000 NA
ATOM      6  C   UNL     1       7.257   4.666  17.539  0.00  0.00    +0.000 A 
ATOM      7  N   UNL     1       8.197   5.108  18.426  0.00  0.00    +0.000 N 
ATOM      8  C   UNL     1       7.553   5.414  19.590  0.00  0.00    +0.000 A 
ATOM      9  N   UNL     1       6.261   5.184  19.504  0.00  0.00    +0.000 NA
ATOM     10  C   UNL     1       6.055   4.720  18.219  0.00  0.00    +0.000 A 
ATOM     11  H   UNL     1       5.630   3.129  14.018  0.00  0.00    +0.000 HD
ATOM     12  H   UNL     1       7.343   3.383  14.053  0.00  0.00    +0.000 HD
ATOM     13  H   UNL     1       9.178   5.227  18.222  0.00  0.00    +0.000 HD
ENDROOT
BRANCH   1  14
ATOM     14  N   UNL     1       3.578   4.453  17.980  0.00  0.00    +0.000 N 
ATOM     15  C   UNL     1       2.741   3.389  17.423  0.00  0.00    +0.000 C 
BRANCH  14  19
ATOM     16  C   UNL     1       1.738   7.659  20.083  0.00  0.00    +0.000 A 
ATOM     17  C   UNL     1       1.800   6.383  20.637  0.00  0.00    +0.000 A 
ATOM     18  C   UNL     1       2.430   5.342  19.942  0.00  0.00    +0.000 A 
ATOM     19  C   UNL     1       2.996   5.532  18.668  0.00  0.00    +0.000 A 
ATOM     20  C   UNL     1       2.918   6.824  18.134  0.00  0.00    +0.000 A 
ATOM     21  C   UNL     1       2.298   7.875  18.827  0.00  0.00    +0.000 A 
BRANCH  16  23
ATOM     22  C   UNL     1       0.701   9.777  20.123  0.00  0.00    +0.000 C 
ATOM     23  O   UNL     1       1.085   8.601  20.827  0.00  0.00    +0.000 OA
ENDBRANCH  16  23
ENDBRANCH  14  19
ENDBRANCH   1  14
TORSDOF 3
ENDMDL
MODEL 3
REMARK VINA RESULT:      -7.4      1.187      2.949
REMARK  Name = 
REMARK  5 active torsions:
REMARK  status: ('A' for Active; 'I' for Inactive)
REMARK    1  A    between atoms: C_1  and  O_2
REMARK    2  A    between atoms: O_2  and  C_3
REMARK    3  A    between atoms: C_6  and  N_7
REMARK    4  A    between atoms: N_7  and  C_8
REMARK    5  A    between atoms: N_7  and  C_9
REMARK                            x       y       z     vdW  Elec       q    Type
REMARK                         _______ _______ _______ _____ _____    ______ ____
ROOT
ATOM      1  C   UNL     1       5.037   5.315  18.700  0.00  0.00    +0.000 A 
ATOM      2  N   UNL     1       6.050   5.530  19.608  0.00  0.00    +0.000 NA
ATOM      3  C   UNL     1       7.320   5.237  19.300  0.00  0.00    +0.000 A 
ATOM      4  N   UNL     1       8.251   5.433  20.306  0.00  0.00    +0.000 N 
ATOM      5  N   UNL     1       7.771   4.753  18.138  0.00  0.00    +0.000 NA
ATOM      6  C   UNL     1       6.770   4.536  17.276  0.00  0.00    +0.000 A 
ATOM      7  N   UNL     1       6.879   3.967  16.037  0.00  0.00    +0.000 N 
ATOM      8  C   UNL     1       5.622   3.878  15.513  0.00  0.00    +0.000 A 
ATOM      9  N   UNL     1       4.718   4.365  16.335  0.00  0.00    +0.000 NA
ATOM     10  C   UNL     1       5.420   4.778  17.451  0.00  0.00    +0.000 A 
ATOM     11  H   UNL     1       7.923   6.144  20.947  0.00  0.00    +0.000 HD
ATOM     12  H   UNL     1       9.179   5.542  19.918  0.00  0.00    +0.000 HD
ATOM     13  H   UNL     1       7.737   3.634  15.625  0.00  0.00    +0.000 HD
ENDROOT
BRANCH   1  14
ATOM     14  N   UNL     1       3.696   5.537  19.098  0.00  0.00    +0.000 N 
ATOM     15  C   UNL     1       3.005   4.269  19.334  0.00  0.00    +0.000 C 
BRANCH  14  19
ATOM     16  C   UNL     1       1.425   9.127  18.888  0.00  0.00    +0.000 A 
ATOM     17  C   UNL     1       1.418   8.343  20.038  0.00  0.00    +0.000 A 
ATOM     18  C   UNL     1       2.189   7.175  20.101  0.00  0.00    +0.000 A 
ATOM     19  C   UNL     1       2.972   6.739  19.015  0.00  0.00    +0.000 A 
ATOM     20  C   UNL     1       2.959   7.546  17.871  0.00  0.00    +0.000 A 
ATOM     21  C   UNL     1       2.198   8.723  17.803  0.00  0.00    +0.000 A 
BRANCH  16  23
ATOM     22  C   UNL     1      -0.473  10.172  19.821  0.00  0.00    +0.000 C 
ATOM     23  O   UNL     1       0.624  10.234  18.916  0.00  0.00    +0.000 OA
ENDBRANCH  16  23
ENDBRANCH  14  19
ENDBRANCH   1  14
TORSDOF 3
ENDMDL
MODEL 4
REMARK VINA RESULT:      -7.4      2.385      3.933
REMARK  Name = 
REMARK  5 active torsions:
REMARK  status: ('A' for Active; 'I' for Inactive)
REMARK    1  A    between atoms: C_1  and  O_2
REMARK    2  A    between atoms: O_2  and  C_3
REMARK    3  A    between atoms: C_6  and  N_7
REMARK    4  A    between atoms: N_7  and  C_8
REMARK    5  A    between atoms: N_7  and  C_9
REMARK                            x       y       z     vdW  Elec       q    Type
REMARK                         _______ _______ _______ _____ _____    ______ ____
ROOT
ATOM      1  C   UNL     1       4.963   6.595  17.208  0.00  0.00    +0.000 A 
ATOM      2  N   UNL     1       5.848   7.556  17.642  0.00  0.00    +0.000 NA
ATOM      3  C   UNL     1       7.150   7.477  17.337  0.00  0.00    +0.000 A 
ATOM      4  N   UNL     1       7.962   8.460  17.876  0.00  0.00    +0.000 N 
ATOM      5  N   UNL     1       7.741   6.536  16.594  0.00  0.00    +0.000 NA
ATOM      6  C   UNL     1       6.867   5.604  16.195  0.00  0.00    +0.000 A 
ATOM      7  N   UNL     1       7.162   4.466  15.497  0.00  0.00    +0.000 N 
ATOM      8  C   UNL     1       6.000   3.764  15.343  0.00  0.00    +0.000 A 
ATOM      9  N   UNL     1       4.981   4.391  15.889  0.00  0.00    +0.000 NA
ATOM     10  C   UNL     1       5.507   5.546  16.435  0.00  0.00    +0.000 A 
ATOM     11  H   UNL     1       7.422   9.298  18.050  0.00  0.00    +0.000 HD
ATOM     12  H   UNL     1       8.815   8.552  17.340  0.00  0.00    +0.000 HD
ATOM     13  H   UNL     1       8.085   4.188  15.203  0.00  0.00    +0.000 HD
ENDROOT
BRANCH   1  14
ATOM     14  N   UNL     1       3.614   6.656  17.637  0.00  0.00    +0.000 N 
ATOM     15  C   UNL     1       3.086   8.015  17.508  0.00  0.00    +0.000 C 
BRANCH  14  19
ATOM     16  C   UNL     1       1.564   3.688  19.891  0.00  0.00    +0.000 A 
ATOM     17  C   UNL     1       2.434   4.582  20.510  0.00  0.00    +0.000 A 
ATOM     18  C   UNL     1       3.084   5.569  19.757  0.00  0.00    +0.000 A 
ATOM     19  C   UNL     1       2.908   5.683  18.366  0.00  0.00    +0.000 A 
ATOM     20  C   UNL     1       2.030   4.771  17.770  0.00  0.00    +0.000 A 
ATOM     21  C   UNL     1       1.366   3.785  18.516  0.00  0.00    +0.000 A 
BRANCH  16  23
ATOM     22  C   UNL     1       1.683   2.502  21.926  0.00  0.00    +0.000 C 
ATOM     23  O   UNL     1       0.995   2.750  20.705  0.00  0.00    +0.000 OA
ENDBRANCH  16  23
ENDBRANCH  14  19
ENDBRANCH   1  14
TORSDOF 3
ENDMDL
MODEL 5
REMARK VINA RESULT:      -7.4      1.219      2.786
REMARK  Name = 
REMARK  5 active torsions:
REMARK  status: ('A' for Active; 'I' for Inactive)
REMARK    1  A    between atoms: C_1  and  O_2
REMARK    2  A    between atoms: O_2  and  C_3
REMARK    3  A    between atoms: C_6  and  N_7
REMARK    4  A    between atoms: N_7  and  C_8
REMARK    5  A    between atoms: N_7  and  C_9
REMARK                            x       y       z     vdW  Elec       q    Type
REMARK                         _______ _______ _______ _____ _____    ______ ____
ROOT
ATOM      1  C   UNL     1       5.068   5.288  18.754  0.00  0.00    +0.000 A 
ATOM      2  N   UNL     1       6.098   5.514  19.640  0.00  0.00    +0.000 NA
ATOM      3  C   UNL     1       7.366   5.248  19.300  0.00  0.00    +0.000 A 
ATOM      4  N   UNL     1       8.316   5.453  20.285  0.00  0.00    +0.000 N 
ATOM      5  N   UNL     1       7.798   4.783  18.123  0.00  0.00    +0.000 NA
ATOM      6  C   UNL     1       6.781   4.555  17.282  0.00  0.00    +0.000 A 
ATOM      7  N   UNL     1       6.872   4.000  16.036  0.00  0.00    +0.000 N 
ATOM      8  C   UNL     1       5.604   3.892  15.540  0.00  0.00    +0.000 A 
ATOM      9  N   UNL     1       4.712   4.354  16.387  0.00  0.00    +0.000 NA
ATOM     10  C   UNL     1       5.432   4.770  17.491  0.00  0.00    +0.000 A 
ATOM     11  H   UNL     1       7.990   6.151  20.941  0.00  0.00    +0.000 HD
ATOM     12  H   UNL     1       9.233   5.583  19.877  0.00  0.00    +0.000 HD
ATOM     13  H   UNL     1       7.726   3.687  15.601  0.00  0.00    +0.000 HD
ENDROOT
BRANCH   1  14
ATOM     14  N   UNL     1       3.733   5.481  19.185  0.00  0.00    +0.000 N 
ATOM     15  C   UNL     1       3.093   4.200  19.492  0.00  0.00    +0.000 C 
BRANCH  14  19
ATOM     16  C   UNL     1       1.491   9.077  18.824  0.00  0.00    +0.000 A 
ATOM     17  C   UNL     1       2.275   8.615  17.771  0.00  0.00    +0.000 A 
ATOM     18  C   UNL     1       2.989   7.416  17.896  0.00  0.00    +0.000 A 
ATOM     19  C   UNL     1       2.965   6.654  19.079  0.00  0.00    +0.000 A 
ATOM     20  C   UNL     1       2.171   7.143  20.122  0.00  0.00    +0.000 A 
ATOM     21  C   UNL     1       1.443   8.337  20.003  0.00  0.00    +0.000 A 
BRANCH  16  23
ATOM     22  C   UNL     1       1.078  11.266  19.600  0.00  0.00    +0.000 C 
ATOM     23  O   UNL     1       0.849  10.265  18.614  0.00  0.00    +0.000 OA
ENDBRANCH  16  23
ENDBRANCH  14  19
ENDBRANCH   1  14
TORSDOF 3
ENDMDL
MODEL 6
REMARK VINA RESULT:      -7.3      3.118      6.033
REMARK  Name = 
REMARK  5 active torsions:
REMARK  status: ('A' for Active; 'I' for Inactive)
REMARK    1  A    between atoms: C_1  and  O_2
REMARK    2  A    between atoms: O_2  and  C_3
REMARK    3  A    between atoms: C_6  and  N_7
REMARK    4  A    between atoms: N_7  and  C_8
REMARK    5  A    between atoms: N_7  and  C_9
REMARK                            x       y       z     vdW  Elec       q    Type
REMARK                         _______ _______ _______ _____ _____    ______ ____
ROOT
ATOM      1  C   UNL     1       3.163   3.942  18.926  0.00  0.00    +0.000 A 
ATOM      2  N   UNL     1       2.854   3.182  20.032  0.00  0.00    +0.000 NA
ATOM      3  C   UNL     1       2.286   3.738  21.110  0.00  0.00    +0.000 A 
ATOM      4  N   UNL     1       2.076   2.897  22.188  0.00  0.00    +0.000 N 
ATOM      5  N   UNL     1       1.930   5.018  21.255  0.00  0.00    +0.000 NA
ATOM      6  C   UNL     1       2.252   5.743  20.176  0.00  0.00    +0.000 A 
ATOM      7  N   UNL     1       2.105   7.095  20.038  0.00  0.00    +0.000 N 
ATOM      8  C   UNL     1       2.605   7.441  18.816  0.00  0.00    +0.000 A 
ATOM      9  N   UNL     1       3.052   6.392  18.161  0.00  0.00    +0.000 NA
ATOM     10  C   UNL     1       2.845   5.317  19.003  0.00  0.00    +0.000 A 
ATOM     11  H   UNL     1       1.982   1.941  21.870  0.00  0.00    +0.000 HD
ATOM     12  H   UNL     1       1.351   3.265  22.792  0.00  0.00    +0.000 HD
ATOM     13  H   UNL     1       1.736   7.714  20.744  0.00  0.00    +0.000 HD
ENDROOT
BRANCH   1  14
ATOM     14  N   UNL     1       3.858   3.342  17.848  0.00  0.00    +0.000 N 
ATOM     15  C   UNL     1       3.602   1.901  17.801  0.00  0.00    +0.000 C 
BRANCH  14  19
ATOM     16  C   UNL     1       6.960   4.984  15.447  0.00  0.00    +0.000 A 
ATOM     17  C   UNL     1       5.750   4.592  14.881  0.00  0.00    +0.000 A 
ATOM     18  C   UNL     1       4.729   4.074  15.688  0.00  0.00    +0.000 A 
ATOM     19  C   UNL     1       4.887   3.909  17.077  0.00  0.00    +0.000 A 
ATOM     20  C   UNL     1       6.114   4.309  17.619  0.00  0.00    +0.000 A 
ATOM     21  C   UNL     1       7.139   4.839  16.820  0.00  0.00    +0.000 A 
BRANCH  16  23
ATOM     22  C   UNL     1       7.679   5.138  13.206  0.00  0.00    +0.000 C 
ATOM     23  O   UNL     1       7.901   5.457  14.575  0.00  0.00    +0.000 OA
ENDBRANCH  16  23
ENDBRANCH  14  19
ENDBRANCH   1  14
TORSDOF 3
ENDMDL
MODEL 7
REMARK VINA RESULT:      -7.2      2.423      3.906
REMARK  Name = 
REMARK  5 active torsions:
REMARK  status: ('A' for Active; 'I' for Inactive)
REMARK    1  A    between atoms: C_1  and  O_2
REMARK    2  A    between atoms: O_2  and  C_3
REMARK    3  A    between atoms: C_6  and  N_7
REMARK    4  A    between atoms: N_7  and  C_8
REMARK    5  A    between atoms: N_7  and  C_9
REMARK                            x       y       z     vdW  Elec       q    Type
REMARK                         _______ _______ _______ _____ _____    ______ ____
ROOT
ATOM      1  C   UNL     1       5.010   6.597  17.186  0.00  0.00    +0.000 A 
ATOM      2  N   UNL     1       5.884   7.569  17.618  0.00  0.00    +0.000 NA
ATOM      3  C   UNL     1       7.178   7.530  17.271  0.00  0.00    +0.000 A 
ATOM      4  N   UNL     1       7.982   8.519  17.810  0.00  0.00    +0.000 N 
ATOM      5  N   UNL     1       7.768   6.623  16.485  0.00  0.00    +0.000 NA
ATOM      6  C   UNL     1       6.904   5.680  16.088  0.00  0.00    +0.000 A 
ATOM      7  N   UNL     1       7.205   4.568  15.352  0.00  0.00    +0.000 N 
ATOM      8  C   UNL     1       6.056   3.842  15.216  0.00  0.00    +0.000 A 
ATOM      9  N   UNL     1       5.040   4.428  15.810  0.00  0.00    +0.000 NA
ATOM     10  C   UNL     1       5.555   5.581  16.369  0.00  0.00    +0.000 A 
ATOM     11  H   UNL     1       7.428   9.338  18.022  0.00  0.00    +0.000 HD
ATOM     12  H   UNL     1       8.816   8.646  17.250  0.00  0.00    +0.000 HD
ATOM     13  H   UNL     1       8.125   4.321  15.022  0.00  0.00    +0.000 HD
ENDROOT
BRANCH   1  14
ATOM     14  N   UNL     1       3.674   6.613  17.658  0.00  0.00    +0.000 N 
ATOM     15  C   UNL     1       3.081   7.942  17.501  0.00  0.00    +0.000 C 
BRANCH  14  19
ATOM     16  C   UNL     1       1.657   3.685  19.992  0.00  0.00    +0.000 A 
ATOM     17  C   UNL     1       1.375   3.838  18.638  0.00  0.00    +0.000 A 
ATOM     18  C   UNL     1       2.064   4.791  17.877  0.00  0.00    +0.000 A 
ATOM     19  C   UNL     1       3.037   5.636  18.442  0.00  0.00    +0.000 A 
ATOM     20  C   UNL     1       3.299   5.462  19.806  0.00  0.00    +0.000 A 
ATOM     21  C   UNL     1       2.622   4.503  20.575  0.00  0.00    +0.000 A 
BRANCH  16  23
ATOM     22  C   UNL     1       1.385   2.405  21.955  0.00  0.00    +0.000 C 
ATOM     23  O   UNL     1       0.918   2.745  20.653  0.00  0.00    +0.000 OA
ENDBRANCH  16  23
ENDBRANCH  14  19
ENDBRANCH   1  14
TORSDOF 3
ENDMDL
MODEL 8
REMARK VINA RESULT:      -7.1      3.134      6.055
REMARK  Name = 
REMARK  5 active torsions:
REMARK  status: ('A' for Active; 'I' for Inactive)
REMARK    1  A    between atoms: C_1  and  O_2
REMARK    2  A    between atoms: O_2  and  C_3
REMARK    3  A    between atoms: C_6  and  N_7
REMARK    4  A    between atoms: N_7  and  C_8
REMARK    5  A    between atoms: N_7  and  C_9
REMARK                            x       y       z     vdW  Elec       q    Type
REMARK                         _______ _______ _______ _____ _____    ______ ____
ROOT
ATOM      1  C   UNL     1       3.193   3.965  18.849  0.00  0.00    +0.000 A 
ATOM      2  N   UNL     1       2.877   3.260  19.988  0.00  0.00    +0.000 NA
ATOM      3  C   UNL     1       2.336   3.876  21.048  0.00  0.00    +0.000 A 
ATOM      4  N   UNL     1       2.115   3.086  22.163  0.00  0.00    +0.000 N 
ATOM      5  N   UNL     1       2.016   5.170  21.143  0.00  0.00    +0.000 NA
ATOM      6  C   UNL     1       2.345   5.841  20.032  0.00  0.00    +0.000 A 
ATOM      7  N   UNL     1       2.232   7.189  19.839  0.00  0.00    +0.000 N 
ATOM      8  C   UNL     1       2.728   7.471  18.598  0.00  0.00    +0.000 A 
ATOM      9  N   UNL     1       3.139   6.383  17.983  0.00  0.00    +0.000 NA
ATOM     10  C   UNL     1       2.913   5.350  18.872  0.00  0.00    +0.000 A 
ATOM     11  H   UNL     1       1.992   2.121  21.886  0.00  0.00    +0.000 HD
ATOM     12  H   UNL     1       1.407   3.498  22.758  0.00  0.00    +0.000 HD
ATOM     13  H   UNL     1       1.889   7.847  20.522  0.00  0.00    +0.000 HD
ENDROOT
BRANCH   1  14
ATOM     14  N   UNL     1       3.860   3.302  17.790  0.00  0.00    +0.000 N 
ATOM     15  C   UNL     1       3.628   1.857  17.851  0.00  0.00    +0.000 C 
BRANCH  14  19
ATOM     16  C   UNL     1       6.879   4.970  15.302  0.00  0.00    +0.000 A 
ATOM     17  C   UNL     1       7.100   4.779  16.664  0.00  0.00    +0.000 A 
ATOM     18  C   UNL     1       6.104   4.207  17.466  0.00  0.00    +0.000 A 
ATOM     19  C   UNL     1       4.852   3.829  16.945  0.00  0.00    +0.000 A 
ATOM     20  C   UNL     1       4.657   4.034  15.574  0.00  0.00    +0.000 A 
ATOM     21  C   UNL     1       5.652   4.598  14.761  0.00  0.00    +0.000 A 
BRANCH  16  23
ATOM     22  C   UNL     1       7.914   5.298  13.208  0.00  0.00    +0.000 C 
ATOM     23  O   UNL     1       7.902   5.555  14.609  0.00  0.00    +0.000 OA
ENDBRANCH  16  23
ENDBRANCH  14  19
ENDBRANCH   1  14
TORSDOF 3
ENDMDL
MODEL 9
REMARK VINA RESULT:      -7.0      2.155      3.893
REMARK  Name = 
REMARK  5 active torsions:
REMARK  status: ('A' for Active; 'I' for Inactive)
REMARK    1  A    between atoms: C_1  and  O_2
REMARK    2  A    between atoms: O_2  and  C_3
REMARK    3  A    between atoms: C_6  and  N_7
REMARK    4  A    between atoms: N_7  and  C_8
REMARK    5  A    between atoms: N_7  and  C_9
REMARK                            x       y       z     vdW  Elec       q    Type
REMARK                         _______ _______ _______ _____ _____    ______ ____
ROOT
ATOM      1  C   UNL     1       5.295   5.830  17.637  0.00  0.00    +0.000 A 
ATOM      2  N   UNL     1       6.166   5.854  18.703  0.00  0.00    +0.000 NA
ATOM      3  C   UNL     1       7.457   5.535  18.539  0.00  0.00    +0.000 A 
ATOM      4  N   UNL     1       8.232   5.530  19.686  0.00  0.00    +0.000 N 
ATOM      5  N   UNL     1       8.059   5.198  17.394  0.00  0.00    +0.000 NA
ATOM      6  C   UNL     1       7.192   5.166  16.374  0.00  0.00    +0.000 A 
ATOM      7  N   UNL     1       7.466   4.775  15.093  0.00  0.00    +0.000 N 
ATOM      8  C   UNL     1       6.299   4.836  14.386  0.00  0.00    +0.000 A 
ATOM      9  N   UNL     1       5.301   5.251  15.134  0.00  0.00    +0.000 NA
ATOM     10  C   UNL     1       5.841   5.457  16.389  0.00  0.00    +0.000 A 
ATOM     11  H   UNL     1       7.838   6.159  20.374  0.00  0.00    +0.000 HD
ATOM     12  H   UNL     1       9.212   5.640  19.456  0.00  0.00    +0.000 HD
ATOM     13  H   UNL     1       8.363   4.456  14.763  0.00  0.00    +0.000 HD
ENDROOT
BRANCH   1  14
ATOM     14  N   UNL     1       3.918   6.070  17.867  0.00  0.00    +0.000 N 
ATOM     15  C   UNL     1       3.562   7.445  17.512  0.00  0.00    +0.000 C 
BRANCH  14  19
ATOM     16  C   UNL     1       1.287   3.628  20.148  0.00  0.00    +0.000 A 
ATOM     17  C   UNL     1       2.075   4.598  20.763  0.00  0.00    +0.000 A 
ATOM     18  C   UNL     1       2.920   5.410  19.995  0.00  0.00    +0.000 A 
ATOM     19  C   UNL     1       3.024   5.269  18.599  0.00  0.00    +0.000 A 
ATOM     20  C   UNL     1       2.222   4.285  18.008  0.00  0.00    +0.000 A 
ATOM     21  C   UNL     1       1.365   3.474  18.767  0.00  0.00    +0.000 A 
BRANCH  16  23
ATOM     22  C   UNL     1       1.188   2.318  22.107  0.00  0.00    +0.000 C 
ATOM     23  O   UNL     1       0.513   2.873  20.983  0.00  0.00    +0.000 OA
ENDBRANCH  16  23
ENDBRANCH  14  19
ENDBRANCH   1  14
TORSDOF 3
ENDMDL
