MODEL 1
REMARK VINA RESULT:      -7.3      0.000      0.000
REMARK  Name = 
REMARK  8 active torsions:
REMARK  status: ('A' for Active; 'I' for Inactive)
REMARK    1  A    between atoms: C_1  and  C_2
REMARK    2  A    between atoms: C_2  and  C_3
REMARK    3  A    between atoms: N_11  and  C_12
REMARK    4  A    between atoms: C_12  and  C_13
REMARK    5  A    between atoms: C_16  and  O_17
REMARK    6  A    between atoms: O_17  and  C_18
REMARK    7  A    between atoms: C_19  and  O_20
REMARK    8  A    between atoms: O_20  and  C_21
REMARK                            x       y       z     vdW  Elec       q    Type
REMARK                         _______ _______ _______ _____ _____    ______ ____
ROOT
ATOM      1  C   UNL     1       2.810   4.207  17.774  0.00  0.00    +0.000 A 
ATOM      2  N   UNL     1       3.515   3.750  16.757  0.00  0.00    +0.000 NA
ATOM      3  C   UNL     1       4.785   4.224  16.932  0.00  0.00    +0.000 A 
ATOM      4  C   UNL     1       5.931   3.993  16.157  0.00  0.00    +0.000 A 
ATOM      5  C   UNL     1       7.147   4.548  16.571  0.00  0.00    +0.000 A 
ATOM      6  C   UNL     1       7.220   5.310  17.735  0.00  0.00    +0.000 A 
ATOM      7  C   UNL     1       6.083   5.564  18.511  0.00  0.00    +0.000 A 
ATOM      8  C   UNL     1       4.870   5.017  18.072  0.00  0.00    +0.000 A 
ATOM      9  N   UNL     1       3.571   5.067  18.544  0.00  0.00    +0.000 N 
ENDROOT
BRANCH   1  11
ATOM     10  C   UNL     1       1.269   2.530  18.809  0.00  0.00    +0.000 C 
ATOM     11  C   UNL     1       1.385   3.846  18.047  0.00  0.00    +0.000 C 
ENDBRANCH   1  11
BRANCH   9  12
ATOM     12  C   UNL     1       3.137   5.794  19.724  0.00  0.00    +0.000 C 
BRANCH  12  13
ATOM     13  C   UNL     1       2.391   7.073  19.412  0.00  0.00    +0.000 A 
ATOM     14  C   UNL     1       2.523   7.686  18.161  0.00  0.00    +0.000 A 
ATOM     15  C   UNL     1       1.973   8.948  17.921  0.00  0.00    +0.000 A 
ATOM     16  C   UNL     1       1.281   9.625  18.929  0.00  0.00    +0.000 A 
ATOM     17  C   UNL     1       1.070   8.987  20.167  0.00  0.00    +0.000 A 
ATOM     18  C   UNL     1       1.619   7.717  20.396  0.00  0.00    +0.000 A 
BRANCH  16  19
ATOM     19  O   UNL     1       0.783  10.897  18.807  0.00  0.00    +0.000 OA
ATOM     20  C   UNL     1       1.719  11.962  18.702  0.00  0.00    +0.000 C 
ENDBRANCH  16  19
BRANCH  17  21
ATOM     21  O   UNL     1       0.356   9.703  21.097  0.00  0.00    +0.000 OA
ATOM     22  C   UNL     1       0.690   9.535  22.467  0.00  0.00    +0.000 C 
ENDBRANCH  17  21
ENDBRANCH  12  13
ENDBRANCH   9  12
TORSDOF 5
ENDMDL
MODEL 2
REMARK VINA RESULT:      -7.1      1.276      3.247
REMARK  Name = 
REMARK  8 active torsions:
REMARK  status: ('A' for Active; 'I' for Inactive)
REMARK    1  A    between atoms: C_1  and  C_2
REMARK    2  A    between atoms: C_2  and  C_3
REMARK    3  A    between atoms: N_11  and  C_12
REMARK    4  A    between atoms: C_12  and  C_13
REMARK    5  A    between atoms: C_16  and  O_17
REMARK    6  A    between atoms: O_17  and  C_18
REMARK    7  A    between atoms: C_19  and  O_20
REMARK    8  A    between atoms: O_20  and  C_21
REMARK                            x       y       z     vdW  Elec       q    Type
REMARK                         _______ _______ _______ _____ _____    ______ ____
ROOT
ATOM      1  C   UNL     1       4.012   4.967  17.258  0.00  0.00    +0.000 A 
ATOM      2  N   UNL     1       3.602   3.756  16.933  0.00  0.00    +0.000 NA
ATOM      3  C   UNL     1       2.695   3.392  17.890  0.00  0.00    +0.000 A 
ATOM      4  C   UNL     1       1.932   2.220  17.986  0.00  0.00    +0.000 A 
ATOM      5  C   UNL     1       1.019   2.095  19.038  0.00  0.00    +0.000 A 
ATOM      6  C   UNL     1       0.865   3.120  19.970  0.00  0.00    +0.000 A 
ATOM      7  C   UNL     1       1.631   4.290  19.898  0.00  0.00    +0.000 A 
ATOM      8  C   UNL     1       2.555   4.390  18.849  0.00  0.00    +0.000 A 
ATOM      9  N   UNL     1       3.476   5.350  18.474  0.00  0.00    +0.000 N 
ENDROOT
BRANCH   1  11
ATOM     10  C   UNL     1       5.513   5.012  15.256  0.00  0.00    +0.000 C 
ATOM     11  C   UNL     1       4.932   5.801  16.426  0.00  0.00    +0.000 C 
ENDBRANCH   1  11
BRANCH   9  12
ATOM     12  C   UNL     1       3.721   6.596  19.178  0.00  0.00    +0.000 C 
BRANCH  12  13
ATOM     13  C   UNL     1       2.590   7.595  19.061  0.00  0.00    +0.000 A 
ATOM     14  C   UNL     1       2.378   8.294  17.868  0.00  0.00    +0.000 A 
ATOM     15  C   UNL     1       1.445   9.332  17.802  0.00  0.00    +0.000 A 
ATOM     16  C   UNL     1       0.706   9.695  18.931  0.00  0.00    +0.000 A 
ATOM     17  C   UNL     1       0.849   8.949  20.117  0.00  0.00    +0.000 A 
ATOM     18  C   UNL     1       1.782   7.903  20.171  0.00  0.00    +0.000 A 
BRANCH  16  19
ATOM     19  O   UNL     1      -0.167  10.753  18.978  0.00  0.00    +0.000 OA
ATOM     20  C   UNL     1      -1.340  10.673  18.179  0.00  0.00    +0.000 C 
ENDBRANCH  16  19
BRANCH  17  21
ATOM     21  O   UNL     1       0.067   9.347  21.174  0.00  0.00    +0.000 OA
ATOM     22  C   UNL     1       0.689   9.500  22.442  0.00  0.00    +0.000 C 
ENDBRANCH  17  21
ENDBRANCH  12  13
ENDBRANCH   9  12
TORSDOF 5
ENDMDL
MODEL 3
REMARK VINA RESULT:      -7.0      1.316      3.780
REMARK  Name = 
REMARK  8 active torsions:
REMARK  status: ('A' for Active; 'I' for Inactive)
REMARK    1  A    between atoms: C_1  and  C_2
REMARK    2  A    between atoms: C_2  and  C_3
REMARK    3  A    between atoms: N_11  and  C_12
REMARK    4  A    between atoms: C_12  and  C_13
REMARK    5  A    between atoms: C_16  and  O_17
REMARK    6  A    between atoms: O_17  and  C_18
REMARK    7  A    between atoms: C_19  and  O_20
REMARK    8  A    between atoms: O_20  and  C_21
REMARK                            x       y       z     vdW  Elec       q    Type
REMARK                         _______ _______ _______ _____ _____    ______ ____
ROOT
ATOM      1  C   UNL     1       5.222   5.296  18.400  0.00  0.00    +0.000 A 
ATOM      2  N   UNL     1       5.317   4.092  18.931  0.00  0.00    +0.000 NA
ATOM      3  C   UNL     1       4.065   3.547  18.861  0.00  0.00    +0.000 A 
ATOM      4  C   UNL     1       3.634   2.269  19.247  0.00  0.00    +0.000 A 
ATOM      5  C   UNL     1       2.299   1.914  19.024  0.00  0.00    +0.000 A 
ATOM      6  C   UNL     1       1.416   2.810  18.424  0.00  0.00    +0.000 A 
ATOM      7  C   UNL     1       1.827   4.095  18.049  0.00  0.00    +0.000 A 
ATOM      8  C   UNL     1       3.162   4.441  18.296  0.00  0.00    +0.000 A 
ATOM      9  N   UNL     1       3.906   5.588  18.094  0.00  0.00    +0.000 N 
ENDROOT
BRANCH   1  11
ATOM     10  C   UNL     1       7.628   5.752  18.915  0.00  0.00    +0.000 C 
ATOM     11  C   UNL     1       6.380   6.213  18.170  0.00  0.00    +0.000 C 
ENDBRANCH   1  11
BRANCH   9  12
ATOM     12  C   UNL     1       3.399   6.827  17.529  0.00  0.00    +0.000 C 
BRANCH  12  13
ATOM     13  C   UNL     1       2.589   7.654  18.503  0.00  0.00    +0.000 A 
ATOM     14  C   UNL     1       2.462   7.259  19.839  0.00  0.00    +0.000 A 
ATOM     15  C   UNL     1       1.586   7.922  20.703  0.00  0.00    +0.000 A 
ATOM     16  C   UNL     1       0.815   8.994  20.245  0.00  0.00    +0.000 A 
ATOM     17  C   UNL     1       0.991   9.455  18.926  0.00  0.00    +0.000 A 
ATOM     18  C   UNL     1       1.879   8.788  18.070  0.00  0.00    +0.000 A 
BRANCH  16  19
ATOM     19  O   UNL     1      -0.128   9.647  20.999  0.00  0.00    +0.000 OA
ATOM     20  C   UNL     1      -0.269   9.255  22.359  0.00  0.00    +0.000 C 
ENDBRANCH  16  19
BRANCH  17  21
ATOM     21  O   UNL     1       0.219  10.532  18.559  0.00  0.00    +0.000 OA
ATOM     22  C   UNL     1      -0.968  10.281  17.823  0.00  0.00    +0.000 C 
ENDBRANCH  17  21
ENDBRANCH  12  13
ENDBRANCH   9  12
TORSDOF 5
ENDMDL
MODEL 4
REMARK VINA RESULT:      -6.9      1.364      3.449
REMARK  Name = 
REMARK  8 active torsions:
REMARK  status: ('A' for Active; 'I' for Inactive)
REMARK    1  A    between atoms: C_1  and  C_2
REMARK    2  A    between atoms: C_2  and  C_3
REMARK    3  A    between atoms: N_11  and  C_12
REMARK    4  A    between atoms: C_12  and  C_13
REMARK    5  A    between atoms: C_16  and  O_17
REMARK    6  A    between atoms: O_17  and  C_18
REMARK    7  A    between atoms: C_19  and  O_20
REMARK    8  A    between atoms: O_20  and  C_21
REMARK                            x       y       z     vdW  Elec       q    Type
REMARK                         _______ _______ _______ _____ _____    ______ ____
ROOT
ATOM      1  C   UNL     1       5.213   4.825  19.105  0.00  0.00    +0.000 A 
ATOM      2  N   UNL     1       4.926   3.661  19.654  0.00  0.00    +0.000 NA
ATOM      3  C   UNL     1       3.650   3.362  19.266  0.00  0.00    +0.000 A 
ATOM      4  C   UNL     1       2.887   2.217  19.539  0.00  0.00    +0.000 A 
ATOM      5  C   UNL     1       1.609   2.111  18.979  0.00  0.00    +0.000 A 
ATOM      6  C   UNL     1       1.106   3.120  18.160  0.00  0.00    +0.000 A 
ATOM      7  C   UNL     1       1.848   4.277  17.892  0.00  0.00    +0.000 A 
ATOM      8  C   UNL     1       3.118   4.376  18.475  0.00  0.00    +0.000 A 
ATOM      9  N   UNL     1       4.104   5.344  18.462  0.00  0.00    +0.000 N 
ENDROOT
BRANCH   1  11
ATOM     10  C   UNL     1       7.470   5.036  18.044  0.00  0.00    +0.000 C 
ATOM     11  C   UNL     1       6.552   5.488  19.175  0.00  0.00    +0.000 C 
ENDBRANCH   1  11
BRANCH   9  12
ATOM     12  C   UNL     1       4.017   6.619  17.772  0.00  0.00    +0.000 C 
BRANCH  12  13
ATOM     13  C   UNL     1       2.895   7.506  18.269  0.00  0.00    +0.000 A 
ATOM     14  C   UNL     1       2.410   8.551  17.475  0.00  0.00    +0.000 A 
ATOM     15  C   UNL     1       1.494   9.473  17.988  0.00  0.00    +0.000 A 
ATOM     16  C   UNL     1       1.045   9.370  19.307  0.00  0.00    +0.000 A 
ATOM     17  C   UNL     1       1.461   8.277  20.092  0.00  0.00    +0.000 A 
ATOM     18  C   UNL     1       2.375   7.352  19.566  0.00  0.00    +0.000 A 
BRANCH  16  19
ATOM     19  O   UNL     1       0.214  10.276  19.916  0.00  0.00    +0.000 OA
ATOM     20  C   UNL     1      -1.092  10.436  19.376  0.00  0.00    +0.000 C 
ENDBRANCH  16  19
BRANCH  17  21
ATOM     21  O   UNL     1       0.954   8.228  21.369  0.00  0.00    +0.000 OA
ATOM     22  C   UNL     1       1.545   9.065  22.353  0.00  0.00    +0.000 C 
ENDBRANCH  17  21
ENDBRANCH  12  13
ENDBRANCH   9  12
TORSDOF 5
ENDMDL
MODEL 5
REMARK VINA RESULT:      -6.9      1.060      1.114
REMARK  Name = 
REMARK  8 active torsions:
REMARK  status: ('A' for Active; 'I' for Inactive)
REMARK    1  A    between atoms: C_1  and  C_2
REMARK    2  A    between atoms: C_2  and  C_3
REMARK    3  A    between atoms: N_11  and  C_12
REMARK    4  A    between atoms: C_12  and  C_13
REMARK    5  A    between atoms: C_16  and  O_17
REMARK    6  A    between atoms: O_17  and  C_18
REMARK    7  A    between atoms: C_19  and  O_20
REMARK    8  A    between atoms: O_20  and  C_21
REMARK                            x       y       z     vdW  Elec       q    Type
REMARK                         _______ _______ _______ _____ _____    ______ ____
ROOT
ATOM      1  C   UNL     1       2.309   4.191  18.610  0.00  0.00    +0.000 A 
ATOM      2  N   UNL     1       2.707   3.587  17.507  0.00  0.00    +0.000 NA
ATOM      3  C   UNL     1       3.867   4.205  17.132  0.00  0.00    +0.000 A 
ATOM      4  C   UNL     1       4.716   3.915  16.054  0.00  0.00    +0.000 A 
ATOM      5  C   UNL     1       5.891   4.659  15.903  0.00  0.00    +0.000 A 
ATOM      6  C   UNL     1       6.215   5.666  16.810  0.00  0.00    +0.000 A 
ATOM      7  C   UNL     1       5.370   5.980  17.882  0.00  0.00    +0.000 A 
ATOM      8  C   UNL     1       4.189   5.237  18.008  0.00  0.00    +0.000 A 
ATOM      9  N   UNL     1       3.128   5.269  18.893  0.00  0.00    +0.000 N 
ENDROOT
BRANCH   1  11
ATOM     10  C   UNL     1       1.533   2.796  20.536  0.00  0.00    +0.000 C 
ATOM     11  C   UNL     1       1.134   3.768  19.430  0.00  0.00    +0.000 C 
ENDBRANCH   1  11
BRANCH   9  12
ATOM     12  C   UNL     1       2.991   6.197  20.002  0.00  0.00    +0.000 C 
BRANCH  12  13
ATOM     13  C   UNL     1       2.141   7.408  19.682  0.00  0.00    +0.000 A 
ATOM     14  C   UNL     1       2.131   7.950  18.392  0.00  0.00    +0.000 A 
ATOM     15  C   UNL     1       1.482   9.159  18.128  0.00  0.00    +0.000 A 
ATOM     16  C   UNL     1       0.831   9.853  19.151  0.00  0.00    +0.000 A 
ATOM     17  C   UNL     1       0.763   9.281  20.437  0.00  0.00    +0.000 A 
ATOM     18  C   UNL     1       1.410   8.063  20.689  0.00  0.00    +0.000 A 
BRANCH  16  19
ATOM     19  O   UNL     1       0.242  11.083  19.000  0.00  0.00    +0.000 OA
ATOM     20  C   UNL     1      -1.015  11.134  18.337  0.00  0.00    +0.000 C 
ENDBRANCH  16  19
BRANCH  17  21
ATOM     21  O   UNL     1       0.081  10.009  21.382  0.00  0.00    +0.000 OA
ATOM     22  C   UNL     1      -0.186   9.392  22.633  0.00  0.00    +0.000 C 
ENDBRANCH  17  21
ENDBRANCH  12  13
ENDBRANCH   9  12
TORSDOF 5
ENDMDL
MODEL 6
REMARK VINA RESULT:      -6.7      3.173      6.118
REMARK  Name = 
REMARK  8 active torsions:
REMARK  status: ('A' for Active; 'I' for Inactive)
REMARK    1  A    between atoms: C_1  and  C_2
REMARK    2  A    between atoms: C_2  and  C_3
REMARK    3  A    between atoms: N_11  and  C_12
REMARK    4  A    between atoms: C_12  and  C_13
REMARK    5  A    between atoms: C_16  and  O_17
REMARK    6  A    between atoms: O_17  and  C_18
REMARK    7  A    between atoms: C_19  and  O_20
REMARK    8  A    between atoms: O_20  and  C_21
REMARK                            x       y       z     vdW  Elec       q    Type
REMARK                         _______ _______ _______ _____ _____    ______ ____
ROOT
ATOM      1  C   UNL     1       2.496   4.163  20.155  0.00  0.00    +0.000 A 
ATOM      2  N   UNL     1       2.155   5.201  20.894  0.00  0.00    +0.000 NA
ATOM      3  C   UNL     1       2.129   6.277  20.051  0.00  0.00    +0.000 A 
ATOM      4  C   UNL     1       1.782   7.608  20.325  0.00  0.00    +0.000 A 
ATOM      5  C   UNL     1       1.775   8.532  19.274  0.00  0.00    +0.000 A 
ATOM      6  C   UNL     1       2.101   8.136  17.978  0.00  0.00    +0.000 A 
ATOM      7  C   UNL     1       2.465   6.814  17.691  0.00  0.00    +0.000 A 
ATOM      8  C   UNL     1       2.485   5.906  18.758  0.00  0.00    +0.000 A 
ATOM      9  N   UNL     1       2.805   4.566  18.869  0.00  0.00    +0.000 N 
ENDROOT
BRANCH   1  11
ATOM     10  C   UNL     1       1.593   2.526  21.818  0.00  0.00    +0.000 C 
ATOM     11  C   UNL     1       2.544   2.752  20.646  0.00  0.00    +0.000 C 
ENDBRANCH   1  11
BRANCH   9  12
ATOM     12  C   UNL     1       3.256   3.721  17.777  0.00  0.00    +0.000 C 
BRANCH  12  13
ATOM     13  C   UNL     1       4.387   4.319  16.969  0.00  0.00    +0.000 A 
ATOM     14  C   UNL     1       4.421   4.175  15.577  0.00  0.00    +0.000 A 
ATOM     15  C   UNL     1       5.539   4.579  14.843  0.00  0.00    +0.000 A 
ATOM     16  C   UNL     1       6.649   5.132  15.486  0.00  0.00    +0.000 A 
ATOM     17  C   UNL     1       6.598   5.358  16.876  0.00  0.00    +0.000 A 
ATOM     18  C   UNL     1       5.468   4.957  17.603  0.00  0.00    +0.000 A 
BRANCH  16  19
ATOM     19  O   UNL     1       7.818   5.477  14.855  0.00  0.00    +0.000 OA
ATOM     20  C   UNL     1       7.878   5.306  13.445  0.00  0.00    +0.000 C 
ENDBRANCH  16  19
BRANCH  17  21
ATOM     21  O   UNL     1       7.716   5.932  17.431  0.00  0.00    +0.000 OA
ATOM     22  C   UNL     1       7.887   5.833  18.838  0.00  0.00    +0.000 C 
ENDBRANCH  17  21
ENDBRANCH  12  13
ENDBRANCH   9  12
TORSDOF 5
ENDMDL
MODEL 7
REMARK VINA RESULT:      -6.7      3.834      6.241
REMARK  Name = 
REMARK  8 active torsions:
REMARK  status: ('A' for Active; 'I' for Inactive)
REMARK    1  A    between atoms: C_1  and  C_2
REMARK    2  A    between atoms: C_2  and  C_3
REMARK    3  A    between atoms: N_11  and  C_12
REMARK    4  A    between atoms: C_12  and  C_13
REMARK    5  A    between atoms: C_16  and  O_17
REMARK    6  A    between atoms: O_17  and  C_18
REMARK    7  A    between atoms: C_19  and  O_20
REMARK    8  A    between atoms: O_20  and  C_21
REMARK                            x       y       z     vdW  Elec       q    Type
REMARK                         _______ _______ _______ _____ _____    ______ ____
ROOT
ATOM      1  C   UNL     1       0.428   9.422  21.035  0.00  0.00    +0.000 A 
ATOM      2  N   UNL     1       0.872   8.190  21.196  0.00  0.00    +0.000 NA
ATOM      3  C   UNL     1       1.582   7.891  20.067  0.00  0.00    +0.000 A 
ATOM      4  C   UNL     1       2.296   6.725  19.753  0.00  0.00    +0.000 A 
ATOM      5  C   UNL     1       3.000   6.672  18.545  0.00  0.00    +0.000 A 
ATOM      6  C   UNL     1       2.996   7.758  17.672  0.00  0.00    +0.000 A 
ATOM      7  C   UNL     1       2.275   8.923  17.962  0.00  0.00    +0.000 A 
ATOM      8  C   UNL     1       1.561   8.953  19.168  0.00  0.00    +0.000 A 
ATOM      9  N   UNL     1       0.739   9.886  19.770  0.00  0.00    +0.000 N 
ENDROOT
BRANCH   1  11
ATOM     10  C   UNL     1      -0.179   9.565  23.458  0.00  0.00    +0.000 C 
ATOM     11  C   UNL     1      -0.311  10.198  22.077  0.00  0.00    +0.000 C 
ENDBRANCH   1  11
BRANCH   9  12
ATOM     12  C   UNL     1       0.389  11.180  19.209  0.00  0.00    +0.000 C 
BRANCH  12  13
ATOM     13  C   UNL     1      -1.023  11.249  18.670  0.00  0.00    +0.000 A 
ATOM     14  C   UNL     1      -1.990  12.037  19.306  0.00  0.00    +0.000 A 
ATOM     15  C   UNL     1      -3.330  11.979  18.916  0.00  0.00    +0.000 A 
ATOM     16  C   UNL     1      -3.733  11.129  17.883  0.00  0.00    +0.000 A 
ATOM     17  C   UNL     1      -2.760  10.391  17.180  0.00  0.00    +0.000 A 
ATOM     18  C   UNL     1      -1.417  10.462  17.573  0.00  0.00    +0.000 A 
BRANCH  16  19
ATOM     19  O   UNL     1      -5.036  10.948  17.493  0.00  0.00    +0.000 OA
ATOM     20  C   UNL     1      -5.980  10.600  18.497  0.00  0.00    +0.000 C 
ENDBRANCH  16  19
BRANCH  17  21
ATOM     21  O   UNL     1      -3.230   9.602  16.158  0.00  0.00    +0.000 OA
ATOM     22  C   UNL     1      -3.101  10.085  14.829  0.00  0.00    +0.000 C 
ENDBRANCH  17  21
ENDBRANCH  12  13
ENDBRANCH   9  12
TORSDOF 5
ENDMDL
MODEL 8
REMARK VINA RESULT:      -6.7      1.437      2.527
REMARK  Name = 
REMARK  8 active torsions:
REMARK  status: ('A' for Active; 'I' for Inactive)
REMARK    1  A    between atoms: C_1  and  C_2
REMARK    2  A    between atoms: C_2  and  C_3
REMARK    3  A    between atoms: N_11  and  C_12
REMARK    4  A    between atoms: C_12  and  C_13
REMARK    5  A    between atoms: C_16  and  O_17
REMARK    6  A    between atoms: O_17  and  C_18
REMARK    7  A    between atoms: C_19  and  O_20
REMARK    8  A    between atoms: O_20  and  C_21
REMARK                            x       y       z     vdW  Elec       q    Type
REMARK                         _______ _______ _______ _____ _____    ______ ____
ROOT
ATOM      1  C   UNL     1       4.281   4.104  19.115  0.00  0.00    +0.000 A 
ATOM      2  N   UNL     1       5.585   3.923  19.190  0.00  0.00    +0.000 NA
ATOM      3  C   UNL     1       6.155   5.007  18.583  0.00  0.00    +0.000 A 
ATOM      4  C   UNL     1       7.513   5.326  18.434  0.00  0.00    +0.000 A 
ATOM      5  C   UNL     1       7.856   6.534  17.817  0.00  0.00    +0.000 A 
ATOM      6  C   UNL     1       6.868   7.407  17.364  0.00  0.00    +0.000 A 
ATOM      7  C   UNL     1       5.509   7.096  17.491  0.00  0.00    +0.000 A 
ATOM      8  C   UNL     1       5.182   5.874  18.094  0.00  0.00    +0.000 A 
ATOM      9  N   UNL     1       3.991   5.229  18.365  0.00  0.00    +0.000 N 
ENDROOT
BRANCH   1  11
ATOM     10  C   UNL     1       2.835   2.084  18.815  0.00  0.00    +0.000 C 
ATOM     11  C   UNL     1       3.264   3.210  19.749  0.00  0.00    +0.000 C 
ENDBRANCH   1  11
BRANCH   9  12
ATOM     12  C   UNL     1       2.670   5.733  18.029  0.00  0.00    +0.000 C 
BRANCH  12  13
ATOM     13  C   UNL     1       2.215   6.879  18.906  0.00  0.00    +0.000 A 
ATOM     14  C   UNL     1       2.023   6.692  20.280  0.00  0.00    +0.000 A 
ATOM     15  C   UNL     1       1.448   7.693  21.066  0.00  0.00    +0.000 A 
ATOM     16  C   UNL     1       1.048   8.904  20.493  0.00  0.00    +0.000 A 
ATOM     17  C   UNL     1       1.308   9.139  19.128  0.00  0.00    +0.000 A 
ATOM     18  C   UNL     1       1.894   8.130  18.350  0.00  0.00    +0.000 A 
BRANCH  16  19
ATOM     19  O   UNL     1       0.400   9.905  21.172  0.00  0.00    +0.000 OA
ATOM     20  C   UNL     1       0.122   9.692  22.549  0.00  0.00    +0.000 C 
ENDBRANCH  16  19
BRANCH  17  21
ATOM     21  O   UNL     1       0.913  10.363  18.645  0.00  0.00    +0.000 OA
ATOM     22  C   UNL     1      -0.389  10.471  18.088  0.00  0.00    +0.000 C 
ENDBRANCH  17  21
ENDBRANCH  12  13
ENDBRANCH   9  12
TORSDOF 5
ENDMDL
MODEL 9
REMARK VINA RESULT:      -6.6      2.461      4.353
REMARK  Name = 
REMARK  8 active torsions:
REMARK  status: ('A' for Active; 'I' for Inactive)
REMARK    1  A    between atoms: C_1  and  C_2
REMARK    2  A    between atoms: C_2  and  C_3
REMARK    3  A    between atoms: N_11  and  C_12
REMARK    4  A    between atoms: C_12  and  C_13
REMARK    5  A    between atoms: C_16  and  O_17
REMARK    6  A    between atoms: O_17  and  C_18
REMARK    7  A    between atoms: C_19  and  O_20
REMARK    8  A    between atoms: O_20  and  C_21
REMARK                            x       y       z     vdW  Elec       q    Type
REMARK                         _______ _______ _______ _____ _____    ______ ____
ROOT
ATOM      1  C   UNL     1       6.731   5.385  16.742  0.00  0.00    +0.000 A 
ATOM      2  N   UNL     1       7.565   5.747  15.787  0.00  0.00    +0.000 NA
ATOM      3  C   UNL     1       7.169   5.078  14.662  0.00  0.00    +0.000 A 
ATOM      4  C   UNL     1       7.693   5.144  13.363  0.00  0.00    +0.000 A 
ATOM      5  C   UNL     1       7.077   4.399  12.351  0.00  0.00    +0.000 A 
ATOM      6  C   UNL     1       5.961   3.611  12.627  0.00  0.00    +0.000 A 
ATOM      7  C   UNL     1       5.436   3.521  13.922  0.00  0.00    +0.000 A 
ATOM      8  C   UNL     1       6.076   4.259  14.928  0.00  0.00    +0.000 A 
ATOM      9  N   UNL     1       5.871   4.402  16.287  0.00  0.00    +0.000 N 
ENDROOT
BRANCH   1  11
ATOM     10  C   UNL     1       7.967   5.555  18.911  0.00  0.00    +0.000 C 
ATOM     11  C   UNL     1       6.725   5.958  18.123  0.00  0.00    +0.000 C 
ENDBRANCH   1  11
BRANCH   9  12
ATOM     12  C   UNL     1       4.837   3.728  17.053  0.00  0.00    +0.000 C 
BRANCH  12  13
ATOM     13  C   UNL     1       3.936   4.670  17.821  0.00  0.00    +0.000 A 
ATOM     14  C   UNL     1       3.640   5.941  17.317  0.00  0.00    +0.000 A 
ATOM     15  C   UNL     1       2.946   6.875  18.092  0.00  0.00    +0.000 A 
ATOM     16  C   UNL     1       2.537   6.557  19.389  0.00  0.00    +0.000 A 
ATOM     17  C   UNL     1       2.756   5.255  19.881  0.00  0.00    +0.000 A 
ATOM     18  C   UNL     1       3.445   4.322  19.093  0.00  0.00    +0.000 A 
BRANCH  16  19
ATOM     19  O   UNL     1       1.927   7.438  20.247  0.00  0.00    +0.000 OA
ATOM     20  C   UNL     1       1.482   8.677  19.709  0.00  0.00    +0.000 C 
ENDBRANCH  16  19
BRANCH  17  21
ATOM     21  O   UNL     1       2.298   5.010  21.153  0.00  0.00    +0.000 OA
ATOM     22  C   UNL     1       2.075   3.660  21.532  0.00  0.00    +0.000 C 
ENDBRANCH  17  21
ENDBRANCH  12  13
ENDBRANCH   9  12
TORSDOF 5
ENDMDL
