MODEL 1
REMARK VINA RESULT:      -7.4      0.000      0.000
REMARK  Name = 
REMARK  11 active torsions:
REMARK  status: ('A' for Active; 'I' for Inactive)
REMARK    1  A    between atoms: C_1  and  O_2
REMARK    2  A    between atoms: O_2  and  C_3
REMARK    3  A    between atoms: C_6  and  C_7
REMARK    4  A    between atoms: C_10  and  N_11
REMARK    5  A    between atoms: N_11  and  C_12
REMARK    6  A    between atoms: C_12  and  C_13
REMARK    7  A    between atoms: C_12  and  C_14
REMARK    8  A    between atoms: C_16  and  C_17
REMARK    9  A    between atoms: N_19  and  C_20
REMARK   10  A    between atoms: N_19  and  C_21
REMARK   11  A    between atoms: C_27  and  N_28
REMARK                            x       y       z     vdW  Elec       q    Type
REMARK                         _______ _______ _______ _____ _____    ______ ____
ROOT
ATOM      1  C   UNL     1      -0.380  11.328  19.191  0.00  0.00    +0.000 A 
ATOM      2  C   UNL     1       0.531  10.451  18.555  0.00  0.00    +0.000 A 
ATOM      3  C   UNL     1       1.156   9.378  19.230  0.00  0.00    +0.000 A 
ATOM      4  C   UNL     1       0.810   9.154  20.557  0.00  0.00    +0.000 A 
ATOM      5  C   UNL     1      -0.037  10.053  21.217  0.00  0.00    +0.000 A 
ATOM      6  C   UNL     1      -0.326   9.864  22.641  0.00  0.00    +0.000 A 
ATOM      7  O   UNL     1       0.119   8.914  23.274  0.00  0.00    +0.000 OA
ATOM      8  C   UNL     1      -1.137  10.896  23.289  0.00  0.00    +0.000 A 
ATOM      9  C   UNL     1      -1.673  11.894  22.569  0.00  0.00    +0.000 A 
ATOM     10  O   UNL     1      -1.510  11.979  21.191  0.00  0.00    +0.000 OA
ATOM     11  C   UNL     1      -0.632  11.128  20.557  0.00  0.00    +0.000 A 
ENDROOT
BRANCH   9  12
ATOM     12  N   UNL     1      -2.439  12.896  23.158  0.00  0.00    +0.000 N 
ATOM     13  C   UNL     1      -3.631  12.627  23.982  0.00  0.00    +0.000 C 
ATOM     14  C   UNL     1      -4.900  13.141  23.291  0.00  0.00    +0.000 C 
ATOM     15  O   UNL     1      -4.790  14.532  22.944  0.00  0.00    +0.000 OA
ATOM     16  C   UNL     1      -3.667  14.741  22.074  0.00  0.00    +0.000 C 
ATOM     17  C   UNL     1      -2.351  14.311  22.741  0.00  0.00    +0.000 C 
ENDBRANCH   9  12
BRANCH   3  18
ATOM     18  C   UNL     1       2.031   8.477  18.420  0.00  0.00    +0.000 C 
ATOM     19  O   UNL     1       2.395   8.936  17.334  0.00  0.00    +0.000 OA
ATOM     20  N   UNL     1       2.442   7.204  18.841  0.00  0.00    +0.000 N 
ATOM     21  C   UNL     1       2.191   6.536  20.111  0.00  0.00    +0.000 C 
ATOM     22  C   UNL     1       3.296   6.443  17.933  0.00  0.00    +0.000 C 
ENDBRANCH   3  18
BRANCH   1  23
ATOM     23  C   UNL     1      -1.180  12.368  18.413  0.00  0.00    +0.000 C 
ATOM     24  C   UNL     1      -0.341  13.659  18.358  0.00  0.00    +0.000 C 
BRANCH  23  25
ATOM     25  N   UNL     1      -2.465  12.705  19.030  0.00  0.00    +0.000 N 
ATOM     26  H   UNL     1      -2.364  12.960  20.006  0.00  0.00    +0.000 HD
BRANCH  25  32
ATOM     27  C   UNL     1      -3.966  11.308  17.577  0.00  0.00    +0.000 A 
ATOM     28  C   UNL     1      -5.252  10.769  17.397  0.00  0.00    +0.000 A 
ATOM     29  C   UNL     1      -6.262  10.979  18.336  0.00  0.00    +0.000 A 
ATOM     30  C   UNL     1      -5.993  11.726  19.479  0.00  0.00    +0.000 A 
ATOM     31  C   UNL     1      -4.718  12.263  19.666  0.00  0.00    +0.000 A 
ATOM     32  C   UNL     1      -3.673  12.059  18.740  0.00  0.00    +0.000 A 
BRANCH  27  34
ATOM     33  C   UNL     1      -3.374  10.902  15.306  0.00  0.00    +0.000 C 
ATOM     34  O   UNL     1      -2.966  11.118  16.654  0.00  0.00    +0.000 OA
ENDBRANCH  27  34
BRANCH  30  35
ATOM     35  C   UNL     1      -7.017  11.937  20.460  0.00  0.00    +0.000 C 
ATOM     36  N   UNL     1      -7.839  12.121  21.250  0.00  0.00    +0.000 NA
ENDBRANCH  30  35
ENDBRANCH  25  32
ENDBRANCH  23  25
ENDBRANCH   1  23
TORSDOF 7
ENDMDL
MODEL 2
REMARK VINA RESULT:      -7.4      1.420      2.570
REMARK  Name = 
REMARK  11 active torsions:
REMARK  status: ('A' for Active; 'I' for Inactive)
REMARK    1  A    between atoms: C_1  and  O_2
REMARK    2  A    between atoms: O_2  and  C_3
REMARK    3  A    between atoms: C_6  and  C_7
REMARK    4  A    between atoms: C_10  and  N_11
REMARK    5  A    between atoms: N_11  and  C_12
REMARK    6  A    between atoms: C_12  and  C_13
REMARK    7  A    between atoms: C_12  and  C_14
REMARK    8  A    between atoms: C_16  and  C_17
REMARK    9  A    between atoms: N_19  and  C_20
REMARK   10  A    between atoms: N_19  and  C_21
REMARK   11  A    between atoms: C_27  and  N_28
REMARK                            x       y       z     vdW  Elec       q    Type
REMARK                         _______ _______ _______ _____ _____    ______ ____
ROOT
ATOM      1  C   UNL     1       0.175  11.370  19.248  0.00  0.00    +0.000 A 
ATOM      2  C   UNL     1       1.009  10.429  18.598  0.00  0.00    +0.000 A 
ATOM      3  C   UNL     1       1.391   9.207  19.194  0.00  0.00    +0.000 A 
ATOM      4  C   UNL     1       0.875   8.904  20.448  0.00  0.00    +0.000 A 
ATOM      5  C   UNL     1       0.103   9.853  21.131  0.00  0.00    +0.000 A 
ATOM      6  C   UNL     1      -0.362   9.568  22.490  0.00  0.00    +0.000 A 
ATOM      7  O   UNL     1      -0.134   8.499  23.043  0.00  0.00    +0.000 OA
ATOM      8  C   UNL     1      -1.077  10.642  23.179  0.00  0.00    +0.000 A 
ATOM      9  C   UNL     1      -1.379  11.782  22.537  0.00  0.00    +0.000 A 
ATOM     10  O   UNL     1      -1.057  11.982  21.199  0.00  0.00    +0.000 OA
ATOM     11  C   UNL     1      -0.251  11.072  20.552  0.00  0.00    +0.000 A 
ENDROOT
BRANCH   9  12
ATOM     12  N   UNL     1      -2.047  12.827  23.168  0.00  0.00    +0.000 N 
ATOM     13  C   UNL     1      -3.281  12.644  23.954  0.00  0.00    +0.000 C 
ATOM     14  C   UNL     1      -4.471  13.329  23.270  0.00  0.00    +0.000 C 
ATOM     15  O   UNL     1      -4.204  14.717  23.006  0.00  0.00    +0.000 OA
ATOM     16  C   UNL     1      -3.044  14.851  22.170  0.00  0.00    +0.000 C 
ATOM     17  C   UNL     1      -1.798  14.245  22.835  0.00  0.00    +0.000 C 
ENDBRANCH   9  12
BRANCH   3  18
ATOM     18  C   UNL     1       2.206   8.266  18.366  0.00  0.00    +0.000 C 
ATOM     19  O   UNL     1       2.577   8.713  17.277  0.00  0.00    +0.000 OA
ATOM     20  N   UNL     1       2.556   6.970  18.774  0.00  0.00    +0.000 N 
ATOM     21  C   UNL     1       2.289   6.308  20.043  0.00  0.00    +0.000 C 
ATOM     22  C   UNL     1       3.356   6.171  17.849  0.00  0.00    +0.000 C 
ENDBRANCH   3  18
BRANCH   1  23
ATOM     23  C   UNL     1      -0.374  12.598  18.529  0.00  0.00    +0.000 C 
ATOM     24  C   UNL     1       0.365  13.832  19.081  0.00  0.00    +0.000 C 
BRANCH  23  25
ATOM     25  N   UNL     1      -1.807  12.813  18.740  0.00  0.00    +0.000 N 
ATOM     26  H   UNL     1      -2.022  13.026  19.709  0.00  0.00    +0.000 HD
BRANCH  25  32
ATOM     27  C   UNL     1      -4.105  11.807  18.593  0.00  0.00    +0.000 A 
ATOM     28  C   UNL     1      -4.994  11.020  17.838  0.00  0.00    +0.000 A 
ATOM     29  C   UNL     1      -4.623  10.497  16.599  0.00  0.00    +0.000 A 
ATOM     30  C   UNL     1      -3.355  10.765  16.092  0.00  0.00    +0.000 A 
ATOM     31  C   UNL     1      -2.468  11.546  16.834  0.00  0.00    +0.000 A 
ATOM     32  C   UNL     1      -2.817  12.099  18.085  0.00  0.00    +0.000 A 
BRANCH  27  34
ATOM     33  C   UNL     1      -5.511  13.274  19.834  0.00  0.00    +0.000 C 
ATOM     34  O   UNL     1      -4.454  12.319  19.819  0.00  0.00    +0.000 OA
ENDBRANCH  27  34
BRANCH  30  35
ATOM     35  C   UNL     1      -2.966  10.246  14.814  0.00  0.00    +0.000 C 
ATOM     36  N   UNL     1      -2.643   9.821  13.789  0.00  0.00    +0.000 NA
ENDBRANCH  30  35
ENDBRANCH  25  32
ENDBRANCH  23  25
ENDBRANCH   1  23
TORSDOF 7
ENDMDL
MODEL 3
REMARK VINA RESULT:      -7.4      2.088      4.689
REMARK  Name = 
REMARK  11 active torsions:
REMARK  status: ('A' for Active; 'I' for Inactive)
REMARK    1  A    between atoms: C_1  and  O_2
REMARK    2  A    between atoms: O_2  and  C_3
REMARK    3  A    between atoms: C_6  and  C_7
REMARK    4  A    between atoms: C_10  and  N_11
REMARK    5  A    between atoms: N_11  and  C_12
REMARK    6  A    between atoms: C_12  and  C_13
REMARK    7  A    between atoms: C_12  and  C_14
REMARK    8  A    between atoms: C_16  and  C_17
REMARK    9  A    between atoms: N_19  and  C_20
REMARK   10  A    between atoms: N_19  and  C_21
REMARK   11  A    between atoms: C_27  and  N_28
REMARK                            x       y       z     vdW  Elec       q    Type
REMARK                         _______ _______ _______ _____ _____    ______ ____
ROOT
ATOM      1  C   UNL     1      -0.583  11.301  19.210  0.00  0.00    +0.000 A 
ATOM      2  C   UNL     1       0.363  10.460  18.577  0.00  0.00    +0.000 A 
ATOM      3  C   UNL     1       1.060   9.441  19.264  0.00  0.00    +0.000 A 
ATOM      4  C   UNL     1       0.754   9.231  20.602  0.00  0.00    +0.000 A 
ATOM      5  C   UNL     1      -0.130  10.098  21.259  0.00  0.00    +0.000 A 
ATOM      6  C   UNL     1      -0.379   9.930  22.692  0.00  0.00    +0.000 A 
ATOM      7  O   UNL     1       0.131   9.023  23.338  0.00  0.00    +0.000 OA
ATOM      8  C   UNL     1      -1.234  10.930  23.332  0.00  0.00    +0.000 A 
ATOM      9  C   UNL     1      -1.839  11.878  22.599  0.00  0.00    +0.000 A 
ATOM     10  O   UNL     1      -1.709  11.938  21.217  0.00  0.00    +0.000 OA
ATOM     11  C   UNL     1      -0.796  11.121  20.586  0.00  0.00    +0.000 A 
ENDROOT
BRANCH   9  12
ATOM     12  N   UNL     1      -2.649  12.850  23.180  0.00  0.00    +0.000 N 
ATOM     13  C   UNL     1      -3.784  12.537  24.067  0.00  0.00    +0.000 C 
ATOM     14  C   UNL     1      -5.114  12.933  23.412  0.00  0.00    +0.000 C 
ATOM     15  O   UNL     1      -5.116  14.311  23.003  0.00  0.00    +0.000 OA
ATOM     16  C   UNL     1      -4.047  14.558  22.077  0.00  0.00    +0.000 C 
ATOM     17  C   UNL     1      -2.678  14.249  22.702  0.00  0.00    +0.000 C 
ENDBRANCH   9  12
BRANCH   3  18
ATOM     18  C   UNL     1       1.969   8.570  18.457  0.00  0.00    +0.000 C 
ATOM     19  O   UNL     1       2.336   9.049  17.381  0.00  0.00    +0.000 OA
ATOM     20  N   UNL     1       2.406   7.303  18.872  0.00  0.00    +0.000 N 
ATOM     21  C   UNL     1       2.155   6.617  20.132  0.00  0.00    +0.000 C 
ATOM     22  C   UNL     1       3.291   6.573  17.969  0.00  0.00    +0.000 C 
ENDBRANCH   3  18
BRANCH   1  23
ATOM     23  C   UNL     1      -1.456  12.274  18.424  0.00  0.00    +0.000 C 
ATOM     24  C   UNL     1      -2.133  11.482  17.289  0.00  0.00    +0.000 C 
BRANCH  23  25
ATOM     25  N   UNL     1      -0.707  13.371  17.807  0.00  0.00    +0.000 N 
ATOM     26  H   UNL     1      -0.437  13.160  16.852  0.00  0.00    +0.000 HD
BRANCH  25  32
ATOM     27  C   UNL     1      -0.085  15.193  19.423  0.00  0.00    +0.000 A 
ATOM     28  C   UNL     1       0.953  15.963  19.977  0.00  0.00    +0.000 A 
ATOM     29  C   UNL     1       2.282  15.762  19.604  0.00  0.00    +0.000 A 
ATOM     30  C   UNL     1       2.592  14.774  18.674  0.00  0.00    +0.000 A 
ATOM     31  C   UNL     1       1.569  14.003  18.121  0.00  0.00    +0.000 A 
ATOM     32  C   UNL     1       0.216  14.175  18.486  0.00  0.00    +0.000 A 
BRANCH  27  34
ATOM     33  C   UNL     1      -1.797  16.732  20.031  0.00  0.00    +0.000 C 
ATOM     34  O   UNL     1      -1.399  15.388  19.773  0.00  0.00    +0.000 OA
ENDBRANCH  27  34
BRANCH  30  35
ATOM     35  C   UNL     1       3.955  14.546  18.293  0.00  0.00    +0.000 C 
ATOM     36  N   UNL     1       5.050  14.351  17.979  0.00  0.00    +0.000 NA
ENDBRANCH  30  35
ENDBRANCH  25  32
ENDBRANCH  23  25
ENDBRANCH   1  23
TORSDOF 7
ENDMDL
MODEL 4
REMARK VINA RESULT:      -7.3      1.977      3.735
REMARK  Name = 
REMARK  11 active torsions:
REMARK  status: ('A' for Active; 'I' for Inactive)
REMARK    1  A    between atoms: C_1  and  O_2
REMARK    2  A    between atoms: O_2  and  C_3
REMARK    3  A    between atoms: C_6  and  C_7
REMARK    4  A    between atoms: C_10  and  N_11
REMARK    5  A    between atoms: N_11  and  C_12
REMARK    6  A    between atoms: C_12  and  C_13
REMARK    7  A    between atoms: C_12  and  C_14
REMARK    8  A    between atoms: C_16  and  C_17
REMARK    9  A    between atoms: N_19  and  C_20
REMARK   10  A    between atoms: N_19  and  C_21
REMARK   11  A    between atoms: C_27  and  N_28
REMARK                            x       y       z     vdW  Elec       q    Type
REMARK                         _______ _______ _______ _____ _____    ______ ____
ROOT
ATOM      1  C   UNL     1      -0.673  11.028  19.032  0.00  0.00    +0.000 A 
ATOM      2  C   UNL     1       0.319  10.196  18.459  0.00  0.00    +0.000 A 
ATOM      3  C   UNL     1       1.089   9.290  19.221  0.00  0.00    +0.000 A 
ATOM      4  C   UNL     1       0.812   9.180  20.578  0.00  0.00    +0.000 A 
ATOM      5  C   UNL     1      -0.120  10.043  21.170  0.00  0.00    +0.000 A 
ATOM      6  C   UNL     1      -0.342   9.987  22.617  0.00  0.00    +0.000 A 
ATOM      7  O   UNL     1       0.233   9.175  23.332  0.00  0.00    +0.000 OA
ATOM      8  C   UNL     1      -1.253  10.984  23.180  0.00  0.00    +0.000 A 
ATOM      9  C   UNL     1      -1.928  11.822  22.377  0.00  0.00    +0.000 A 
ATOM     10  O   UNL     1      -1.816  11.766  20.993  0.00  0.00    +0.000 OA
ATOM     11  C   UNL     1      -0.859  10.957  20.421  0.00  0.00    +0.000 A 
ENDROOT
BRANCH   9  12
ATOM     12  N   UNL     1      -2.793  12.787  22.884  0.00  0.00    +0.000 N 
ATOM     13  C   UNL     1      -3.122  12.912  24.316  0.00  0.00    +0.000 C 
ATOM     14  C   UNL     1      -4.597  12.577  24.568  0.00  0.00    +0.000 C 
ATOM     15  O   UNL     1      -5.471  13.369  23.746  0.00  0.00    +0.000 OA
ATOM     16  C   UNL     1      -5.174  13.158  22.356  0.00  0.00    +0.000 C 
ATOM     17  C   UNL     1      -3.726  13.547  22.025  0.00  0.00    +0.000 C 
ENDBRANCH   9  12
BRANCH   3  18
ATOM     18  C   UNL     1       2.044   8.410  18.480  0.00  0.00    +0.000 C 
ATOM     19  O   UNL     1       2.481   8.882  17.427  0.00  0.00    +0.000 OA
ATOM     20  N   UNL     1       2.448   7.144  18.928  0.00  0.00    +0.000 N 
ATOM     21  C   UNL     1       2.114   6.466  20.173  0.00  0.00    +0.000 C 
ATOM     22  C   UNL     1       3.387   6.405  18.088  0.00  0.00    +0.000 C 
ENDBRANCH   3  18
BRANCH   1  23
ATOM     23  C   UNL     1      -1.616  11.869  18.177  0.00  0.00    +0.000 C 
ATOM     24  C   UNL     1      -1.935  11.064  16.903  0.00  0.00    +0.000 C 
BRANCH  23  25
ATOM     25  N   UNL     1      -1.045  13.150  17.756  0.00  0.00    +0.000 N 
ATOM     26  H   UNL     1      -0.696  13.117  16.804  0.00  0.00    +0.000 HD
BRANCH  25  32
ATOM     27  C   UNL     1       1.094  14.126  18.642  0.00  0.00    +0.000 A 
ATOM     28  C   UNL     1       1.689  14.982  19.587  0.00  0.00    +0.000 A 
ATOM     29  C   UNL     1       0.916  15.698  20.501  0.00  0.00    +0.000 A 
ATOM     30  C   UNL     1      -0.470  15.576  20.474  0.00  0.00    +0.000 A 
ATOM     31  C   UNL     1      -1.068  14.730  19.539  0.00  0.00    +0.000 A 
ATOM     32  C   UNL     1      -0.315  14.001  18.594  0.00  0.00    +0.000 A 
BRANCH  27  34
ATOM     33  C   UNL     1       2.996  12.746  18.260  0.00  0.00    +0.000 C 
ATOM     34  O   UNL     1       1.844  13.406  17.744  0.00  0.00    +0.000 OA
ENDBRANCH  27  34
BRANCH  30  35
ATOM     35  C   UNL     1      -1.277  16.318  21.398  0.00  0.00    +0.000 C 
ATOM     36  N   UNL     1      -1.938  16.913  22.135  0.00  0.00    +0.000 NA
ENDBRANCH  30  35
ENDBRANCH  25  32
ENDBRANCH  23  25
ENDBRANCH   1  23
TORSDOF 7
ENDMDL
MODEL 5
REMARK VINA RESULT:      -7.2      1.607      2.890
REMARK  Name = 
REMARK  11 active torsions:
REMARK  status: ('A' for Active; 'I' for Inactive)
REMARK    1  A    between atoms: C_1  and  O_2
REMARK    2  A    between atoms: O_2  and  C_3
REMARK    3  A    between atoms: C_6  and  C_7
REMARK    4  A    between atoms: C_10  and  N_11
REMARK    5  A    between atoms: N_11  and  C_12
REMARK    6  A    between atoms: C_12  and  C_13
REMARK    7  A    between atoms: C_12  and  C_14
REMARK    8  A    between atoms: C_16  and  C_17
REMARK    9  A    between atoms: N_19  and  C_20
REMARK   10  A    between atoms: N_19  and  C_21
REMARK   11  A    between atoms: C_27  and  N_28
REMARK                            x       y       z     vdW  Elec       q    Type
REMARK                         _______ _______ _______ _____ _____    ______ ____
ROOT
ATOM      1  C   UNL     1       0.357  11.405  19.158  0.00  0.00    +0.000 A 
ATOM      2  C   UNL     1       1.136  10.322  18.684  0.00  0.00    +0.000 A 
ATOM      3  C   UNL     1       1.390   9.168  19.457  0.00  0.00    +0.000 A 
ATOM      4  C   UNL     1       0.799   9.081  20.712  0.00  0.00    +0.000 A 
ATOM      5  C   UNL     1       0.082  10.172  21.220  0.00  0.00    +0.000 A 
ATOM      6  C   UNL     1      -0.461  10.112  22.579  0.00  0.00    +0.000 A 
ATOM      7  O   UNL     1      -0.346   9.115  23.282  0.00  0.00    +0.000 OA
ATOM      8  C   UNL     1      -1.111  11.324  23.080  0.00  0.00    +0.000 A 
ATOM      9  C   UNL     1      -1.289  12.384  22.277  0.00  0.00    +0.000 A 
ATOM     10  O   UNL     1      -0.898  12.373  20.943  0.00  0.00    +0.000 OA
ATOM     11  C   UNL     1      -0.144  11.323  20.466  0.00  0.00    +0.000 A 
ENDROOT
BRANCH   9  12
ATOM     12  N   UNL     1      -1.894  13.554  22.727  0.00  0.00    +0.000 N 
ATOM     13  C   UNL     1      -1.138  14.713  23.237  0.00  0.00    +0.000 C 
ATOM     14  C   UNL     1      -1.404  14.923  24.733  0.00  0.00    +0.000 C 
ATOM     15  O   UNL     1      -2.810  15.034  25.013  0.00  0.00    +0.000 OA
ATOM     16  C   UNL     1      -3.499  13.852  24.577  0.00  0.00    +0.000 C 
ATOM     17  C   UNL     1      -3.330  13.627  23.066  0.00  0.00    +0.000 C 
ENDBRANCH   9  12
BRANCH   3  18
ATOM     18  C   UNL     1       2.156   8.062  18.806  0.00  0.00    +0.000 C 
ATOM     19  O   UNL     1       2.696   8.357  17.736  0.00  0.00    +0.000 OA
ATOM     20  N   UNL     1       2.287   6.776  19.351  0.00  0.00    +0.000 N 
ATOM     21  C   UNL     1       1.803   6.272  20.629  0.00  0.00    +0.000 C 
ATOM     22  C   UNL     1       3.068   5.804  18.591  0.00  0.00    +0.000 C 
ENDBRANCH   3  18
BRANCH   1  23
ATOM     23  C   UNL     1      -0.057  12.561  18.253  0.00  0.00    +0.000 C 
ATOM     24  C   UNL     1       0.714  13.814  18.713  0.00  0.00    +0.000 C 
BRANCH  23  25
ATOM     25  N   UNL     1      -1.486  12.877  18.317  0.00  0.00    +0.000 N 
ATOM     26  H   UNL     1      -1.735  13.343  19.184  0.00  0.00    +0.000 HD
BRANCH  25  32
ATOM     27  C   UNL     1      -3.669  11.646  18.493  0.00  0.00    +0.000 A 
ATOM     28  C   UNL     1      -4.569  10.761  17.873  0.00  0.00    +0.000 A 
ATOM     29  C   UNL     1      -4.319  10.252  16.598  0.00  0.00    +0.000 A 
ATOM     30  C   UNL     1      -3.165  10.633  15.920  0.00  0.00    +0.000 A 
ATOM     31  C   UNL     1      -2.268  11.513  16.528  0.00  0.00    +0.000 A 
ATOM     32  C   UNL     1      -2.498  12.054  17.811  0.00  0.00    +0.000 A 
BRANCH  27  34
ATOM     33  C   UNL     1      -5.211  12.631  20.017  0.00  0.00    +0.000 C 
ATOM     34  O   UNL     1      -3.898  12.146  19.753  0.00  0.00    +0.000 OA
ENDBRANCH  27  34
BRANCH  30  35
ATOM     35  C   UNL     1      -2.904  10.130  14.604  0.00  0.00    +0.000 C 
ATOM     36  N   UNL     1      -2.683   9.717  13.547  0.00  0.00    +0.000 NA
ENDBRANCH  30  35
ENDBRANCH  25  32
ENDBRANCH  23  25
ENDBRANCH   1  23
TORSDOF 7
ENDMDL
MODEL 6
REMARK VINA RESULT:      -7.2      2.038      4.810
REMARK  Name = 
REMARK  11 active torsions:
REMARK  status: ('A' for Active; 'I' for Inactive)
REMARK    1  A    between atoms: C_1  and  O_2
REMARK    2  A    between atoms: O_2  and  C_3
REMARK    3  A    between atoms: C_6  and  C_7
REMARK    4  A    between atoms: C_10  and  N_11
REMARK    5  A    between atoms: N_11  and  C_12
REMARK    6  A    between atoms: C_12  and  C_13
REMARK    7  A    between atoms: C_12  and  C_14
REMARK    8  A    between atoms: C_16  and  C_17
REMARK    9  A    between atoms: N_19  and  C_20
REMARK   10  A    between atoms: N_19  and  C_21
REMARK   11  A    between atoms: C_27  and  N_28
REMARK                            x       y       z     vdW  Elec       q    Type
REMARK                         _______ _______ _______ _____ _____    ______ ____
ROOT
ATOM      1  C   UNL     1      -0.742  11.768  19.797  0.00  0.00    +0.000 A 
ATOM      2  C   UNL     1       0.365  10.952  19.461  0.00  0.00    +0.000 A 
ATOM      3  C   UNL     1       0.290   9.921  18.498  0.00  0.00    +0.000 A 
ATOM      4  C   UNL     1      -0.911   9.748  17.822  0.00  0.00    +0.000 A 
ATOM      5  C   UNL     1      -2.032  10.502  18.191  0.00  0.00    +0.000 A 
ATOM      6  C   UNL     1      -3.320  10.253  17.539  0.00  0.00    +0.000 A 
ATOM      7  O   UNL     1      -3.445   9.427  16.642  0.00  0.00    +0.000 OA
ATOM      8  C   UNL     1      -4.469  11.006  18.043  0.00  0.00    +0.000 A 
ATOM      9  C   UNL     1      -4.304  11.955  18.978  0.00  0.00    +0.000 A 
ATOM     10  O   UNL     1      -3.051  12.283  19.484  0.00  0.00    +0.000 OA
ATOM     11  C   UNL     1      -1.964  11.501  19.161  0.00  0.00    +0.000 A 
ENDROOT
BRANCH   9  12
ATOM     12  N   UNL     1      -5.378  12.681  19.485  0.00  0.00    +0.000 N 
ATOM     13  C   UNL     1      -6.286  13.483  18.645  0.00  0.00    +0.000 C 
ATOM     14  C   UNL     1      -6.135  14.978  18.952  0.00  0.00    +0.000 C 
ATOM     15  O   UNL     1      -6.317  15.254  20.351  0.00  0.00    +0.000 OA
ATOM     16  C   UNL     1      -5.361  14.518  21.132  0.00  0.00    +0.000 C 
ATOM     17  C   UNL     1      -5.511  13.003  20.922  0.00  0.00    +0.000 C 
ENDBRANCH   9  12
BRANCH   3  18
ATOM     18  C   UNL     1       1.554   9.190  18.177  0.00  0.00    +0.000 C 
ATOM     19  O   UNL     1       2.150   9.590  17.174  0.00  0.00    +0.000 OA
ATOM     20  N   UNL     1       2.063   8.135  18.949  0.00  0.00    +0.000 N 
ATOM     21  C   UNL     1       1.554   7.589  20.200  0.00  0.00    +0.000 C 
ATOM     22  C   UNL     1       3.310   7.521  18.502  0.00  0.00    +0.000 C 
ENDBRANCH   3  18
BRANCH   1  23
ATOM     23  C   UNL     1      -0.603  12.987  20.703  0.00  0.00    +0.000 C 
ATOM     24  C   UNL     1       0.773  13.622  20.424  0.00  0.00    +0.000 C 
BRANCH  23  25
ATOM     25  N   UNL     1      -0.659  12.670  22.132  0.00  0.00    +0.000 N 
ATOM     26  H   UNL     1      -0.549  11.676  22.306  0.00  0.00    +0.000 HD
BRANCH  25  32
ATOM     27  C   UNL     1      -1.190  14.468  23.804  0.00  0.00    +0.000 A 
ATOM     28  C   UNL     1      -2.117  14.963  24.739  0.00  0.00    +0.000 A 
ATOM     29  C   UNL     1      -3.335  14.320  24.959  0.00  0.00    +0.000 A 
ATOM     30  C   UNL     1      -3.648  13.174  24.234  0.00  0.00    +0.000 A 
ATOM     31  C   UNL     1      -2.734  12.678  23.303  0.00  0.00    +0.000 A 
ATOM     32  C   UNL     1      -1.499  13.312  23.050  0.00  0.00    +0.000 A 
BRANCH  27  34
ATOM     33  C   UNL     1      -0.025  16.378  22.988  0.00  0.00    +0.000 C 
ATOM     34  O   UNL     1       0.018  15.086  23.586  0.00  0.00    +0.000 OA
ENDBRANCH  27  34
BRANCH  30  35
ATOM     35  C   UNL     1      -4.902  12.512  24.439  0.00  0.00    +0.000 C 
ATOM     36  N   UNL     1      -5.919  11.989  24.611  0.00  0.00    +0.000 NA
ENDBRANCH  30  35
ENDBRANCH  25  32
ENDBRANCH  23  25
ENDBRANCH   1  23
TORSDOF 7
ENDMDL
MODEL 7
REMARK VINA RESULT:      -7.1      0.748      1.163
REMARK  Name = 
REMARK  11 active torsions:
REMARK  status: ('A' for Active; 'I' for Inactive)
REMARK    1  A    between atoms: C_1  and  O_2
REMARK    2  A    between atoms: O_2  and  C_3
REMARK    3  A    between atoms: C_6  and  C_7
REMARK    4  A    between atoms: C_10  and  N_11
REMARK    5  A    between atoms: N_11  and  C_12
REMARK    6  A    between atoms: C_12  and  C_13
REMARK    7  A    between atoms: C_12  and  C_14
REMARK    8  A    between atoms: C_16  and  C_17
REMARK    9  A    between atoms: N_19  and  C_20
REMARK   10  A    between atoms: N_19  and  C_21
REMARK   11  A    between atoms: C_27  and  N_28
REMARK                            x       y       z     vdW  Elec       q    Type
REMARK                         _______ _______ _______ _____ _____    ______ ____
ROOT
ATOM      1  C   UNL     1      -0.183  11.325  19.078  0.00  0.00    +0.000 A 
ATOM      2  C   UNL     1       0.687  10.352  18.530  0.00  0.00    +0.000 A 
ATOM      3  C   UNL     1       1.217   9.287  19.292  0.00  0.00    +0.000 A 
ATOM      4  C   UNL     1       0.818   9.171  20.617  0.00  0.00    +0.000 A 
ATOM      5  C   UNL     1       0.012  10.163  21.190  0.00  0.00    +0.000 A 
ATOM      6  C   UNL     1      -0.332  10.086  22.612  0.00  0.00    +0.000 A 
ATOM      7  O   UNL     1       0.029   9.152  23.318  0.00  0.00    +0.000 OA
ATOM      8  C   UNL     1      -1.092  11.207  23.166  0.00  0.00    +0.000 A 
ATOM      9  C   UNL     1      -1.538  12.189  22.367  0.00  0.00    +0.000 A 
ATOM     10  O   UNL     1      -1.328  12.175  20.993  0.00  0.00    +0.000 OA
ATOM     11  C   UNL     1      -0.489  11.230  20.445  0.00  0.00    +0.000 A 
ENDROOT
BRANCH   9  12
ATOM     12  N   UNL     1      -2.253  13.274  22.865  0.00  0.00    +0.000 N 
ATOM     13  C   UNL     1      -1.619  14.529  23.310  0.00  0.00    +0.000 C 
ATOM     14  C   UNL     1      -1.787  14.719  24.824  0.00  0.00    +0.000 C 
ATOM     15  O   UNL     1      -3.168  14.646  25.218  0.00  0.00    +0.000 OA
ATOM     16  C   UNL     1      -3.727  13.378  24.841  0.00  0.00    +0.000 C 
ATOM     17  C   UNL     1      -3.654  13.160  23.322  0.00  0.00    +0.000 C 
ENDBRANCH   9  12
BRANCH   3  18
ATOM     18  C   UNL     1       2.055   8.280  18.570  0.00  0.00    +0.000 C 
ATOM     19  O   UNL     1       2.490   8.648  17.476  0.00  0.00    +0.000 OA
ATOM     20  N   UNL     1       2.359   7.009  19.079  0.00  0.00    +0.000 N 
ATOM     21  C   UNL     1       2.015   6.437  20.374  0.00  0.00    +0.000 C 
ATOM     22  C   UNL     1       3.189   6.138  18.252  0.00  0.00    +0.000 C 
ENDBRANCH   3  18
BRANCH   1  23
ATOM     23  C   UNL     1      -0.888  12.362  18.209  0.00  0.00    +0.000 C 
ATOM     24  C   UNL     1       0.001  13.619  18.167  0.00  0.00    +0.000 C 
BRANCH  23  25
ATOM     25  N   UNL     1      -2.199  12.767  18.722  0.00  0.00    +0.000 N 
ATOM     26  H   UNL     1      -2.136  13.174  19.650  0.00  0.00    +0.000 HD
BRANCH  25  32
ATOM     27  C   UNL     1      -3.741  11.367  17.316  0.00  0.00    +0.000 A 
ATOM     28  C   UNL     1      -5.003  10.755  17.216  0.00  0.00    +0.000 A 
ATOM     29  C   UNL     1      -5.931  10.837  18.255  0.00  0.00    +0.000 A 
ATOM     30  C   UNL     1      -5.602  11.526  19.418  0.00  0.00    +0.000 A 
ATOM     31  C   UNL     1      -4.350  12.135  19.526  0.00  0.00    +0.000 A 
ATOM     32  C   UNL     1      -3.386  12.061  18.498  0.00  0.00    +0.000 A 
BRANCH  27  34
ATOM     33  C   UNL     1      -3.234  10.635  15.108  0.00  0.00    +0.000 C 
ATOM     34  O   UNL     1      -2.822  11.304  16.297  0.00  0.00    +0.000 OA
ENDBRANCH  27  34
BRANCH  30  35
ATOM     35  C   UNL     1      -6.540  11.605  20.499  0.00  0.00    +0.000 C 
ATOM     36  N   UNL     1      -7.302  11.656  21.365  0.00  0.00    +0.000 NA
ENDBRANCH  30  35
ENDBRANCH  25  32
ENDBRANCH  23  25
ENDBRANCH   1  23
TORSDOF 7
ENDMDL
MODEL 8
REMARK VINA RESULT:      -6.9      2.268      5.611
REMARK  Name = 
REMARK  11 active torsions:
REMARK  status: ('A' for Active; 'I' for Inactive)
REMARK    1  A    between atoms: C_1  and  O_2
REMARK    2  A    between atoms: O_2  and  C_3
REMARK    3  A    between atoms: C_6  and  C_7
REMARK    4  A    between atoms: C_10  and  N_11
REMARK    5  A    between atoms: N_11  and  C_12
REMARK    6  A    between atoms: C_12  and  C_13
REMARK    7  A    between atoms: C_12  and  C_14
REMARK    8  A    between atoms: C_16  and  C_17
REMARK    9  A    between atoms: N_19  and  C_20
REMARK   10  A    between atoms: N_19  and  C_21
REMARK   11  A    between atoms: C_27  and  N_28
REMARK                            x       y       z     vdW  Elec       q    Type
REMARK                         _______ _______ _______ _____ _____    ______ ____
ROOT
ATOM      1  C   UNL     1      -0.040  10.666  20.314  0.00  0.00    +0.000 A 
ATOM      2  C   UNL     1       0.970   9.793  19.845  0.00  0.00    +0.000 A 
ATOM      3  C   UNL     1       0.943   9.218  18.555  0.00  0.00    +0.000 A 
ATOM      4  C   UNL     1      -0.094   9.577  17.703  0.00  0.00    +0.000 A 
ATOM      5  C   UNL     1      -1.135  10.387  18.176  0.00  0.00    +0.000 A 
ATOM      6  C   UNL     1      -2.272  10.687  17.304  0.00  0.00    +0.000 A 
ATOM      7  O   UNL     1      -2.329  10.287  16.148  0.00  0.00    +0.000 OA
ATOM      8  C   UNL     1      -3.369  11.455  17.897  0.00  0.00    +0.000 A 
ATOM      9  C   UNL     1      -3.263  11.944  19.142  0.00  0.00    +0.000 A 
ATOM     10  O   UNL     1      -2.115  11.774  19.907  0.00  0.00    +0.000 OA
ATOM     11  C   UNL     1      -1.121  10.931  19.460  0.00  0.00    +0.000 A 
ENDROOT
BRANCH   9  12
ATOM     12  N   UNL     1      -4.293  12.668  19.737  0.00  0.00    +0.000 N 
ATOM     13  C   UNL     1      -4.131  13.433  20.987  0.00  0.00    +0.000 C 
ATOM     14  C   UNL     1      -4.961  12.813  22.118  0.00  0.00    +0.000 C 
ATOM     15  O   UNL     1      -6.344  12.676  21.749  0.00  0.00    +0.000 OA
ATOM     16  C   UNL     1      -6.467  11.857  20.575  0.00  0.00    +0.000 C 
ATOM     17  C   UNL     1      -5.714  12.465  19.383  0.00  0.00    +0.000 C 
ENDBRANCH   9  12
BRANCH   3  18
ATOM     18  C   UNL     1       2.115   8.380  18.154  0.00  0.00    +0.000 C 
ATOM     19  O   UNL     1       2.728   8.778  17.160  0.00  0.00    +0.000 OA
ATOM     20  N   UNL     1       2.525   7.230  18.845  0.00  0.00    +0.000 N 
ATOM     21  C   UNL     1       1.988   6.663  20.075  0.00  0.00    +0.000 C 
ATOM     22  C   UNL     1       3.689   6.518  18.327  0.00  0.00    +0.000 C 
ENDBRANCH   3  18
BRANCH   1  23
ATOM     23  C   UNL     1       0.090  11.418  21.635  0.00  0.00    +0.000 C 
ATOM     24  C   UNL     1      -0.747  10.664  22.687  0.00  0.00    +0.000 C 
BRANCH  23  25
ATOM     25  N   UNL     1      -0.409  12.794  21.582  0.00  0.00    +0.000 N 
ATOM     26  H   UNL     1      -1.301  12.858  21.101  0.00  0.00    +0.000 HD
BRANCH  25  32
ATOM     27  C   UNL     1       0.489  15.034  22.282  0.00  0.00    +0.000 A 
ATOM     28  C   UNL     1       1.307  16.127  21.943  0.00  0.00    +0.000 A 
ATOM     29  C   UNL     1       2.023  16.149  20.746  0.00  0.00    +0.000 A 
ATOM     30  C   UNL     1       1.938  15.069  19.874  0.00  0.00    +0.000 A 
ATOM     31  C   UNL     1       1.130  13.979  20.203  0.00  0.00    +0.000 A 
ATOM     32  C   UNL     1       0.403  13.921  21.412  0.00  0.00    +0.000 A 
BRANCH  27  34
ATOM     33  C   UNL     1      -1.457  15.728  23.466  0.00  0.00    +0.000 C 
ATOM     34  O   UNL     1      -0.230  15.003  23.453  0.00  0.00    +0.000 OA
ENDBRANCH  27  34
BRANCH  30  35
ATOM     35  C   UNL     1       2.681  15.073  18.648  0.00  0.00    +0.000 C 
ATOM     36  N   UNL     1       3.291  15.077  17.667  0.00  0.00    +0.000 NA
ENDBRANCH  30  35
ENDBRANCH  25  32
ENDBRANCH  23  25
ENDBRANCH   1  23
TORSDOF 7
ENDMDL
MODEL 9
REMARK VINA RESULT:      -6.9      2.890      7.642
REMARK  Name = 
REMARK  11 active torsions:
REMARK  status: ('A' for Active; 'I' for Inactive)
REMARK    1  A    between atoms: C_1  and  O_2
REMARK    2  A    between atoms: O_2  and  C_3
REMARK    3  A    between atoms: C_6  and  C_7
REMARK    4  A    between atoms: C_10  and  N_11
REMARK    5  A    between atoms: N_11  and  C_12
REMARK    6  A    between atoms: C_12  and  C_13
REMARK    7  A    between atoms: C_12  and  C_14
REMARK    8  A    between atoms: C_16  and  C_17
REMARK    9  A    between atoms: N_19  and  C_20
REMARK   10  A    between atoms: N_19  and  C_21
REMARK   11  A    between atoms: C_27  and  N_28
REMARK                            x       y       z     vdW  Elec       q    Type
REMARK                         _______ _______ _______ _____ _____    ______ ____
ROOT
ATOM      1  C   UNL     1      -1.517  12.458  19.278  0.00  0.00    +0.000 A 
ATOM      2  C   UNL     1      -2.782  12.154  19.834  0.00  0.00    +0.000 A 
ATOM      3  C   UNL     1      -3.496  13.060  20.649  0.00  0.00    +0.000 A 
ATOM      4  C   UNL     1      -2.946  14.318  20.861  0.00  0.00    +0.000 A 
ATOM      5  C   UNL     1      -1.666  14.609  20.373  0.00  0.00    +0.000 A 
ATOM      6  C   UNL     1      -1.052  15.903  20.677  0.00  0.00    +0.000 A 
ATOM      7  O   UNL     1      -1.640  16.768  21.314  0.00  0.00    +0.000 OA
ATOM      8  C   UNL     1       0.325  16.100  20.221  0.00  0.00    +0.000 A 
ATOM      9  C   UNL     1       0.933  15.171  19.466  0.00  0.00    +0.000 A 
ATOM     10  O   UNL     1       0.285  14.009  19.063  0.00  0.00    +0.000 OA
ATOM     11  C   UNL     1      -0.950  13.703  19.591  0.00  0.00    +0.000 A 
ENDROOT
BRANCH   9  12
ATOM     12  N   UNL     1       2.245  15.324  19.027  0.00  0.00    +0.000 N 
ATOM     13  C   UNL     1       3.280  14.286  19.186  0.00  0.00    +0.000 C 
ATOM     14  C   UNL     1       4.374  14.750  20.157  0.00  0.00    +0.000 C 
ATOM     15  O   UNL     1       4.936  16.012  19.760  0.00  0.00    +0.000 OA
ATOM     16  C   UNL     1       3.911  17.016  19.696  0.00  0.00    +0.000 C 
ATOM     17  C   UNL     1       2.819  16.642  18.682  0.00  0.00    +0.000 C 
ENDBRANCH   9  12
BRANCH   3  18
ATOM     18  C   UNL     1      -4.860  12.646  21.102  0.00  0.00    +0.000 C 
ATOM     19  O   UNL     1      -4.942  12.321  22.289  0.00  0.00    +0.000 OA
ATOM     20  N   UNL     1      -5.988  12.633  20.269  0.00  0.00    +0.000 N 
ATOM     21  C   UNL     1      -6.105  13.062  18.881  0.00  0.00    +0.000 C 
ATOM     22  C   UNL     1      -7.251  12.200  20.860  0.00  0.00    +0.000 C 
ENDBRANCH   3  18
BRANCH   1  23
ATOM     23  C   UNL     1      -0.840  11.546  18.259  0.00  0.00    +0.000 C 
ATOM     24  C   UNL     1      -1.658  10.243  18.182  0.00  0.00    +0.000 C 
BRANCH  23  25
ATOM     25  N   UNL     1       0.534  11.183  18.614  0.00  0.00    +0.000 N 
ATOM     26  H   UNL     1       1.200  11.475  17.908  0.00  0.00    +0.000 HD
BRANCH  25  32
ATOM     27  C   UNL     1       0.644   9.680  20.625  0.00  0.00    +0.000 A 
ATOM     28  C   UNL     1       1.124   8.470  21.159  0.00  0.00    +0.000 A 
ATOM     29  C   UNL     1       1.865   7.580  20.381  0.00  0.00    +0.000 A 
ATOM     30  C   UNL     1       2.128   7.886  19.049  0.00  0.00    +0.000 A 
ATOM     31  C   UNL     1       1.654   9.083  18.511  0.00  0.00    +0.000 A 
ATOM     32  C   UNL     1       0.892   9.998  19.268  0.00  0.00    +0.000 A 
BRANCH  27  34
ATOM     33  C   UNL     1      -0.371  10.177  22.720  0.00  0.00    +0.000 C 
ATOM     34  O   UNL     1      -0.078  10.570  21.382  0.00  0.00    +0.000 OA
ENDBRANCH  27  34
BRANCH  30  35
ATOM     35  C   UNL     1       2.876   6.973  18.235  0.00  0.00    +0.000 C 
ATOM     36  N   UNL     1       3.467   6.236  17.571  0.00  0.00    +0.000 NA
ENDBRANCH  30  35
ENDBRANCH  25  32
ENDBRANCH  23  25
ENDBRANCH   1  23
TORSDOF 7
ENDMDL
