MODEL 1
REMARK VINA RESULT:      -8.5      0.000      0.000
REMARK  Name = 
REMARK  4 active torsions:
REMARK  status: ('A' for Active; 'I' for Inactive)
REMARK    1  A    between atoms: C_1  and  C_2
REMARK    2  A    between atoms: N_4  and  C_5
REMARK    3  A    between atoms: C_13  and  N_14
REMARK    4  A    between atoms: N_17  and  C_18
REMARK                            x       y       z     vdW  Elec       q    Type
REMARK                         _______ _______ _______ _____ _____    ______ ____
ROOT
ATOM      1  C   UNL     1       4.967   6.944  16.296  0.00  0.00    +0.000 C 
ATOM      2  C   UNL     1       3.952   6.803  17.366  0.00  0.00    +0.000 A 
ATOM      3  N   UNL     1       3.852   5.670  18.066  0.00  0.00    +0.000 NA
ATOM      4  N   UNL     1       2.772   5.858  18.873  0.00  0.00    +0.000 N 
ATOM      5  C   UNL     1       2.314   7.169  18.828  0.00  0.00    +0.000 A 
ATOM      6  C   UNL     1       1.390   7.886  19.611  0.00  0.00    +0.000 A 
ATOM      7  C   UNL     1       1.171   9.249  19.356  0.00  0.00    +0.000 A 
ATOM      8  C   UNL     1       1.855   9.838  18.285  0.00  0.00    +0.000 A 
ATOM      9  C   UNL     1       2.787   9.132  17.512  0.00  0.00    +0.000 A 
ATOM     10  C   UNL     1       3.043   7.786  17.819  0.00  0.00    +0.000 A 
ENDROOT
BRANCH   4  11
ATOM     11  C   UNL     1       2.266   4.775  19.642  0.00  0.00    +0.000 A 
ATOM     12  C   UNL     1       1.403   3.850  19.037  0.00  0.00    +0.000 A 
ATOM     13  C   UNL     1       0.909   2.772  19.774  0.00  0.00    +0.000 A 
ATOM     14  C   UNL     1       1.239   2.637  21.122  0.00  0.00    +0.000 A 
ATOM     15  C   UNL     1       2.069   3.574  21.737  0.00  0.00    +0.000 A 
ATOM     16  C   UNL     1       2.589   4.639  20.998  0.00  0.00    +0.000 A 
ENDBRANCH   4  11
BRANCH   7  17
ATOM     17  N   UNL     1       0.371  10.014  20.179  0.00  0.00    +0.000 N 
ATOM     18  C   UNL     1      -0.362   9.423  21.312  0.00  0.00    +0.000 C 
ATOM     19  C   UNL     1      -0.278  10.362  22.538  0.00  0.00    +0.000 C 
ATOM     20  N   UNL     1      -0.744  11.709  22.164  0.00  0.00    +0.000 N 
ATOM     21  C   UNL     1      -0.007  12.308  21.031  0.00  0.00    +0.000 C 
ATOM     22  C   UNL     1      -0.060  11.372  19.802  0.00  0.00    +0.000 C 
BRANCH  20  23
ATOM     23  C   UNL     1      -1.560  12.460  22.980  0.00  0.00    +0.000 A 
ATOM     24  C   UNL     1      -2.824  12.020  23.389  0.00  0.00    +0.000 A 
ATOM     25  C   UNL     1      -3.624  12.850  24.162  0.00  0.00    +0.000 A 
ATOM     26  N   UNL     1      -3.266  14.085  24.558  0.00  0.00    +0.000 NA
ATOM     27  C   UNL     1      -2.047  14.503  24.161  0.00  0.00    +0.000 A 
ATOM     28  C   UNL     1      -1.180  13.739  23.396  0.00  0.00    +0.000 A 
ENDBRANCH  20  23
ENDBRANCH   7  17
TORSDOF 3
ENDMDL
MODEL 2
REMARK VINA RESULT:      -8.3      0.292      1.302
REMARK  Name = 
REMARK  4 active torsions:
REMARK  status: ('A' for Active; 'I' for Inactive)
REMARK    1  A    between atoms: C_1  and  C_2
REMARK    2  A    between atoms: N_4  and  C_5
REMARK    3  A    between atoms: C_13  and  N_14
REMARK    4  A    between atoms: N_17  and  C_18
REMARK                            x       y       z     vdW  Elec       q    Type
REMARK                         _______ _______ _______ _____ _____    ______ ____
ROOT
ATOM      1  C   UNL     1       5.111   6.592  16.266  0.00  0.00    +0.000 C 
ATOM      2  C   UNL     1       4.081   6.521  17.328  0.00  0.00    +0.000 A 
ATOM      3  N   UNL     1       3.941   5.418  18.069  0.00  0.00    +0.000 NA
ATOM      4  N   UNL     1       2.858   5.668  18.856  0.00  0.00    +0.000 N 
ATOM      5  C   UNL     1       2.439   6.989  18.757  0.00  0.00    +0.000 A 
ATOM      6  C   UNL     1       1.529   7.762  19.502  0.00  0.00    +0.000 A 
ATOM      7  C   UNL     1       1.353   9.119  19.194  0.00  0.00    +0.000 A 
ATOM      8  C   UNL     1       2.064   9.648  18.110  0.00  0.00    +0.000 A 
ATOM      9  C   UNL     1       2.984   8.887  17.375  0.00  0.00    +0.000 A 
ATOM     10  C   UNL     1       3.197   7.547  17.735  0.00  0.00    +0.000 A 
ENDROOT
BRANCH   4  11
ATOM     11  C   UNL     1       2.312   4.630  19.659  0.00  0.00    +0.000 A 
ATOM     12  C   UNL     1       2.744   4.492  20.986  0.00  0.00    +0.000 A 
ATOM     13  C   UNL     1       2.207   3.488  21.792  0.00  0.00    +0.000 A 
ATOM     14  C   UNL     1       1.272   2.595  21.269  0.00  0.00    +0.000 A 
ATOM     15  C   UNL     1       0.866   2.707  19.940  0.00  0.00    +0.000 A 
ATOM     16  C   UNL     1       1.378   3.727  19.135  0.00  0.00    +0.000 A 
ENDBRANCH   4  11
BRANCH   7  17
ATOM     17  N   UNL     1       0.566   9.937  19.978  0.00  0.00    +0.000 N 
ATOM     18  C   UNL     1      -0.306   9.393  21.033  0.00  0.00    +0.000 C 
ATOM     19  C   UNL     1      -0.229  10.287  22.292  0.00  0.00    +0.000 C 
ATOM     20  N   UNL     1      -0.534  11.682  21.928  0.00  0.00    +0.000 N 
ATOM     21  C   UNL     1       0.343  12.236  20.874  0.00  0.00    +0.000 C 
ATOM     22  C   UNL     1       0.297  11.340  19.615  0.00  0.00    +0.000 C 
BRANCH  20  23
ATOM     23  C   UNL     1      -1.338  12.488  22.705  0.00  0.00    +0.000 A 
ATOM     24  C   UNL     1      -0.917  13.734  23.179  0.00  0.00    +0.000 A 
ATOM     25  C   UNL     1      -1.752  14.472  24.008  0.00  0.00    +0.000 A 
ATOM     26  N   UNL     1      -2.971  14.062  24.405  0.00  0.00    +0.000 NA
ATOM     27  C   UNL     1      -3.370  12.860  23.944  0.00  0.00    +0.000 A 
ATOM     28  C   UNL     1      -2.607  12.062  23.107  0.00  0.00    +0.000 A 
ENDBRANCH  20  23
ENDBRANCH   7  17
TORSDOF 3
ENDMDL
MODEL 3
REMARK VINA RESULT:      -7.9      2.635      5.044
REMARK  Name = 
REMARK  4 active torsions:
REMARK  status: ('A' for Active; 'I' for Inactive)
REMARK    1  A    between atoms: C_1  and  C_2
REMARK    2  A    between atoms: N_4  and  C_5
REMARK    3  A    between atoms: C_13  and  N_14
REMARK    4  A    between atoms: N_17  and  C_18
REMARK                            x       y       z     vdW  Elec       q    Type
REMARK                         _______ _______ _______ _____ _____    ______ ____
ROOT
ATOM      1  C   UNL     1       2.347   1.290  19.665  0.00  0.00    +0.000 C 
ATOM      2  C   UNL     1       2.867   2.564  19.115  0.00  0.00    +0.000 A 
ATOM      3  N   UNL     1       3.724   2.564  18.089  0.00  0.00    +0.000 NA
ATOM      4  N   UNL     1       4.058   3.873  17.920  0.00  0.00    +0.000 N 
ATOM      5  C   UNL     1       3.270   4.713  18.698  0.00  0.00    +0.000 A 
ATOM      6  C   UNL     1       3.094   6.109  18.719  0.00  0.00    +0.000 A 
ATOM      7  C   UNL     1       2.162   6.680  19.600  0.00  0.00    +0.000 A 
ATOM      8  C   UNL     1       1.471   5.830  20.471  0.00  0.00    +0.000 A 
ATOM      9  C   UNL     1       1.632   4.438  20.444  0.00  0.00    +0.000 A 
ATOM     10  C   UNL     1       2.520   3.875  19.514  0.00  0.00    +0.000 A 
ENDROOT
BRANCH   4  11
ATOM     11  C   UNL     1       5.095   4.228  17.015  0.00  0.00    +0.000 A 
ATOM     12  C   UNL     1       6.360   4.562  17.520  0.00  0.00    +0.000 A 
ATOM     13  C   UNL     1       7.393   4.898  16.644  0.00  0.00    +0.000 A 
ATOM     14  C   UNL     1       7.158   4.942  15.269  0.00  0.00    +0.000 A 
ATOM     15  C   UNL     1       5.892   4.644  14.766  0.00  0.00    +0.000 A 
ATOM     16  C   UNL     1       4.861   4.279  15.635  0.00  0.00    +0.000 A 
ENDBRANCH   4  11
BRANCH   7  17
ATOM     17  N   UNL     1       1.870   8.028  19.562  0.00  0.00    +0.000 N 
ATOM     18  C   UNL     1       2.265   8.873  18.422  0.00  0.00    +0.000 C 
ATOM     19  C   UNL     1       1.116   9.845  18.066  0.00  0.00    +0.000 C 
ATOM     20  N   UNL     1       0.723  10.607  19.265  0.00  0.00    +0.000 N 
ATOM     21  C   UNL     1       0.320   9.763  20.410  0.00  0.00    +0.000 C 
ATOM     22  C   UNL     1       1.448   8.768  20.765  0.00  0.00    +0.000 C 
BRANCH  20  23
ATOM     23  C   UNL     1       0.453  11.957  19.225  0.00  0.00    +0.000 A 
ATOM     24  C   UNL     1       1.361  12.890  18.714  0.00  0.00    +0.000 A 
ATOM     25  C   UNL     1       1.054  14.243  18.758  0.00  0.00    +0.000 A 
ATOM     26  N   UNL     1      -0.085  14.740  19.274  0.00  0.00    +0.000 NA
ATOM     27  C   UNL     1      -0.956  13.836  19.764  0.00  0.00    +0.000 A 
ATOM     28  C   UNL     1      -0.736  12.468  19.754  0.00  0.00    +0.000 A 
ENDBRANCH  20  23
ENDBRANCH   7  17
TORSDOF 3
ENDMDL
MODEL 4
REMARK VINA RESULT:      -7.9      2.602      4.908
REMARK  Name = 
REMARK  4 active torsions:
REMARK  status: ('A' for Active; 'I' for Inactive)
REMARK    1  A    between atoms: C_1  and  C_2
REMARK    2  A    between atoms: N_4  and  C_5
REMARK    3  A    between atoms: C_13  and  N_14
REMARK    4  A    between atoms: N_17  and  C_18
REMARK                            x       y       z     vdW  Elec       q    Type
REMARK                         _______ _______ _______ _____ _____    ______ ____
ROOT
ATOM      1  C   UNL     1       2.342   1.231  19.513  0.00  0.00    +0.000 C 
ATOM      2  C   UNL     1       2.869   2.520  19.005  0.00  0.00    +0.000 A 
ATOM      3  N   UNL     1       3.734   2.549  17.987  0.00  0.00    +0.000 NA
ATOM      4  N   UNL     1       4.072   3.862  17.860  0.00  0.00    +0.000 N 
ATOM      5  C   UNL     1       3.279   4.680  18.655  0.00  0.00    +0.000 A 
ATOM      6  C   UNL     1       3.103   6.075  18.716  0.00  0.00    +0.000 A 
ATOM      7  C   UNL     1       2.165   6.621  19.606  0.00  0.00    +0.000 A 
ATOM      8  C   UNL     1       1.466   5.746  20.446  0.00  0.00    +0.000 A 
ATOM      9  C   UNL     1       1.625   4.355  20.379  0.00  0.00    +0.000 A 
ATOM     10  C   UNL     1       2.520   3.819  19.440  0.00  0.00    +0.000 A 
ENDROOT
BRANCH   4  11
ATOM     11  C   UNL     1       5.116   4.241  16.974  0.00  0.00    +0.000 A 
ATOM     12  C   UNL     1       4.879   4.231  15.592  0.00  0.00    +0.000 A 
ATOM     13  C   UNL     1       5.889   4.616  14.709  0.00  0.00    +0.000 A 
ATOM     14  C   UNL     1       7.147   4.971  15.196  0.00  0.00    +0.000 A 
ATOM     15  C   UNL     1       7.397   4.949  16.568  0.00  0.00    +0.000 A 
ATOM     16  C   UNL     1       6.382   4.592  17.459  0.00  0.00    +0.000 A 
ENDBRANCH   4  11
BRANCH   7  17
ATOM     17  N   UNL     1       1.875   7.969  19.605  0.00  0.00    +0.000 N 
ATOM     18  C   UNL     1       2.238   8.838  18.473  0.00  0.00    +0.000 C 
ATOM     19  C   UNL     1       1.081   9.820  18.171  0.00  0.00    +0.000 C 
ATOM     20  N   UNL     1       0.725  10.556  19.397  0.00  0.00    +0.000 N 
ATOM     21  C   UNL     1       0.354   9.688  20.535  0.00  0.00    +0.000 C 
ATOM     22  C   UNL     1       1.490   8.684  20.835  0.00  0.00    +0.000 C 
BRANCH  20  23
ATOM     23  C   UNL     1       0.457  11.907  19.393  0.00  0.00    +0.000 A 
ATOM     24  C   UNL     1      -0.745  12.436  19.874  0.00  0.00    +0.000 A 
ATOM     25  C   UNL     1      -0.979  13.802  19.786  0.00  0.00    +0.000 A 
ATOM     26  N   UNL     1      -0.111  14.682  19.254  0.00  0.00    +0.000 NA
ATOM     27  C   UNL     1       1.046  14.165  18.793  0.00  0.00    +0.000 A 
ATOM     28  C   UNL     1       1.366  12.818  18.848  0.00  0.00    +0.000 A 
ENDBRANCH  20  23
ENDBRANCH   7  17
TORSDOF 3
ENDMDL
MODEL 5
REMARK VINA RESULT:      -7.9      1.866      4.153
REMARK  Name = 
REMARK  4 active torsions:
REMARK  status: ('A' for Active; 'I' for Inactive)
REMARK    1  A    between atoms: C_1  and  C_2
REMARK    2  A    between atoms: N_4  and  C_5
REMARK    3  A    between atoms: C_13  and  N_14
REMARK    4  A    between atoms: N_17  and  C_18
REMARK                            x       y       z     vdW  Elec       q    Type
REMARK                         _______ _______ _______ _____ _____    ______ ____
ROOT
ATOM      1  C   UNL     1       2.454   1.907  18.945  0.00  0.00    +0.000 C 
ATOM      2  C   UNL     1       2.942   3.304  19.017  0.00  0.00    +0.000 A 
ATOM      3  N   UNL     1       4.055   3.672  18.374  0.00  0.00    +0.000 NA
ATOM      4  N   UNL     1       4.250   4.969  18.739  0.00  0.00    +0.000 N 
ATOM      5  C   UNL     1       3.166   5.478  19.443  0.00  0.00    +0.000 A 
ATOM      6  C   UNL     1       2.809   6.780  19.841  0.00  0.00    +0.000 A 
ATOM      7  C   UNL     1       1.594   6.997  20.508  0.00  0.00    +0.000 A 
ATOM      8  C   UNL     1       0.794   5.885  20.800  0.00  0.00    +0.000 A 
ATOM      9  C   UNL     1       1.137   4.588  20.393  0.00  0.00    +0.000 A 
ATOM     10  C   UNL     1       2.325   4.395  19.671  0.00  0.00    +0.000 A 
ENDROOT
BRANCH   4  11
ATOM     11  C   UNL     1       5.451   5.634  18.372  0.00  0.00    +0.000 A 
ATOM     12  C   UNL     1       6.590   5.483  19.177  0.00  0.00    +0.000 A 
ATOM     13  C   UNL     1       7.782   6.117  18.822  0.00  0.00    +0.000 A 
ATOM     14  C   UNL     1       7.832   6.934  17.693  0.00  0.00    +0.000 A 
ATOM     15  C   UNL     1       6.692   7.114  16.910  0.00  0.00    +0.000 A 
ATOM     16  C   UNL     1       5.503   6.460  17.242  0.00  0.00    +0.000 A 
ENDBRANCH   4  11
BRANCH   7  17
ATOM     17  N   UNL     1       1.153   8.271  20.800  0.00  0.00    +0.000 N 
ATOM     18  C   UNL     1       0.969   9.286  19.749  0.00  0.00    +0.000 C 
ATOM     19  C   UNL     1      -0.335  10.078  20.005  0.00  0.00    +0.000 C 
ATOM     20  N   UNL     1      -0.317  10.630  21.371  0.00  0.00    +0.000 N 
ATOM     21  C   UNL     1      -0.139   9.614  22.431  0.00  0.00    +0.000 C 
ATOM     22  C   UNL     1       1.148   8.797  22.177  0.00  0.00    +0.000 C 
BRANCH  20  23
ATOM     23  C   UNL     1      -0.740  11.911  21.654  0.00  0.00    +0.000 A 
ATOM     24  C   UNL     1      -1.144  12.304  22.934  0.00  0.00    +0.000 A 
ATOM     25  C   UNL     1      -1.617  13.592  23.141  0.00  0.00    +0.000 A 
ATOM     26  N   UNL     1      -1.723  14.519  22.171  0.00  0.00    +0.000 NA
ATOM     27  C   UNL     1      -1.332  14.135  20.939  0.00  0.00    +0.000 A 
ATOM     28  C   UNL     1      -0.839  12.873  20.645  0.00  0.00    +0.000 A 
ENDBRANCH  20  23
ENDBRANCH   7  17
TORSDOF 3
ENDMDL
MODEL 6
REMARK VINA RESULT:      -7.8      2.796      4.843
REMARK  Name = 
REMARK  4 active torsions:
REMARK  status: ('A' for Active; 'I' for Inactive)
REMARK    1  A    between atoms: C_1  and  C_2
REMARK    2  A    between atoms: N_4  and  C_5
REMARK    3  A    between atoms: C_13  and  N_14
REMARK    4  A    between atoms: N_17  and  C_18
REMARK                            x       y       z     vdW  Elec       q    Type
REMARK                         _______ _______ _______ _____ _____    ______ ____
ROOT
ATOM      1  C   UNL     1       1.537   3.292  21.093  0.00  0.00    +0.000 C 
ATOM      2  C   UNL     1       2.022   4.364  20.192  0.00  0.00    +0.000 A 
ATOM      3  N   UNL     1       2.689   4.065  19.074  0.00  0.00    +0.000 NA
ATOM      4  N   UNL     1       3.058   5.271  18.560  0.00  0.00    +0.000 N 
ATOM      5  C   UNL     1       2.460   6.327  19.237  0.00  0.00    +0.000 A 
ATOM      6  C   UNL     1       2.363   7.704  18.965  0.00  0.00    +0.000 A 
ATOM      7  C   UNL     1       1.628   8.534  19.825  0.00  0.00    +0.000 A 
ATOM      8  C   UNL     1       1.052   7.958  20.965  0.00  0.00    +0.000 A 
ATOM      9  C   UNL     1       1.133   6.585  21.232  0.00  0.00    +0.000 A 
ATOM     10  C   UNL     1       1.818   5.757  20.329  0.00  0.00    +0.000 A 
ENDROOT
BRANCH   4  11
ATOM     11  C   UNL     1       3.942   5.326  17.448  0.00  0.00    +0.000 A 
ATOM     12  C   UNL     1       4.413   6.572  17.010  0.00  0.00    +0.000 A 
ATOM     13  C   UNL     1       5.293   6.643  15.929  0.00  0.00    +0.000 A 
ATOM     14  C   UNL     1       5.672   5.481  15.258  0.00  0.00    +0.000 A 
ATOM     15  C   UNL     1       5.178   4.243  15.669  0.00  0.00    +0.000 A 
ATOM     16  C   UNL     1       4.319   4.162  16.768  0.00  0.00    +0.000 A 
ENDBRANCH   4  11
BRANCH   7  17
ATOM     17  N   UNL     1       1.405   9.862  19.526  0.00  0.00    +0.000 N 
ATOM     18  C   UNL     1       0.609  10.731  20.409  0.00  0.00    +0.000 C 
ATOM     19  C   UNL     1       1.281  12.119  20.524  0.00  0.00    +0.000 C 
ATOM     20  N   UNL     1       1.498  12.677  19.177  0.00  0.00    +0.000 N 
ATOM     21  C   UNL     1       2.301  11.810  18.288  0.00  0.00    +0.000 C 
ATOM     22  C   UNL     1       1.657  10.410  18.181  0.00  0.00    +0.000 C 
BRANCH  20  23
ATOM     23  C   UNL     1       1.253  13.999  18.878  0.00  0.00    +0.000 A 
ATOM     24  C   UNL     1       2.275  14.899  18.559  0.00  0.00    +0.000 A 
ATOM     25  C   UNL     1       1.969  16.233  18.328  0.00  0.00    +0.000 A 
ATOM     26  N   UNL     1       0.724  16.742  18.393  0.00  0.00    +0.000 NA
ATOM     27  C   UNL     1      -0.256  15.869  18.701  0.00  0.00    +0.000 A 
ATOM     28  C   UNL     1      -0.042  14.521  18.939  0.00  0.00    +0.000 A 
ENDBRANCH  20  23
ENDBRANCH   7  17
TORSDOF 3
ENDMDL
MODEL 7
REMARK VINA RESULT:      -7.7      2.784      4.756
REMARK  Name = 
REMARK  4 active torsions:
REMARK  status: ('A' for Active; 'I' for Inactive)
REMARK    1  A    between atoms: C_1  and  C_2
REMARK    2  A    between atoms: N_4  and  C_5
REMARK    3  A    between atoms: C_13  and  N_14
REMARK    4  A    between atoms: N_17  and  C_18
REMARK                            x       y       z     vdW  Elec       q    Type
REMARK                         _______ _______ _______ _____ _____    ______ ____
ROOT
ATOM      1  C   UNL     1       1.482   3.312  21.056  0.00  0.00    +0.000 C 
ATOM      2  C   UNL     1       1.972   4.393  20.169  0.00  0.00    +0.000 A 
ATOM      3  N   UNL     1       2.633   4.104  19.043  0.00  0.00    +0.000 NA
ATOM      4  N   UNL     1       3.010   5.314  18.546  0.00  0.00    +0.000 N 
ATOM      5  C   UNL     1       2.424   6.365  19.241  0.00  0.00    +0.000 A 
ATOM      6  C   UNL     1       2.338   7.748  18.990  0.00  0.00    +0.000 A 
ATOM      7  C   UNL     1       1.613   8.571  19.866  0.00  0.00    +0.000 A 
ATOM      8  C   UNL     1       1.037   7.983  20.999  0.00  0.00    +0.000 A 
ATOM      9  C   UNL     1       1.107   6.605  21.245  0.00  0.00    +0.000 A 
ATOM     10  C   UNL     1       1.781   5.785  20.328  0.00  0.00    +0.000 A 
ENDROOT
BRANCH   4  11
ATOM     11  C   UNL     1       3.889   5.379  17.432  0.00  0.00    +0.000 A 
ATOM     12  C   UNL     1       4.305   4.188  16.819  0.00  0.00    +0.000 A 
ATOM     13  C   UNL     1       5.156   4.234  15.714  0.00  0.00    +0.000 A 
ATOM     14  C   UNL     1       5.627   5.460  15.243  0.00  0.00    +0.000 A 
ATOM     15  C   UNL     1       5.243   6.644  15.872  0.00  0.00    +0.000 A 
ATOM     16  C   UNL     1       4.369   6.607  16.961  0.00  0.00    +0.000 A 
ENDBRANCH   4  11
BRANCH   7  17
ATOM     17  N   UNL     1       1.400   9.905  19.587  0.00  0.00    +0.000 N 
ATOM     18  C   UNL     1       0.670  10.783  20.517  0.00  0.00    +0.000 C 
ATOM     19  C   UNL     1       1.374  12.157  20.604  0.00  0.00    +0.000 C 
ATOM     20  N   UNL     1       1.530  12.720  19.251  0.00  0.00    +0.000 N 
ATOM     21  C   UNL     1       2.268  11.845  18.315  0.00  0.00    +0.000 C 
ATOM     22  C   UNL     1       1.592  10.458  18.234  0.00  0.00    +0.000 C 
BRANCH  20  23
ATOM     23  C   UNL     1       1.296  14.049  18.975  0.00  0.00    +0.000 A 
ATOM     24  C   UNL     1       0.006  14.585  18.899  0.00  0.00    +0.000 A 
ATOM     25  C   UNL     1      -0.166  15.919  18.556  0.00  0.00    +0.000 A 
ATOM     26  N   UNL     1       0.847  16.760  18.278  0.00  0.00    +0.000 NA
ATOM     27  C   UNL     1       2.087  16.238  18.352  0.00  0.00    +0.000 A 
ATOM     28  C   UNL     1       2.351  14.921  18.695  0.00  0.00    +0.000 A 
ENDBRANCH  20  23
ENDBRANCH   7  17
TORSDOF 3
ENDMDL
MODEL 8
REMARK VINA RESULT:      -7.7      0.924      1.062
REMARK  Name = 
REMARK  4 active torsions:
REMARK  status: ('A' for Active; 'I' for Inactive)
REMARK    1  A    between atoms: C_1  and  C_2
REMARK    2  A    between atoms: N_4  and  C_5
REMARK    3  A    between atoms: C_13  and  N_14
REMARK    4  A    between atoms: N_17  and  C_18
REMARK                            x       y       z     vdW  Elec       q    Type
REMARK                         _______ _______ _______ _____ _____    ______ ____
ROOT
ATOM      1  C   UNL     1       5.380   6.879  16.659  0.00  0.00    +0.000 C 
ATOM      2  C   UNL     1       4.236   6.717  17.586  0.00  0.00    +0.000 A 
ATOM      3  N   UNL     1       4.099   5.603  18.312  0.00  0.00    +0.000 NA
ATOM      4  N   UNL     1       2.910   5.758  18.958  0.00  0.00    +0.000 N 
ATOM      5  C   UNL     1       2.397   7.039  18.799  0.00  0.00    +0.000 A 
ATOM      6  C   UNL     1       1.339   7.729  19.420  0.00  0.00    +0.000 A 
ATOM      7  C   UNL     1       1.088   9.068  19.083  0.00  0.00    +0.000 A 
ATOM      8  C   UNL     1       1.881   9.659  18.091  0.00  0.00    +0.000 A 
ATOM      9  C   UNL     1       2.945   8.981  17.481  0.00  0.00    +0.000 A 
ATOM     10  C   UNL     1       3.225   7.663  17.873  0.00  0.00    +0.000 A 
ENDROOT
BRANCH   4  11
ATOM     11  C   UNL     1       2.359   4.674  19.694  0.00  0.00    +0.000 A 
ATOM     12  C   UNL     1       1.496   3.776  19.049  0.00  0.00    +0.000 A 
ATOM     13  C   UNL     1       0.959   2.699  19.754  0.00  0.00    +0.000 A 
ATOM     14  C   UNL     1       1.244   2.536  21.109  0.00  0.00    +0.000 A 
ATOM     15  C   UNL     1       2.074   3.447  21.763  0.00  0.00    +0.000 A 
ATOM     16  C   UNL     1       2.639   4.512  21.057  0.00  0.00    +0.000 A 
ENDBRANCH   4  11
BRANCH   7  17
ATOM     17  N   UNL     1       0.145   9.814  19.759  0.00  0.00    +0.000 N 
ATOM     18  C   UNL     1      -0.184   9.551  21.170  0.00  0.00    +0.000 C 
ATOM     19  C   UNL     1      -0.340  10.888  21.931  0.00  0.00    +0.000 C 
ATOM     20  N   UNL     1      -1.324  11.740  21.239  0.00  0.00    +0.000 N 
ATOM     21  C   UNL     1      -0.995  12.012  19.823  0.00  0.00    +0.000 C 
ATOM     22  C   UNL     1      -0.811  10.685  19.052  0.00  0.00    +0.000 C 
BRANCH  20  23
ATOM     23  C   UNL     1      -2.277  12.466  21.918  0.00  0.00    +0.000 A 
ATOM     24  C   UNL     1      -2.391  12.438  23.312  0.00  0.00    +0.000 A 
ATOM     25  C   UNL     1      -3.413  13.145  23.932  0.00  0.00    +0.000 A 
ATOM     26  N   UNL     1      -4.332  13.874  23.272  0.00  0.00    +0.000 NA
ATOM     27  C   UNL     1      -4.216  13.896  21.930  0.00  0.00    +0.000 A 
ATOM     28  C   UNL     1      -3.224  13.229  21.229  0.00  0.00    +0.000 A 
ENDBRANCH  20  23
ENDBRANCH   7  17
TORSDOF 3
ENDMDL
MODEL 9
REMARK VINA RESULT:      -7.6      2.903      4.855
REMARK  Name = 
REMARK  4 active torsions:
REMARK  status: ('A' for Active; 'I' for Inactive)
REMARK    1  A    between atoms: C_1  and  C_2
REMARK    2  A    between atoms: N_4  and  C_5
REMARK    3  A    between atoms: C_13  and  N_14
REMARK    4  A    between atoms: N_17  and  C_18
REMARK                            x       y       z     vdW  Elec       q    Type
REMARK                         _______ _______ _______ _____ _____    ______ ____
ROOT
ATOM      1  C   UNL     1       2.270   2.136  20.358  0.00  0.00    +0.000 C 
ATOM      2  C   UNL     1       2.743   3.339  19.634  0.00  0.00    +0.000 A 
ATOM      3  N   UNL     1       3.584   3.226  18.602  0.00  0.00    +0.000 NA
ATOM      4  N   UNL     1       3.876   4.510  18.254  0.00  0.00    +0.000 N 
ATOM      5  C   UNL     1       3.075   5.423  18.928  0.00  0.00    +0.000 A 
ATOM      6  C   UNL     1       2.856   6.804  18.767  0.00  0.00    +0.000 A 
ATOM      7  C   UNL     1       1.921   7.461  19.581  0.00  0.00    +0.000 A 
ATOM      8  C   UNL     1       1.269   6.715  20.571  0.00  0.00    +0.000 A 
ATOM      9  C   UNL     1       1.472   5.337  20.726  0.00  0.00    +0.000 A 
ATOM     10  C   UNL     1       2.363   4.681  19.862  0.00  0.00    +0.000 A 
ENDROOT
BRANCH   4  11
ATOM     11  C   UNL     1       4.888   4.769  17.290  0.00  0.00    +0.000 A 
ATOM     12  C   UNL     1       4.827   4.128  16.045  0.00  0.00    +0.000 A 
ATOM     13  C   UNL     1       5.804   4.384  15.081  0.00  0.00    +0.000 A 
ATOM     14  C   UNL     1       6.863   5.244  15.370  0.00  0.00    +0.000 A 
ATOM     15  C   UNL     1       6.945   5.857  16.620  0.00  0.00    +0.000 A 
ATOM     16  C   UNL     1       5.956   5.627  17.579  0.00  0.00    +0.000 A 
ENDBRANCH   4  11
BRANCH   7  17
ATOM     17  N   UNL     1       1.588   8.783  19.370  0.00  0.00    +0.000 N 
ATOM     18  C   UNL     1       0.698   9.513  20.289  0.00  0.00    +0.000 C 
ATOM     19  C   UNL     1       1.241  10.942  20.521  0.00  0.00    +0.000 C 
ATOM     20  N   UNL     1       1.438  11.614  19.224  0.00  0.00    +0.000 N 
ATOM     21  C   UNL     1       2.335  10.888  18.300  0.00  0.00    +0.000 C 
ATOM     22  C   UNL     1       1.821   9.448  18.075  0.00  0.00    +0.000 C 
BRANCH  20  23
ATOM     23  C   UNL     1       1.083  12.928  19.013  0.00  0.00    +0.000 A 
ATOM     24  C   UNL     1       2.007  13.902  18.619  0.00  0.00    +0.000 A 
ATOM     25  C   UNL     1       1.598  15.221  18.482  0.00  0.00    +0.000 A 
ATOM     26  N   UNL     1       0.342  15.648  18.711  0.00  0.00    +0.000 NA
ATOM     27  C   UNL     1      -0.543  14.704  19.089  0.00  0.00    +0.000 A 
ATOM     28  C   UNL     1      -0.224  13.364  19.243  0.00  0.00    +0.000 A 
ENDBRANCH  20  23
ENDBRANCH   7  17
TORSDOF 3
ENDMDL
