MODEL 1
REMARK VINA RESULT:      -8.5      0.000      0.000
REMARK  Name = 
REMARK  10 active torsions:
REMARK  status: ('A' for Active; 'I' for Inactive)
REMARK    1  A    between atoms: C_1  and  C_2
REMARK    2  A    between atoms: C_2  and  O_3
REMARK    3  A    between atoms: O_3  and  C_4
REMARK    4  A    between atoms: C_4  and  C_6
REMARK    5  A    between atoms: C_6  and  C_17
REMARK    6  A    between atoms: C_7  and  N_8
REMARK    7  A    between atoms: N_8  and  C_9
REMARK    8  A    between atoms: C_20  and  O_21
REMARK    9  A    between atoms: O_21  and  C_22
REMARK   10  A    between atoms: C_22  and  C_23
REMARK                            x       y       z     vdW  Elec       q    Type
REMARK                         _______ _______ _______ _____ _____    ______ ____
ROOT
ATOM      1  C   UNL     1       2.196   5.353  20.139  0.00  0.00    +0.000 C 
ATOM      2  C   UNL     1       1.634   6.352  20.862  0.00  0.00    +0.000 C 
ENDROOT
BRANCH   1   3
ATOM      3  C   UNL     1       3.262   5.616  19.137  0.00  0.00    +0.000 A 
ATOM      4  C   UNL     1       4.564   5.144  19.353  0.00  0.00    +0.000 A 
ATOM      5  C   UNL     1       5.607   5.492  18.506  0.00  0.00    +0.000 A 
ATOM      6  C   UNL     1       5.351   6.197  17.335  0.00  0.00    +0.000 A 
ATOM      7  C   UNL     1       4.054   6.629  17.066  0.00  0.00    +0.000 A 
ATOM      8  C   UNL     1       3.018   6.351  17.966  0.00  0.00    +0.000 A 
BRANCH   6   9
ATOM      9  O   UNL     1       6.300   6.484  16.393  0.00  0.00    +0.000 OA
BRANCH   9  10
ATOM     10  C   UNL     1       7.198   5.406  16.125  0.00  0.00    +0.000 C 
BRANCH  10  11
ATOM     11  C   UNL     1       6.929   4.877  14.746  0.00  0.00    +0.000 A 
ATOM     12  C   UNL     1       7.744   5.244  13.670  0.00  0.00    +0.000 A 
ATOM     13  C   UNL     1       7.484   4.737  12.399  0.00  0.00    +0.000 A 
ATOM     14  C   UNL     1       6.415   3.867  12.198  0.00  0.00    +0.000 A 
ATOM     15  C   UNL     1       5.594   3.504  13.265  0.00  0.00    +0.000 A 
ATOM     16  C   UNL     1       5.850   4.009  14.536  0.00  0.00    +0.000 A 
ENDBRANCH  10  11
ENDBRANCH   9  10
ENDBRANCH   6   9
ENDBRANCH   1   3
BRANCH   1  17
ATOM     17  C   UNL     1       1.679   3.958  20.322  0.00  0.00    +0.000 C 
ATOM     18  O   UNL     1       1.915   3.262  21.300  0.00  0.00    +0.000 OA
BRANCH  17  19
ATOM     19  O   UNL     1       1.081   3.529  19.179  0.00  0.00    +0.000 OA
BRANCH  19  21
ATOM     20  C   UNL     1       2.563   2.249  17.824  0.00  0.00    +0.000 C 
ATOM     21  C   UNL     1       1.392   2.186  18.789  0.00  0.00    +0.000 C 
ENDBRANCH  19  21
ENDBRANCH  17  19
ENDBRANCH   1  17
BRANCH   2  22
ATOM     22  N   UNL     1       1.852   7.707  20.753  0.00  0.00    +0.000 N 
ATOM     23  H   UNL     1       2.699   7.978  20.258  0.00  0.00    +0.000 HD
BRANCH  22  24
ATOM     24  C   UNL     1       1.033   8.809  21.066  0.00  0.00    +0.000 A 
ATOM     25  C   UNL     1       0.595   9.087  22.363  0.00  0.00    +0.000 A 
ATOM     26  C   UNL     1      -0.232  10.184  22.615  0.00  0.00    +0.000 A 
ATOM     27  C   UNL     1      -0.612  11.031  21.577  0.00  0.00    +0.000 A 
ATOM     28 CL   UNL     1      -1.659  12.356  21.897  0.00  0.00    +0.000 Cl
ATOM     29  C   UNL     1      -0.152  10.811  20.285  0.00  0.00    +0.000 A 
ATOM     30  C   UNL     1       0.672   9.710  20.035  0.00  0.00    +0.000 A 
ATOM     31 CL   UNL     1       1.253   9.486  18.418  0.00  0.00    +0.000 Cl
ENDBRANCH  22  24
ENDBRANCH   2  22
TORSDOF 9
ENDMDL
MODEL 2
REMARK VINA RESULT:      -8.5      4.398      7.111
REMARK  Name = 
REMARK  10 active torsions:
REMARK  status: ('A' for Active; 'I' for Inactive)
REMARK    1  A    between atoms: C_1  and  C_2
REMARK    2  A    between atoms: C_2  and  O_3
REMARK    3  A    between atoms: O_3  and  C_4
REMARK    4  A    between atoms: C_4  and  C_6
REMARK    5  A    between atoms: C_6  and  C_17
REMARK    6  A    between atoms: C_7  and  N_8
REMARK    7  A    between atoms: N_8  and  C_9
REMARK    8  A    between atoms: C_20  and  O_21
REMARK    9  A    between atoms: O_21  and  C_22
REMARK   10  A    between atoms: C_22  and  C_23
REMARK                            x       y       z     vdW  Elec       q    Type
REMARK                         _______ _______ _______ _____ _____    ______ ____
ROOT
ATOM      1  C   UNL     1       6.233   4.511  15.842  0.00  0.00    +0.000 C 
ATOM      2  C   UNL     1       5.338   3.649  16.380  0.00  0.00    +0.000 C 
ENDROOT
BRANCH   1   3
ATOM      3  C   UNL     1       6.898   5.561  16.657  0.00  0.00    +0.000 A 
ATOM      4  C   UNL     1       7.604   5.212  17.816  0.00  0.00    +0.000 A 
ATOM      5  C   UNL     1       8.114   6.181  18.669  0.00  0.00    +0.000 A 
ATOM      6  C   UNL     1       8.064   7.524  18.311  0.00  0.00    +0.000 A 
ATOM      7  C   UNL     1       7.418   7.895  17.134  0.00  0.00    +0.000 A 
ATOM      8  C   UNL     1       6.828   6.922  16.318  0.00  0.00    +0.000 A 
BRANCH   6   9
ATOM      9  O   UNL     1       8.638   8.530  19.038  0.00  0.00    +0.000 OA
BRANCH   9  10
ATOM     10  C   UNL     1       8.542   9.818  18.426  0.00  0.00    +0.000 C 
BRANCH  10  11
ATOM     11  C   UNL     1       9.600  10.713  19.001  0.00  0.00    +0.000 A 
ATOM     12  C   UNL     1       9.568  11.081  20.351  0.00  0.00    +0.000 A 
ATOM     13  C   UNL     1      10.563  11.906  20.869  0.00  0.00    +0.000 A 
ATOM     14  C   UNL     1      11.589  12.366  20.046  0.00  0.00    +0.000 A 
ATOM     15  C   UNL     1      11.623  12.009  18.698  0.00  0.00    +0.000 A 
ATOM     16  C   UNL     1      10.630  11.186  18.177  0.00  0.00    +0.000 A 
ENDBRANCH  10  11
ENDBRANCH   9  10
ENDBRANCH   6   9
ENDBRANCH   1   3
BRANCH   1  17
ATOM     17  C   UNL     1       6.509   4.431  14.370  0.00  0.00    +0.000 C 
ATOM     18  O   UNL     1       7.308   5.146  13.783  0.00  0.00    +0.000 OA
BRANCH  17  19
ATOM     19  O   UNL     1       5.618   3.594  13.774  0.00  0.00    +0.000 OA
BRANCH  19  21
ATOM     20  C   UNL     1       4.556   3.308  11.663  0.00  0.00    +0.000 C 
ATOM     21  C   UNL     1       5.884   3.291  12.400  0.00  0.00    +0.000 C 
ENDBRANCH  19  21
ENDBRANCH  17  19
ENDBRANCH   1  17
BRANCH   2  22
ATOM     22  N   UNL     1       4.834   3.636  17.662  0.00  0.00    +0.000 N 
ATOM     23  H   UNL     1       5.205   2.910  18.273  0.00  0.00    +0.000 HD
BRANCH  22  24
ATOM     24  C   UNL     1       4.006   4.545  18.345  0.00  0.00    +0.000 A 
ATOM     25  C   UNL     1       3.637   5.784  17.815  0.00  0.00    +0.000 A 
ATOM     26  C   UNL     1       2.827   6.658  18.544  0.00  0.00    +0.000 A 
ATOM     27  C   UNL     1       2.356   6.294  19.803  0.00  0.00    +0.000 A 
ATOM     28 CL   UNL     1       1.389   7.394  20.703  0.00  0.00    +0.000 Cl
ATOM     29  C   UNL     1       2.663   5.049  20.337  0.00  0.00    +0.000 A 
ATOM     30  C   UNL     1       3.477   4.179  19.607  0.00  0.00    +0.000 A 
ATOM     31 CL   UNL     1       3.811   2.621  20.289  0.00  0.00    +0.000 Cl
ENDBRANCH  22  24
ENDBRANCH   2  22
TORSDOF 9
ENDMDL
MODEL 3
REMARK VINA RESULT:      -8.4      1.051      1.715
REMARK  Name = 
REMARK  10 active torsions:
REMARK  status: ('A' for Active; 'I' for Inactive)
REMARK    1  A    between atoms: C_1  and  C_2
REMARK    2  A    between atoms: C_2  and  O_3
REMARK    3  A    between atoms: O_3  and  C_4
REMARK    4  A    between atoms: C_4  and  C_6
REMARK    5  A    between atoms: C_6  and  C_17
REMARK    6  A    between atoms: C_7  and  N_8
REMARK    7  A    between atoms: N_8  and  C_9
REMARK    8  A    between atoms: C_20  and  O_21
REMARK    9  A    between atoms: O_21  and  C_22
REMARK   10  A    between atoms: C_22  and  C_23
REMARK                            x       y       z     vdW  Elec       q    Type
REMARK                         _______ _______ _______ _____ _____    ______ ____
ROOT
ATOM      1  C   UNL     1       2.145   5.669  20.132  0.00  0.00    +0.000 C 
ATOM      2  C   UNL     1       1.589   6.667  20.860  0.00  0.00    +0.000 C 
ENDROOT
BRANCH   1   3
ATOM      3  C   UNL     1       3.255   5.921  19.176  0.00  0.00    +0.000 A 
ATOM      4  C   UNL     1       3.046   6.729  18.051  0.00  0.00    +0.000 A 
ATOM      5  C   UNL     1       4.019   6.868  17.071  0.00  0.00    +0.000 A 
ATOM      6  C   UNL     1       5.285   6.324  17.262  0.00  0.00    +0.000 A 
ATOM      7  C   UNL     1       5.538   5.563  18.401  0.00  0.00    +0.000 A 
ATOM      8  C   UNL     1       4.528   5.352  19.346  0.00  0.00    +0.000 A 
BRANCH   6   9
ATOM      9  O   UNL     1       6.332   6.506  16.402  0.00  0.00    +0.000 OA
BRANCH   9  10
ATOM     10  C   UNL     1       7.123   5.335  16.191  0.00  0.00    +0.000 C 
BRANCH  10  11
ATOM     11  C   UNL     1       6.936   4.866  14.777  0.00  0.00    +0.000 A 
ATOM     12  C   UNL     1       7.766   5.337  13.754  0.00  0.00    +0.000 A 
ATOM     13  C   UNL     1       7.583   4.886  12.449  0.00  0.00    +0.000 A 
ATOM     14  C   UNL     1       6.576   3.968  12.161  0.00  0.00    +0.000 A 
ATOM     15  C   UNL     1       5.739   3.500  13.175  0.00  0.00    +0.000 A 
ATOM     16  C   UNL     1       5.918   3.950  14.480  0.00  0.00    +0.000 A 
ENDBRANCH  10  11
ENDBRANCH   9  10
ENDBRANCH   6   9
ENDBRANCH   1   3
BRANCH   1  17
ATOM     17  C   UNL     1       1.577   4.287  20.262  0.00  0.00    +0.000 C 
ATOM     18  O   UNL     1       1.680   3.595  21.265  0.00  0.00    +0.000 OA
BRANCH  17  19
ATOM     19  O   UNL     1       1.109   3.861  19.058  0.00  0.00    +0.000 OA
BRANCH  19  21
ATOM     20  C   UNL     1       2.499   2.588  17.604  0.00  0.00    +0.000 C 
ATOM     21  C   UNL     1       1.455   2.517  18.705  0.00  0.00    +0.000 C 
ENDBRANCH  19  21
ENDBRANCH  17  19
ENDBRANCH   1  17
BRANCH   2  22
ATOM     22  N   UNL     1       1.853   8.017  20.793  0.00  0.00    +0.000 N 
ATOM     23  H   UNL     1       2.819   8.285  20.971  0.00  0.00    +0.000 HD
BRANCH  22  24
ATOM     24  C   UNL     1       1.062   9.100  20.367  0.00  0.00    +0.000 A 
ATOM     25  C   UNL     1       0.967   9.493  19.030  0.00  0.00    +0.000 A 
ATOM     26  C   UNL     1       0.181  10.588  18.663  0.00  0.00    +0.000 A 
ATOM     27  C   UNL     1      -0.540  11.289  19.626  0.00  0.00    +0.000 A 
ATOM     28 CL   UNL     1      -1.475  12.656  19.165  0.00  0.00    +0.000 Cl
ATOM     29  C   UNL     1      -0.508  10.893  20.957  0.00  0.00    +0.000 A 
ATOM     30  C   UNL     1       0.284   9.800  21.321  0.00  0.00    +0.000 A 
ATOM     31 CL   UNL     1       0.273   9.314  22.984  0.00  0.00    +0.000 Cl
ENDBRANCH  22  24
ENDBRANCH   2  22
TORSDOF 9
ENDMDL
MODEL 4
REMARK VINA RESULT:      -8.3      0.376      1.297
REMARK  Name = 
REMARK  10 active torsions:
REMARK  status: ('A' for Active; 'I' for Inactive)
REMARK    1  A    between atoms: C_1  and  C_2
REMARK    2  A    between atoms: C_2  and  O_3
REMARK    3  A    between atoms: O_3  and  C_4
REMARK    4  A    between atoms: C_4  and  C_6
REMARK    5  A    between atoms: C_6  and  C_17
REMARK    6  A    between atoms: C_7  and  N_8
REMARK    7  A    between atoms: N_8  and  C_9
REMARK    8  A    between atoms: C_20  and  O_21
REMARK    9  A    between atoms: O_21  and  C_22
REMARK   10  A    between atoms: C_22  and  C_23
REMARK                            x       y       z     vdW  Elec       q    Type
REMARK                         _______ _______ _______ _____ _____    ______ ____
ROOT
ATOM      1  C   UNL     1       2.271   5.561  20.275  0.00  0.00    +0.000 C 
ATOM      2  C   UNL     1       1.602   6.559  20.901  0.00  0.00    +0.000 C 
ENDROOT
BRANCH   1   3
ATOM      3  C   UNL     1       3.317   5.837  19.256  0.00  0.00    +0.000 A 
ATOM      4  C   UNL     1       3.018   6.623  18.136  0.00  0.00    +0.000 A 
ATOM      5  C   UNL     1       3.930   6.782  17.101  0.00  0.00    +0.000 A 
ATOM      6  C   UNL     1       5.222   6.283  17.227  0.00  0.00    +0.000 A 
ATOM      7  C   UNL     1       5.564   5.546  18.358  0.00  0.00    +0.000 A 
ATOM      8  C   UNL     1       4.616   5.314  19.361  0.00  0.00    +0.000 A 
BRANCH   6   9
ATOM      9  O   UNL     1       6.213   6.489  16.307  0.00  0.00    +0.000 OA
BRANCH   9  10
ATOM     10  C   UNL     1       7.071   5.363  16.114  0.00  0.00    +0.000 C 
BRANCH  10  11
ATOM     11  C   UNL     1       6.919   4.868  14.705  0.00  0.00    +0.000 A 
ATOM     12  C   UNL     1       5.943   3.918  14.384  0.00  0.00    +0.000 A 
ATOM     13  C   UNL     1       5.811   3.476  13.070  0.00  0.00    +0.000 A 
ATOM     14  C   UNL     1       6.649   3.976  12.076  0.00  0.00    +0.000 A 
ATOM     15  C   UNL     1       7.629   4.917  12.391  0.00  0.00    +0.000 A 
ATOM     16  C   UNL     1       7.765   5.361  13.703  0.00  0.00    +0.000 A 
ENDBRANCH  10  11
ENDBRANCH   9  10
ENDBRANCH   6   9
ENDBRANCH   1   3
BRANCH   1  17
ATOM     17  C   UNL     1       1.896   4.143  20.587  0.00  0.00    +0.000 C 
ATOM     18  O   UNL     1       2.257   3.543  21.589  0.00  0.00    +0.000 OA
BRANCH  17  19
ATOM     19  O   UNL     1       1.267   3.582  19.520  0.00  0.00    +0.000 OA
BRANCH  19  21
ATOM     20  C   UNL     1       2.481   2.608  17.718  0.00  0.00    +0.000 C 
ATOM     21  C   UNL     1       1.821   2.344  19.061  0.00  0.00    +0.000 C 
ENDBRANCH  19  21
ENDBRANCH  17  19
ENDBRANCH   1  17
BRANCH   2  22
ATOM     22  N   UNL     1       1.682   7.914  20.667  0.00  0.00    +0.000 N 
ATOM     23  H   UNL     1       2.305   8.193  19.911  0.00  0.00    +0.000 HD
BRANCH  22  24
ATOM     24  C   UNL     1       0.937   8.992  21.179  0.00  0.00    +0.000 A 
ATOM     25  C   UNL     1       0.461   9.033  22.492  0.00  0.00    +0.000 A 
ATOM     26  C   UNL     1      -0.290  10.120  22.944  0.00  0.00    +0.000 A 
ATOM     27  C   UNL     1      -0.556  11.191  22.096  0.00  0.00    +0.000 A 
ATOM     28 CL   UNL     1      -1.512  12.506  22.655  0.00  0.00    +0.000 Cl
ATOM     29  C   UNL     1      -0.055  11.205  20.800  0.00  0.00    +0.000 A 
ATOM     30  C   UNL     1       0.693  10.114  20.349  0.00  0.00    +0.000 A 
ATOM     31 CL   UNL     1       1.330  10.181  18.740  0.00  0.00    +0.000 Cl
ENDBRANCH  22  24
ENDBRANCH   2  22
TORSDOF 9
ENDMDL
MODEL 5
REMARK VINA RESULT:      -8.2      3.289      7.926
REMARK  Name = 
REMARK  10 active torsions:
REMARK  status: ('A' for Active; 'I' for Inactive)
REMARK    1  A    between atoms: C_1  and  C_2
REMARK    2  A    between atoms: C_2  and  O_3
REMARK    3  A    between atoms: O_3  and  C_4
REMARK    4  A    between atoms: C_4  and  C_6
REMARK    5  A    between atoms: C_6  and  C_17
REMARK    6  A    between atoms: C_7  and  N_8
REMARK    7  A    between atoms: N_8  and  C_9
REMARK    8  A    between atoms: C_20  and  O_21
REMARK    9  A    between atoms: O_21  and  C_22
REMARK   10  A    between atoms: C_22  and  C_23
REMARK                            x       y       z     vdW  Elec       q    Type
REMARK                         _______ _______ _______ _____ _____    ______ ____
ROOT
ATOM      1  C   UNL     1       2.861   4.989  20.138  0.00  0.00    +0.000 C 
ATOM      2  C   UNL     1       4.089   4.508  19.826  0.00  0.00    +0.000 C 
ENDROOT
BRANCH   1   3
ATOM      3  C   UNL     1       2.399   6.322  19.671  0.00  0.00    +0.000 A 
ATOM      4  C   UNL     1       2.514   6.674  18.320  0.00  0.00    +0.000 A 
ATOM      5  C   UNL     1       2.222   7.958  17.881  0.00  0.00    +0.000 A 
ATOM      6  C   UNL     1       1.662   8.884  18.755  0.00  0.00    +0.000 A 
ATOM      7  C   UNL     1       1.482   8.541  20.092  0.00  0.00    +0.000 A 
ATOM      8  C   UNL     1       1.859   7.273  20.551  0.00  0.00    +0.000 A 
BRANCH   6   9
ATOM      9  O   UNL     1       1.243  10.131  18.380  0.00  0.00    +0.000 OA
BRANCH   9  10
ATOM     10  C   UNL     1       0.265  10.702  19.252  0.00  0.00    +0.000 C 
BRANCH  10  11
ATOM     11  C   UNL     1      -1.062  10.725  18.551  0.00  0.00    +0.000 A 
ATOM     12  C   UNL     1      -1.290   9.921  17.429  0.00  0.00    +0.000 A 
ATOM     13  C   UNL     1      -2.529   9.949  16.796  0.00  0.00    +0.000 A 
ATOM     14  C   UNL     1      -3.543  10.775  17.278  0.00  0.00    +0.000 A 
ATOM     15  C   UNL     1      -3.319  11.585  18.392  0.00  0.00    +0.000 A 
ATOM     16  C   UNL     1      -2.081  11.560  19.026  0.00  0.00    +0.000 A 
ENDBRANCH  10  11
ENDBRANCH   9  10
ENDBRANCH   6   9
ENDBRANCH   1   3
BRANCH   1  17
ATOM     17  C   UNL     1       1.977   4.168  21.029  0.00  0.00    +0.000 C 
ATOM     18  O   UNL     1       2.338   3.681  22.091  0.00  0.00    +0.000 OA
BRANCH  17  19
ATOM     19  O   UNL     1       0.802   3.898  20.399  0.00  0.00    +0.000 OA
BRANCH  19  21
ATOM     20  C   UNL     1       1.079   2.852  18.278  0.00  0.00    +0.000 C 
ATOM     21  C   UNL     1       0.736   2.628  19.741  0.00  0.00    +0.000 C 
ENDBRANCH  19  21
ENDBRANCH  17  19
ENDBRANCH   1  17
BRANCH   2  22
ATOM     22  N   UNL     1       5.105   5.146  19.150  0.00  0.00    +0.000 N 
ATOM     23  H   UNL     1       5.727   5.712  19.724  0.00  0.00    +0.000 HD
BRANCH  22  24
ATOM     24  C   UNL     1       5.549   5.038  17.819  0.00  0.00    +0.000 A 
ATOM     25  C   UNL     1       4.791   4.437  16.811  0.00  0.00    +0.000 A 
ATOM     26  C   UNL     1       5.287   4.339  15.509  0.00  0.00    +0.000 A 
ATOM     27  C   UNL     1       6.537   4.862  15.193  0.00  0.00    +0.000 A 
ATOM     28 CL   UNL     1       7.150   4.703  13.594  0.00  0.00    +0.000 Cl
ATOM     29  C   UNL     1       7.294   5.511  16.160  0.00  0.00    +0.000 A 
ATOM     30  C   UNL     1       6.797   5.603  17.463  0.00  0.00    +0.000 A 
ATOM     31 CL   UNL     1       7.753   6.449  18.634  0.00  0.00    +0.000 Cl
ENDBRANCH  22  24
ENDBRANCH   2  22
TORSDOF 9
ENDMDL
MODEL 6
REMARK VINA RESULT:      -8.1      4.476      7.248
REMARK  Name = 
REMARK  10 active torsions:
REMARK  status: ('A' for Active; 'I' for Inactive)
REMARK    1  A    between atoms: C_1  and  C_2
REMARK    2  A    between atoms: C_2  and  O_3
REMARK    3  A    between atoms: O_3  and  C_4
REMARK    4  A    between atoms: C_4  and  C_6
REMARK    5  A    between atoms: C_6  and  C_17
REMARK    6  A    between atoms: C_7  and  N_8
REMARK    7  A    between atoms: N_8  and  C_9
REMARK    8  A    between atoms: C_20  and  O_21
REMARK    9  A    between atoms: O_21  and  C_22
REMARK   10  A    between atoms: C_22  and  C_23
REMARK                            x       y       z     vdW  Elec       q    Type
REMARK                         _______ _______ _______ _____ _____    ______ ____
ROOT
ATOM      1  C   UNL     1       5.844   4.954  16.064  0.00  0.00    +0.000 C 
ATOM      2  C   UNL     1       4.599   4.538  16.400  0.00  0.00    +0.000 C 
ENDROOT
BRANCH   1   3
ATOM      3  C   UNL     1       6.569   5.978  16.860  0.00  0.00    +0.000 A 
ATOM      4  C   UNL     1       6.422   7.338  16.559  0.00  0.00    +0.000 A 
ATOM      5  C   UNL     1       7.191   8.305  17.192  0.00  0.00    +0.000 A 
ATOM      6  C   UNL     1       8.022   7.954  18.250  0.00  0.00    +0.000 A 
ATOM      7  C   UNL     1       8.144   6.614  18.609  0.00  0.00    +0.000 A 
ATOM      8  C   UNL     1       7.432   5.630  17.912  0.00  0.00    +0.000 A 
BRANCH   6   9
ATOM      9  O   UNL     1       8.728   8.855  18.998  0.00  0.00    +0.000 OA
BRANCH   9  10
ATOM     10  C   UNL     1       8.565  10.212  18.582  0.00  0.00    +0.000 C 
BRANCH  10  11
ATOM     11  C   UNL     1       9.838  10.961  18.846  0.00  0.00    +0.000 A 
ATOM     12  C   UNL     1      10.667  11.354  17.790  0.00  0.00    +0.000 A 
ATOM     13  C   UNL     1      11.841  12.055  18.054  0.00  0.00    +0.000 A 
ATOM     14  C   UNL     1      12.192  12.366  19.366  0.00  0.00    +0.000 A 
ATOM     15  C   UNL     1      11.374  11.970  20.424  0.00  0.00    +0.000 A 
ATOM     16  C   UNL     1      10.200  11.268  20.165  0.00  0.00    +0.000 A 
ENDBRANCH  10  11
ENDBRANCH   9  10
ENDBRANCH   6   9
ENDBRANCH   1   3
BRANCH   1  17
ATOM     17  C   UNL     1       6.472   4.400  14.820  0.00  0.00    +0.000 C 
ATOM     18  O   UNL     1       7.651   4.541  14.527  0.00  0.00    +0.000 OA
BRANCH  17  19
ATOM     19  O   UNL     1       5.514   3.896  13.998  0.00  0.00    +0.000 OA
BRANCH  19  21
ATOM     20  C   UNL     1       4.708   3.324  11.832  0.00  0.00    +0.000 C 
ATOM     21  C   UNL     1       5.948   3.571  12.673  0.00  0.00    +0.000 C 
ENDBRANCH  19  21
ENDBRANCH  17  19
ENDBRANCH   1  17
BRANCH   2  22
ATOM     22  N   UNL     1       3.786   5.012  17.405  0.00  0.00    +0.000 N 
ATOM     23  H   UNL     1       3.436   5.960  17.278  0.00  0.00    +0.000 HD
BRANCH  22  24
ATOM     24  C   UNL     1       3.213   4.370  18.518  0.00  0.00    +0.000 A 
ATOM     25  C   UNL     1       3.269   2.987  18.711  0.00  0.00    +0.000 A 
ATOM     26  C   UNL     1       2.666   2.398  19.825  0.00  0.00    +0.000 A 
ATOM     27  C   UNL     1       2.021   3.187  20.774  0.00  0.00    +0.000 A 
ATOM     28 CL   UNL     1       1.254   2.445  22.121  0.00  0.00    +0.000 Cl
ATOM     29  C   UNL     1       1.991   4.570  20.638  0.00  0.00    +0.000 A 
ATOM     30  C   UNL     1       2.591   5.155  19.520  0.00  0.00    +0.000 A 
ATOM     31 CL   UNL     1       2.564   6.883  19.401  0.00  0.00    +0.000 Cl
ENDBRANCH  22  24
ENDBRANCH   2  22
TORSDOF 9
ENDMDL
MODEL 7
REMARK VINA RESULT:      -8.1      0.430      1.032
REMARK  Name = 
REMARK  10 active torsions:
REMARK  status: ('A' for Active; 'I' for Inactive)
REMARK    1  A    between atoms: C_1  and  C_2
REMARK    2  A    between atoms: C_2  and  O_3
REMARK    3  A    between atoms: O_3  and  C_4
REMARK    4  A    between atoms: C_4  and  C_6
REMARK    5  A    between atoms: C_6  and  C_17
REMARK    6  A    between atoms: C_7  and  N_8
REMARK    7  A    between atoms: N_8  and  C_9
REMARK    8  A    between atoms: C_20  and  O_21
REMARK    9  A    between atoms: O_21  and  C_22
REMARK   10  A    between atoms: C_22  and  C_23
REMARK                            x       y       z     vdW  Elec       q    Type
REMARK                         _______ _______ _______ _____ _____    ______ ____
ROOT
ATOM      1  C   UNL     1       2.212   5.382  19.977  0.00  0.00    +0.000 C 
ATOM      2  C   UNL     1       1.638   6.321  20.767  0.00  0.00    +0.000 C 
ENDROOT
BRANCH   1   3
ATOM      3  C   UNL     1       3.335   5.709  19.060  0.00  0.00    +0.000 A 
ATOM      4  C   UNL     1       3.099   6.447  17.893  0.00  0.00    +0.000 A 
ATOM      5  C   UNL     1       4.099   6.647  16.951  0.00  0.00    +0.000 A 
ATOM      6  C   UNL     1       5.402   6.244  17.220  0.00  0.00    +0.000 A 
ATOM      7  C   UNL     1       5.677   5.558  18.400  0.00  0.00    +0.000 A 
ATOM      8  C   UNL     1       4.649   5.282  19.309  0.00  0.00    +0.000 A 
BRANCH   6   9
ATOM      9  O   UNL     1       6.465   6.499  16.398  0.00  0.00    +0.000 OA
BRANCH   9  10
ATOM     10  C   UNL     1       7.284   5.358  16.133  0.00  0.00    +0.000 C 
BRANCH  10  11
ATOM     11  C   UNL     1       7.013   4.876  14.738  0.00  0.00    +0.000 A 
ATOM     12  C   UNL     1       7.801   5.311  13.667  0.00  0.00    +0.000 A 
ATOM     13  C   UNL     1       7.541   4.848  12.380  0.00  0.00    +0.000 A 
ATOM     14  C   UNL     1       6.498   3.952  12.157  0.00  0.00    +0.000 A 
ATOM     15  C   UNL     1       5.704   3.519  13.219  0.00  0.00    +0.000 A 
ATOM     16  C   UNL     1       5.960   3.981  14.506  0.00  0.00    +0.000 A 
ENDBRANCH  10  11
ENDBRANCH   9  10
ENDBRANCH   6   9
ENDBRANCH   1   3
BRANCH   1  17
ATOM     17  C   UNL     1       1.650   3.991  19.994  0.00  0.00    +0.000 C 
ATOM     18  O   UNL     1       0.465   3.734  20.154  0.00  0.00    +0.000 OA
BRANCH  17  19
ATOM     19  O   UNL     1       2.659   3.081  19.997  0.00  0.00    +0.000 OA
BRANCH  19  21
ATOM     20  C   UNL     1       2.396   2.514  17.700  0.00  0.00    +0.000 C 
ATOM     21  C   UNL     1       2.485   1.967  19.114  0.00  0.00    +0.000 C 
ENDBRANCH  19  21
ENDBRANCH  17  19
ENDBRANCH   1  17
BRANCH   2  22
ATOM     22  N   UNL     1       1.896   7.674  20.805  0.00  0.00    +0.000 N 
ATOM     23  H   UNL     1       2.813   7.956  20.465  0.00  0.00    +0.000 HD
BRANCH  22  24
ATOM     24  C   UNL     1       1.061   8.772  21.084  0.00  0.00    +0.000 A 
ATOM     25  C   UNL     1       0.602   9.072  22.368  0.00  0.00    +0.000 A 
ATOM     26  C   UNL     1      -0.241  10.164  22.587  0.00  0.00    +0.000 A 
ATOM     27  C   UNL     1      -0.615  10.985  21.527  0.00  0.00    +0.000 A 
ATOM     28 CL   UNL     1      -1.680  12.305  21.806  0.00  0.00    +0.000 Cl
ATOM     29  C   UNL     1      -0.134  10.745  20.246  0.00  0.00    +0.000 A 
ATOM     30  C   UNL     1       0.705   9.648  20.030  0.00  0.00    +0.000 A 
ATOM     31 CL   UNL     1       1.312   9.399  18.427  0.00  0.00    +0.000 Cl
ENDBRANCH  22  24
ENDBRANCH   2  22
TORSDOF 9
ENDMDL
MODEL 8
REMARK VINA RESULT:      -7.8      3.393      7.993
REMARK  Name = 
REMARK  10 active torsions:
REMARK  status: ('A' for Active; 'I' for Inactive)
REMARK    1  A    between atoms: C_1  and  C_2
REMARK    2  A    between atoms: C_2  and  O_3
REMARK    3  A    between atoms: O_3  and  C_4
REMARK    4  A    between atoms: C_4  and  C_6
REMARK    5  A    between atoms: C_6  and  C_17
REMARK    6  A    between atoms: C_7  and  N_8
REMARK    7  A    between atoms: N_8  and  C_9
REMARK    8  A    between atoms: C_20  and  O_21
REMARK    9  A    between atoms: O_21  and  C_22
REMARK   10  A    between atoms: C_22  and  C_23
REMARK                            x       y       z     vdW  Elec       q    Type
REMARK                         _______ _______ _______ _____ _____    ______ ____
ROOT
ATOM      1  C   UNL     1       2.695   5.043  20.252  0.00  0.00    +0.000 C 
ATOM      2  C   UNL     1       3.888   4.606  19.782  0.00  0.00    +0.000 C 
ENDROOT
BRANCH   1   3
ATOM      3  C   UNL     1       2.242   6.445  20.058  0.00  0.00    +0.000 A 
ATOM      4  C   UNL     1       1.646   7.146  21.114  0.00  0.00    +0.000 A 
ATOM      5  C   UNL     1       1.088   8.403  20.924  0.00  0.00    +0.000 A 
ATOM      6  C   UNL     1       1.245   9.058  19.707  0.00  0.00    +0.000 A 
ATOM      7  C   UNL     1       1.885   8.407  18.656  0.00  0.00    +0.000 A 
ATOM      8  C   UNL     1       2.370   7.105  18.825  0.00  0.00    +0.000 A 
BRANCH   6   9
ATOM      9  O   UNL     1       0.825  10.338  19.470  0.00  0.00    +0.000 OA
BRANCH   9  10
ATOM     10  C   UNL     1       0.435  10.582  18.117  0.00  0.00    +0.000 C 
BRANCH  10  11
ATOM     11  C   UNL     1      -1.061  10.679  18.049  0.00  0.00    +0.000 A 
ATOM     12  C   UNL     1      -1.794   9.834  17.208  0.00  0.00    +0.000 A 
ATOM     13  C   UNL     1      -3.182   9.933  17.164  0.00  0.00    +0.000 A 
ATOM     14  C   UNL     1      -3.842  10.871  17.955  0.00  0.00    +0.000 A 
ATOM     15  C   UNL     1      -3.118  11.721  18.790  0.00  0.00    +0.000 A 
ATOM     16  C   UNL     1      -1.730  11.626  18.836  0.00  0.00    +0.000 A 
ENDBRANCH  10  11
ENDBRANCH   9  10
ENDBRANCH   6   9
ENDBRANCH   1   3
BRANCH   1  17
ATOM     17  C   UNL     1       1.844   4.092  21.040  0.00  0.00    +0.000 C 
ATOM     18  O   UNL     1       2.220   3.512  22.049  0.00  0.00    +0.000 OA
BRANCH  17  19
ATOM     19  O   UNL     1       0.690   3.834  20.369  0.00  0.00    +0.000 OA
BRANCH  19  21
ATOM     20  C   UNL     1       1.497   1.909  19.224  0.00  0.00    +0.000 C 
ATOM     21  C   UNL     1       0.851   3.274  19.061  0.00  0.00    +0.000 C 
ENDBRANCH  19  21
ENDBRANCH  17  19
ENDBRANCH   1  17
BRANCH   2  22
ATOM     22  N   UNL     1       4.879   5.338  19.166  0.00  0.00    +0.000 N 
ATOM     23  H   UNL     1       5.393   5.978  19.769  0.00  0.00    +0.000 HD
BRANCH  22  24
ATOM     24  C   UNL     1       5.429   5.255  17.873  0.00  0.00    +0.000 A 
ATOM     25  C   UNL     1       4.660   5.009  16.733  0.00  0.00    +0.000 A 
ATOM     26  C   UNL     1       5.260   4.918  15.475  0.00  0.00    +0.000 A 
ATOM     27  C   UNL     1       6.634   5.094  15.338  0.00  0.00    +0.000 A 
ATOM     28 CL   UNL     1       7.364   4.943  13.789  0.00  0.00    +0.000 Cl
ATOM     29  C   UNL     1       7.421   5.390  16.445  0.00  0.00    +0.000 A 
ATOM     30  C   UNL     1       6.817   5.476  17.703  0.00  0.00    +0.000 A 
ATOM     31 CL   UNL     1       7.823   5.880  19.054  0.00  0.00    +0.000 Cl
ENDBRANCH  22  24
ENDBRANCH   2  22
TORSDOF 9
ENDMDL
MODEL 9
REMARK VINA RESULT:      -7.8      1.290      1.902
REMARK  Name = 
REMARK  10 active torsions:
REMARK  status: ('A' for Active; 'I' for Inactive)
REMARK    1  A    between atoms: C_1  and  C_2
REMARK    2  A    between atoms: C_2  and  O_3
REMARK    3  A    between atoms: O_3  and  C_4
REMARK    4  A    between atoms: C_4  and  C_6
REMARK    5  A    between atoms: C_6  and  C_17
REMARK    6  A    between atoms: C_7  and  N_8
REMARK    7  A    between atoms: N_8  and  C_9
REMARK    8  A    between atoms: C_20  and  O_21
REMARK    9  A    between atoms: O_21  and  C_22
REMARK   10  A    between atoms: C_22  and  C_23
REMARK                            x       y       z     vdW  Elec       q    Type
REMARK                         _______ _______ _______ _____ _____    ______ ____
ROOT
ATOM      1  C   UNL     1       2.185   5.222  19.721  0.00  0.00    +0.000 C 
ATOM      2  C   UNL     1       1.675   6.170  20.543  0.00  0.00    +0.000 C 
ENDROOT
BRANCH   1   3
ATOM      3  C   UNL     1       3.361   5.488  18.851  0.00  0.00    +0.000 A 
ATOM      4  C   UNL     1       4.648   5.138  19.281  0.00  0.00    +0.000 A 
ATOM      5  C   UNL     1       5.774   5.499  18.554  0.00  0.00    +0.000 A 
ATOM      6  C   UNL     1       5.638   6.088  17.302  0.00  0.00    +0.000 A 
ATOM      7  C   UNL     1       4.366   6.394  16.824  0.00  0.00    +0.000 A 
ATOM      8  C   UNL     1       3.235   6.107  17.598  0.00  0.00    +0.000 A 
BRANCH   6   9
ATOM      9  O   UNL     1       6.688   6.374  16.474  0.00  0.00    +0.000 OA
BRANCH   9  10
ATOM     10  C   UNL     1       7.470   5.235  16.111  0.00  0.00    +0.000 C 
BRANCH  10  11
ATOM     11  C   UNL     1       7.091   4.803  14.725  0.00  0.00    +0.000 A 
ATOM     12  C   UNL     1       7.804   5.263  13.613  0.00  0.00    +0.000 A 
ATOM     13  C   UNL     1       7.443   4.846  12.335  0.00  0.00    +0.000 A 
ATOM     14  C   UNL     1       6.372   3.972  12.161  0.00  0.00    +0.000 A 
ATOM     15  C   UNL     1       5.652   3.515  13.264  0.00  0.00    +0.000 A 
ATOM     16  C   UNL     1       6.009   3.930  14.543  0.00  0.00    +0.000 A 
ENDBRANCH  10  11
ENDBRANCH   9  10
ENDBRANCH   6   9
ENDBRANCH   1   3
BRANCH   1  17
ATOM     17  C   UNL     1       1.498   3.890  19.652  0.00  0.00    +0.000 C 
ATOM     18  O   UNL     1       1.438   3.202  18.642  0.00  0.00    +0.000 OA
BRANCH  17  19
ATOM     19  O   UNL     1       0.810   3.661  20.801  0.00  0.00    +0.000 OA
BRANCH  19  21
ATOM     20  C   UNL     1       2.872   2.604  21.349  0.00  0.00    +0.000 C 
ATOM     21  C   UNL     1       1.394   2.697  21.686  0.00  0.00    +0.000 C 
ENDBRANCH  19  21
ENDBRANCH  17  19
ENDBRANCH   1  17
BRANCH   2  22
ATOM     22  N   UNL     1       2.054   7.489  20.657  0.00  0.00    +0.000 N 
ATOM     23  H   UNL     1       2.950   7.652  21.112  0.00  0.00    +0.000 HD
BRANCH  22  24
ATOM     24  C   UNL     1       1.501   8.666  20.117  0.00  0.00    +0.000 A 
ATOM     25  C   UNL     1       1.548   8.973  18.755  0.00  0.00    +0.000 A 
ATOM     26  C   UNL     1       1.000  10.164  18.274  0.00  0.00    +0.000 A 
ATOM     27  C   UNL     1       0.377  11.052  19.146  0.00  0.00    +0.000 A 
ATOM     28 CL   UNL     1      -0.262  12.531  18.545  0.00  0.00    +0.000 Cl
ATOM     29  C   UNL     1       0.268  10.753  20.498  0.00  0.00    +0.000 A 
ATOM     30  C   UNL     1       0.821   9.562  20.977  0.00  0.00    +0.000 A 
ATOM     31 CL   UNL     1       0.637   9.207  22.662  0.00  0.00    +0.000 Cl
ENDBRANCH  22  24
ENDBRANCH   2  22
TORSDOF 9
ENDMDL
