MODEL 1
REMARK VINA RESULT:      -8.4      0.000      0.000
REMARK  Name = 
REMARK  7 active torsions:
REMARK  status: ('A' for Active; 'I' for Inactive)
REMARK    1  A    between atoms: C_1  and  C_2
REMARK    2  A    between atoms: C_2  and  C_3
REMARK    3  A    between atoms: C_2  and  N_18
REMARK    4  A    between atoms: C_3  and  N_4
REMARK    5  A    between atoms: C_7  and  C_8
REMARK    6  A    between atoms: C_11  and  C_12
REMARK    7  A    between atoms: N_18  and  C_19
REMARK                            x       y       z     vdW  Elec       q    Type
REMARK                         _______ _______ _______ _____ _____    ______ ____
ROOT
ATOM      1  C   UNL     1       2.860   4.661  20.200  0.00  0.00    +0.000 C 
ENDROOT
BRANCH   1   2
ATOM      2  N   UNL     1       2.454   5.995  19.794  0.00  0.00    +0.000 N 
ATOM      3  C   UNL     1       2.807   6.653  18.647  0.00  0.00    +0.000 A 
ATOM      4  C   UNL     1       2.274   7.917  18.754  0.00  0.00    +0.000 A 
ATOM      5  C   UNL     1       1.628   7.950  20.017  0.00  0.00    +0.000 A 
ATOM      6  N   UNL     1       1.760   6.771  20.637  0.00  0.00    +0.000 NA
BRANCH   5   7
ATOM      7  C   UNL     1       0.913   9.044  20.666  0.00  0.00    +0.000 A 
ATOM      8  C   UNL     1       0.375   8.849  21.946  0.00  0.00    +0.000 A 
ATOM      9  C   UNL     1      -0.269   9.893  22.614  0.00  0.00    +0.000 A 
ATOM     10  C   UNL     1      -0.376  11.152  22.016  0.00  0.00    +0.000 A 
ATOM     11  C   UNL     1       0.162  11.344  20.731  0.00  0.00    +0.000 A 
ATOM     12 CL   UNL     1       0.079  12.882  19.934  0.00  0.00    +0.000 Cl
ATOM     13  C   UNL     1       0.796  10.298  20.056  0.00  0.00    +0.000 A 
BRANCH  10  14
ATOM     14  C   UNL     1      -1.015  12.209  22.739  0.00  0.00    +0.000 C 
ATOM     15  N   UNL     1      -1.499  13.087  23.326  0.00  0.00    +0.000 NA
ENDBRANCH  10  14
ENDBRANCH   5   7
ENDBRANCH   1   2
BRANCH   1  17
ATOM     16  C   UNL     1       2.395   2.382  19.171  0.00  0.00    +0.000 C 
ATOM     17  C   UNL     1       3.230   3.663  19.075  0.00  0.00    +0.000 C 
BRANCH  17  18
ATOM     18  N   UNL     1       4.648   3.277  19.051  0.00  0.00    +0.000 N 
ATOM     19  H   UNL     1       4.824   2.415  18.547  0.00  0.00    +0.000 HD
BRANCH  18  20
ATOM     20  C   UNL     1       5.607   4.228  18.668  0.00  0.00    +0.000 A 
ATOM     21  N   UNL     1       6.300   4.872  19.635  0.00  0.00    +0.000 NA
ATOM     22  C   UNL     1       7.238   5.761  19.248  0.00  0.00    +0.000 A 
ATOM     23  C   UNL     1       7.569   6.020  17.932  0.00  0.00    +0.000 A 
ATOM     24  C   UNL     1       6.881   5.344  16.926  0.00  0.00    +0.000 A 
ATOM     25  C   UNL     1       7.218   5.533  15.573  0.00  0.00    +0.000 A 
ATOM     26  C   UNL     1       6.517   4.878  14.560  0.00  0.00    +0.000 A 
ATOM     27  C   UNL     1       5.451   4.051  14.886  0.00  0.00    +0.000 A 
ATOM     28  C   UNL     1       5.120   3.838  16.227  0.00  0.00    +0.000 A 
ATOM     29  C   UNL     1       5.842   4.454  17.280  0.00  0.00    +0.000 A 
ENDBRANCH  18  20
ENDBRANCH  17  18
ENDBRANCH   1  17
TORSDOF 6
ENDMDL
MODEL 2
REMARK VINA RESULT:      -8.3      1.088      1.438
REMARK  Name = 
REMARK  7 active torsions:
REMARK  status: ('A' for Active; 'I' for Inactive)
REMARK    1  A    between atoms: C_1  and  C_2
REMARK    2  A    between atoms: C_2  and  C_3
REMARK    3  A    between atoms: C_2  and  N_18
REMARK    4  A    between atoms: C_3  and  N_4
REMARK    5  A    between atoms: C_7  and  C_8
REMARK    6  A    between atoms: C_11  and  C_12
REMARK    7  A    between atoms: N_18  and  C_19
REMARK                            x       y       z     vdW  Elec       q    Type
REMARK                         _______ _______ _______ _____ _____    ______ ____
ROOT
ATOM      1  C   UNL     1       3.104   4.935  20.154  0.00  0.00    +0.000 C 
ENDROOT
BRANCH   1   2
ATOM      2  N   UNL     1       2.669   6.175  19.533  0.00  0.00    +0.000 N 
ATOM      3  C   UNL     1       3.055   6.668  18.316  0.00  0.00    +0.000 A 
ATOM      4  C   UNL     1       2.471   7.909  18.206  0.00  0.00    +0.000 A 
ATOM      5  C   UNL     1       1.762   8.102  19.420  0.00  0.00    +0.000 A 
ATOM      6  N   UNL     1       1.906   7.037  20.217  0.00  0.00    +0.000 NA
BRANCH   5   7
ATOM      7  C   UNL     1       0.976   9.249  19.865  0.00  0.00    +0.000 A 
ATOM      8  C   UNL     1       0.640  10.251  18.943  0.00  0.00    +0.000 A 
ATOM      9  C   UNL     1      -0.154  11.334  19.327  0.00  0.00    +0.000 A 
ATOM     10  C   UNL     1      -0.635  11.426  20.636  0.00  0.00    +0.000 A 
ATOM     11  C   UNL     1      -0.294  10.422  21.560  0.00  0.00    +0.000 A 
ATOM     12 CL   UNL     1      -0.865  10.463  23.197  0.00  0.00    +0.000 Cl
ATOM     13  C   UNL     1       0.510   9.344  21.181  0.00  0.00    +0.000 A 
BRANCH  10  14
ATOM     14  C   UNL     1      -1.470  12.532  20.990  0.00  0.00    +0.000 C 
ATOM     15  N   UNL     1      -2.122  13.441  21.306  0.00  0.00    +0.000 NA
ENDBRANCH  10  14
ENDBRANCH   5   7
ENDBRANCH   1   2
BRANCH   1  17
ATOM     16  C   UNL     1       2.516   2.501  19.706  0.00  0.00    +0.000 C 
ATOM     17  C   UNL     1       3.316   3.716  19.223  0.00  0.00    +0.000 C 
BRANCH  17  18
ATOM     18  N   UNL     1       4.719   3.304  19.076  0.00  0.00    +0.000 N 
ATOM     19  H   UNL     1       4.838   2.467  18.517  0.00  0.00    +0.000 HD
BRANCH  18  20
ATOM     20  C   UNL     1       5.671   4.255  18.674  0.00  0.00    +0.000 A 
ATOM     21  N   UNL     1       6.381   4.901  19.627  0.00  0.00    +0.000 NA
ATOM     22  C   UNL     1       7.311   5.790  19.222  0.00  0.00    +0.000 A 
ATOM     23  C   UNL     1       7.618   6.046  17.900  0.00  0.00    +0.000 A 
ATOM     24  C   UNL     1       6.911   5.368  16.907  0.00  0.00    +0.000 A 
ATOM     25  C   UNL     1       7.224   5.555  15.548  0.00  0.00    +0.000 A 
ATOM     26  C   UNL     1       6.505   4.898  14.550  0.00  0.00    +0.000 A 
ATOM     27  C   UNL     1       5.445   4.072  14.896  0.00  0.00    +0.000 A 
ATOM     28  C   UNL     1       5.139   3.861  16.244  0.00  0.00    +0.000 A 
ATOM     29  C   UNL     1       5.880   4.479  17.282  0.00  0.00    +0.000 A 
ENDBRANCH  18  20
ENDBRANCH  17  18
ENDBRANCH   1  17
TORSDOF 6
ENDMDL
MODEL 3
REMARK VINA RESULT:      -8.2      4.503      7.348
REMARK  Name = 
REMARK  7 active torsions:
REMARK  status: ('A' for Active; 'I' for Inactive)
REMARK    1  A    between atoms: C_1  and  C_2
REMARK    2  A    between atoms: C_2  and  C_3
REMARK    3  A    between atoms: C_2  and  N_18
REMARK    4  A    between atoms: C_3  and  N_4
REMARK    5  A    between atoms: C_7  and  C_8
REMARK    6  A    between atoms: C_11  and  C_12
REMARK    7  A    between atoms: N_18  and  C_19
REMARK                            x       y       z     vdW  Elec       q    Type
REMARK                         _______ _______ _______ _____ _____    ______ ____
ROOT
ATOM      1  C   UNL     1       5.954   6.332  16.395  0.00  0.00    +0.000 C 
ENDROOT
BRANCH   1   2
ATOM      2  N   UNL     1       6.957   6.950  17.245  0.00  0.00    +0.000 N 
ATOM      3  C   UNL     1       7.627   6.371  18.288  0.00  0.00    +0.000 A 
ATOM      4  C   UNL     1       8.386   7.370  18.855  0.00  0.00    +0.000 A 
ATOM      5  C   UNL     1       8.096   8.538  18.102  0.00  0.00    +0.000 A 
ATOM      6  N   UNL     1       7.215   8.260  17.134  0.00  0.00    +0.000 NA
BRANCH   5   7
ATOM      7  C   UNL     1       8.597   9.898  18.270  0.00  0.00    +0.000 A 
ATOM      8  C   UNL     1       8.100  10.919  17.447  0.00  0.00    +0.000 A 
ATOM      9  C   UNL     1       8.522  12.240  17.619  0.00  0.00    +0.000 A 
ATOM     10  C   UNL     1       9.441  12.561  18.622  0.00  0.00    +0.000 A 
ATOM     11  C   UNL     1       9.940  11.535  19.444  0.00  0.00    +0.000 A 
ATOM     12 CL   UNL     1      11.070  11.861  20.718  0.00  0.00    +0.000 Cl
ATOM     13  C   UNL     1       9.528  10.211  19.266  0.00  0.00    +0.000 A 
BRANCH  10  14
ATOM     14  C   UNL     1       9.831  13.928  18.791  0.00  0.00    +0.000 C 
ATOM     15  N   UNL     1      10.176  15.025  18.955  0.00  0.00    +0.000 NA
ENDBRANCH  10  14
ENDBRANCH   5   7
ENDBRANCH   1   2
BRANCH   1  17
ATOM     16  C   UNL     1       6.105   3.968  15.469  0.00  0.00    +0.000 C 
ATOM     17  C   UNL     1       5.644   4.835  16.645  0.00  0.00    +0.000 C 
BRANCH  17  18
ATOM     18  N   UNL     1       4.225   4.544  16.892  0.00  0.00    +0.000 N 
ATOM     19  H   UNL     1       4.017   3.553  16.941  0.00  0.00    +0.000 HD
BRANCH  18  20
ATOM     20  C   UNL     1       3.568   5.196  17.948  0.00  0.00    +0.000 A 
ATOM     21  N   UNL     1       3.228   6.495  17.794  0.00  0.00    +0.000 NA
ATOM     22  C   UNL     1       2.572   7.097  18.808  0.00  0.00    +0.000 A 
ATOM     23  C   UNL     1       2.184   6.460  19.970  0.00  0.00    +0.000 A 
ATOM     24  C   UNL     1       2.505   5.112  20.131  0.00  0.00    +0.000 A 
ATOM     25  C   UNL     1       2.085   4.405  21.273  0.00  0.00    +0.000 A 
ATOM     26  C   UNL     1       2.424   3.064  21.450  0.00  0.00    +0.000 A 
ATOM     27  C   UNL     1       3.213   2.423  20.506  0.00  0.00    +0.000 A 
ATOM     28  C   UNL     1       3.618   3.108  19.357  0.00  0.00    +0.000 A 
ATOM     29  C   UNL     1       3.252   4.458  19.126  0.00  0.00    +0.000 A 
ENDBRANCH  18  20
ENDBRANCH  17  18
ENDBRANCH   1  17
TORSDOF 6
ENDMDL
MODEL 4
REMARK VINA RESULT:      -8.1      0.815      2.054
REMARK  Name = 
REMARK  7 active torsions:
REMARK  status: ('A' for Active; 'I' for Inactive)
REMARK    1  A    between atoms: C_1  and  C_2
REMARK    2  A    between atoms: C_2  and  C_3
REMARK    3  A    between atoms: C_2  and  N_18
REMARK    4  A    between atoms: C_3  and  N_4
REMARK    5  A    between atoms: C_7  and  C_8
REMARK    6  A    between atoms: C_11  and  C_12
REMARK    7  A    between atoms: N_18  and  C_19
REMARK                            x       y       z     vdW  Elec       q    Type
REMARK                         _______ _______ _______ _____ _____    ______ ____
ROOT
ATOM      1  C   UNL     1       3.248   4.737  19.898  0.00  0.00    +0.000 C 
ENDROOT
BRANCH   1   2
ATOM      2  N   UNL     1       2.697   6.024  19.510  0.00  0.00    +0.000 N 
ATOM      3  C   UNL     1       2.878   6.674  18.319  0.00  0.00    +0.000 A 
ATOM      4  C   UNL     1       2.260   7.896  18.455  0.00  0.00    +0.000 A 
ATOM      5  C   UNL     1       1.746   7.915  19.778  0.00  0.00    +0.000 A 
ATOM      6  N   UNL     1       2.035   6.768  20.404  0.00  0.00    +0.000 NA
BRANCH   5   7
ATOM      7  C   UNL     1       1.018   8.969  20.477  0.00  0.00    +0.000 A 
ATOM      8  C   UNL     1       0.614   8.761  21.803  0.00  0.00    +0.000 A 
ATOM      9  C   UNL     1      -0.039   9.771  22.514  0.00  0.00    +0.000 A 
ATOM     10  C   UNL     1      -0.289  11.008  21.913  0.00  0.00    +0.000 A 
ATOM     11  C   UNL     1       0.114  11.213  20.581  0.00  0.00    +0.000 A 
ATOM     12 CL   UNL     1      -0.149  12.725  19.775  0.00  0.00    +0.000 Cl
ATOM     13  C   UNL     1       0.757  10.200  19.864  0.00  0.00    +0.000 A 
BRANCH  10  14
ATOM     14  C   UNL     1      -0.934  12.032  22.677  0.00  0.00    +0.000 C 
ATOM     15  N   UNL     1      -1.480  12.872  23.265  0.00  0.00    +0.000 NA
ENDBRANCH  10  14
ENDBRANCH   5   7
ENDBRANCH   1   2
BRANCH   1  17
ATOM     16  C   UNL     1       2.538   2.340  19.427  0.00  0.00    +0.000 C 
ATOM     17  C   UNL     1       3.191   3.600  18.848  0.00  0.00    +0.000 C 
BRANCH  17  18
ATOM     18  N   UNL     1       4.499   3.218  18.298  0.00  0.00    +0.000 N 
ATOM     19  H   UNL     1       4.533   2.264  17.957  0.00  0.00    +0.000 HD
BRANCH  18  20
ATOM     20  C   UNL     1       5.112   4.057  17.353  0.00  0.00    +0.000 A 
ATOM     21  N   UNL     1       4.684   4.009  16.071  0.00  0.00    +0.000 NA
ATOM     22  C   UNL     1       5.264   4.842  15.183  0.00  0.00    +0.000 A 
ATOM     23  C   UNL     1       6.231   5.773  15.508  0.00  0.00    +0.000 A 
ATOM     24  C   UNL     1       6.664   5.853  16.831  0.00  0.00    +0.000 A 
ATOM     25  C   UNL     1       7.607   6.821  17.222  0.00  0.00    +0.000 A 
ATOM     26  C   UNL     1       8.061   6.889  18.539  0.00  0.00    +0.000 A 
ATOM     27  C   UNL     1       7.603   5.970  19.473  0.00  0.00    +0.000 A 
ATOM     28  C   UNL     1       6.649   5.018  19.103  0.00  0.00    +0.000 A 
ATOM     29  C   UNL     1       6.135   4.953  17.783  0.00  0.00    +0.000 A 
ENDBRANCH  18  20
ENDBRANCH  17  18
ENDBRANCH   1  17
TORSDOF 6
ENDMDL
MODEL 5
REMARK VINA RESULT:      -7.9      1.622      1.823
REMARK  Name = 
REMARK  7 active torsions:
REMARK  status: ('A' for Active; 'I' for Inactive)
REMARK    1  A    between atoms: C_1  and  C_2
REMARK    2  A    between atoms: C_2  and  C_3
REMARK    3  A    between atoms: C_2  and  N_18
REMARK    4  A    between atoms: C_3  and  N_4
REMARK    5  A    between atoms: C_7  and  C_8
REMARK    6  A    between atoms: C_11  and  C_12
REMARK    7  A    between atoms: N_18  and  C_19
REMARK                            x       y       z     vdW  Elec       q    Type
REMARK                         _______ _______ _______ _____ _____    ______ ____
ROOT
ATOM      1  C   UNL     1       2.687   6.262  19.766  0.00  0.00    +0.000 C 
ENDROOT
BRANCH   1   2
ATOM      2  N   UNL     1       2.206   7.496  19.168  0.00  0.00    +0.000 N 
ATOM      3  C   UNL     1       2.578   8.029  17.964  0.00  0.00    +0.000 A 
ATOM      4  C   UNL     1       1.945   9.249  17.877  0.00  0.00    +0.000 A 
ATOM      5  C   UNL     1       1.223   9.388  19.090  0.00  0.00    +0.000 A 
ATOM      6  N   UNL     1       1.406   8.312  19.866  0.00  0.00    +0.000 NA
BRANCH   5   7
ATOM      7  C   UNL     1       0.389  10.492  19.554  0.00  0.00    +0.000 A 
ATOM      8  C   UNL     1       0.939  11.453  20.415  0.00  0.00    +0.000 A 
ATOM      9  C   UNL     1       0.181  12.549  20.834  0.00  0.00    +0.000 A 
ATOM     10  C   UNL     1      -1.135  12.708  20.389  0.00  0.00    +0.000 A 
ATOM     11  C   UNL     1      -1.685  11.741  19.529  0.00  0.00    +0.000 A 
ATOM     12 CL   UNL     1      -3.305  11.879  18.926  0.00  0.00    +0.000 Cl
ATOM     13  C   UNL     1      -0.933  10.637  19.118  0.00  0.00    +0.000 A 
BRANCH  10  14
ATOM     14  C   UNL     1      -1.875  13.857  20.813  0.00  0.00    +0.000 C 
ATOM     15  N   UNL     1      -2.504  14.765  21.174  0.00  0.00    +0.000 NA
ENDBRANCH  10  14
ENDBRANCH   5   7
ENDBRANCH   1   2
BRANCH   1  17
ATOM     16  C   UNL     1       1.529   4.130  19.001  0.00  0.00    +0.000 C 
ATOM     17  C   UNL     1       2.768   5.018  18.847  0.00  0.00    +0.000 C 
BRANCH  17  18
ATOM     18  N   UNL     1       3.955   4.180  19.068  0.00  0.00    +0.000 N 
ATOM     19  H   UNL     1       3.861   3.240  18.699  0.00  0.00    +0.000 HD
BRANCH  18  20
ATOM     20  C   UNL     1       5.219   4.679  18.713  0.00  0.00    +0.000 A 
ATOM     21  N   UNL     1       6.023   5.156  19.690  0.00  0.00    +0.000 NA
ATOM     22  C   UNL     1       7.244   5.605  19.334  0.00  0.00    +0.000 A 
ATOM     23  C   UNL     1       7.743   5.564  18.047  0.00  0.00    +0.000 A 
ATOM     24  C   UNL     1       6.935   5.050  17.034  0.00  0.00    +0.000 A 
ATOM     25  C   UNL     1       7.418   4.936  15.717  0.00  0.00    +0.000 A 
ATOM     26  C   UNL     1       6.606   4.445  14.695  0.00  0.00    +0.000 A 
ATOM     27  C   UNL     1       5.292   4.092  14.970  0.00  0.00    +0.000 A 
ATOM     28  C   UNL     1       4.807   4.179  16.278  0.00  0.00    +0.000 A 
ATOM     29  C   UNL     1       5.623   4.631  17.346  0.00  0.00    +0.000 A 
ENDBRANCH  18  20
ENDBRANCH  17  18
ENDBRANCH   1  17
TORSDOF 6
ENDMDL
MODEL 6
REMARK VINA RESULT:      -7.8      4.540      7.484
REMARK  Name = 
REMARK  7 active torsions:
REMARK  status: ('A' for Active; 'I' for Inactive)
REMARK    1  A    between atoms: C_1  and  C_2
REMARK    2  A    between atoms: C_2  and  C_3
REMARK    3  A    between atoms: C_2  and  N_18
REMARK    4  A    between atoms: C_3  and  N_4
REMARK    5  A    between atoms: C_7  and  C_8
REMARK    6  A    between atoms: C_11  and  C_12
REMARK    7  A    between atoms: N_18  and  C_19
REMARK                            x       y       z     vdW  Elec       q    Type
REMARK                         _______ _______ _______ _____ _____    ______ ____
ROOT
ATOM      1  C   UNL     1       6.606   6.077  16.311  0.00  0.00    +0.000 C 
ENDROOT
BRANCH   1   2
ATOM      2  N   UNL     1       7.394   6.812  17.285  0.00  0.00    +0.000 N 
ATOM      3  C   UNL     1       7.855   6.353  18.489  0.00  0.00    +0.000 A 
ATOM      4  C   UNL     1       8.450   7.432  19.104  0.00  0.00    +0.000 A 
ATOM      5  C   UNL     1       8.283   8.518  18.207  0.00  0.00    +0.000 A 
ATOM      6  N   UNL     1       7.627   8.119  17.111  0.00  0.00    +0.000 NA
BRANCH   5   7
ATOM      7  C   UNL     1       8.695   9.911  18.348  0.00  0.00    +0.000 A 
ATOM      8  C   UNL     1       8.150  10.879  17.493  0.00  0.00    +0.000 A 
ATOM      9  C   UNL     1       8.486  12.227  17.638  0.00  0.00    +0.000 A 
ATOM     10  C   UNL     1       9.366  12.630  18.647  0.00  0.00    +0.000 A 
ATOM     11  C   UNL     1       9.914  11.657  19.501  0.00  0.00    +0.000 A 
ATOM     12 CL   UNL     1      11.000  12.083  20.784  0.00  0.00    +0.000 Cl
ATOM     13  C   UNL     1       9.588  10.306  19.351  0.00  0.00    +0.000 A 
BRANCH  10  14
ATOM     14  C   UNL     1       9.667  14.021  18.788  0.00  0.00    +0.000 C 
ATOM     15  N   UNL     1       9.952  15.142  18.901  0.00  0.00    +0.000 NA
ENDBRANCH  10  14
ENDBRANCH   5   7
ENDBRANCH   1   2
BRANCH   1  17
ATOM     16  C   UNL     1       4.291   6.977  16.856  0.00  0.00    +0.000 C 
ATOM     17  C   UNL     1       5.152   5.718  16.704  0.00  0.00    +0.000 C 
BRANCH  17  18
ATOM     18  N   UNL     1       5.035   4.938  17.944  0.00  0.00    +0.000 N 
ATOM     19  H   UNL     1       5.039   5.508  18.783  0.00  0.00    +0.000 HD
BRANCH  18  20
ATOM     20  C   UNL     1       4.013   3.981  18.053  0.00  0.00    +0.000 A 
ATOM     21  N   UNL     1       4.114   2.842  17.331  0.00  0.00    +0.000 NA
ATOM     22  C   UNL     1       3.138   1.921  17.470  0.00  0.00    +0.000 A 
ATOM     23  C   UNL     1       2.071   2.045  18.338  0.00  0.00    +0.000 A 
ATOM     24  C   UNL     1       1.968   3.202  19.109  0.00  0.00    +0.000 A 
ATOM     25  C   UNL     1       0.929   3.351  20.046  0.00  0.00    +0.000 A 
ATOM     26  C   UNL     1       0.808   4.517  20.803  0.00  0.00    +0.000 A 
ATOM     27  C   UNL     1       1.703   5.559  20.609  0.00  0.00    +0.000 A 
ATOM     28  C   UNL     1       2.753   5.415  19.697  0.00  0.00    +0.000 A 
ATOM     29  C   UNL     1       2.929   4.225  18.946  0.00  0.00    +0.000 A 
ENDBRANCH  18  20
ENDBRANCH  17  18
ENDBRANCH   1  17
TORSDOF 6
ENDMDL
MODEL 7
REMARK VINA RESULT:      -7.8      1.543      1.988
REMARK  Name = 
REMARK  7 active torsions:
REMARK  status: ('A' for Active; 'I' for Inactive)
REMARK    1  A    between atoms: C_1  and  C_2
REMARK    2  A    between atoms: C_2  and  C_3
REMARK    3  A    between atoms: C_2  and  N_18
REMARK    4  A    between atoms: C_3  and  N_4
REMARK    5  A    between atoms: C_7  and  C_8
REMARK    6  A    between atoms: C_11  and  C_12
REMARK    7  A    between atoms: N_18  and  C_19
REMARK                            x       y       z     vdW  Elec       q    Type
REMARK                         _______ _______ _______ _____ _____    ______ ____
ROOT
ATOM      1  C   UNL     1       3.178   6.590  19.577  0.00  0.00    +0.000 C 
ENDROOT
BRANCH   1   2
ATOM      2  N   UNL     1       2.413   7.702  19.039  0.00  0.00    +0.000 N 
ATOM      3  C   UNL     1       2.513   8.243  17.786  0.00  0.00    +0.000 A 
ATOM      4  C   UNL     1       1.676   9.336  17.775  0.00  0.00    +0.000 A 
ATOM      5  C   UNL     1       1.121   9.399  19.080  0.00  0.00    +0.000 A 
ATOM      6  N   UNL     1       1.593   8.401  19.835  0.00  0.00    +0.000 NA
BRANCH   5   7
ATOM      7  C   UNL     1       0.186  10.367  19.645  0.00  0.00    +0.000 A 
ATOM      8  C   UNL     1      -0.459  11.277  18.795  0.00  0.00    +0.000 A 
ATOM      9  C   UNL     1      -1.397  12.180  19.300  0.00  0.00    +0.000 A 
ATOM     10  C   UNL     1      -1.714  12.180  20.662  0.00  0.00    +0.000 A 
ATOM     11  C   UNL     1      -1.064  11.268  21.513  0.00  0.00    +0.000 A 
ATOM     12 CL   UNL     1      -1.416  11.200  23.209  0.00  0.00    +0.000 Cl
ATOM     13  C   UNL     1      -0.116  10.371  21.012  0.00  0.00    +0.000 A 
BRANCH  10  14
ATOM     14  C   UNL     1      -2.701  13.097  21.143  0.00  0.00    +0.000 C 
ATOM     15  N   UNL     1      -3.499  13.863  21.499  0.00  0.00    +0.000 NA
ENDBRANCH  10  14
ENDBRANCH   5   7
ENDBRANCH   1   2
BRANCH   1  17
ATOM     16  C   UNL     1       1.802   4.618  20.405  0.00  0.00    +0.000 C 
ATOM     17  C   UNL     1       2.665   5.164  19.262  0.00  0.00    +0.000 C 
BRANCH  17  18
ATOM     18  N   UNL     1       3.727   4.185  18.990  0.00  0.00    +0.000 N 
ATOM     19  H   UNL     1       3.469   3.490  18.298  0.00  0.00    +0.000 HD
BRANCH  18  20
ATOM     20  C   UNL     1       5.023   4.645  18.707  0.00  0.00    +0.000 A 
ATOM     21  N   UNL     1       5.802   5.054  19.733  0.00  0.00    +0.000 NA
ATOM     22  C   UNL     1       7.054   5.466  19.446  0.00  0.00    +0.000 A 
ATOM     23  C   UNL     1       7.606   5.449  18.180  0.00  0.00    +0.000 A 
ATOM     24  C   UNL     1       6.823   5.005  17.116  0.00  0.00    +0.000 A 
ATOM     25  C   UNL     1       7.358   4.918  15.817  0.00  0.00    +0.000 A 
ATOM     26  C   UNL     1       6.572   4.497  14.744  0.00  0.00    +0.000 A 
ATOM     27  C   UNL     1       5.235   4.188  14.951  0.00  0.00    +0.000 A 
ATOM     28  C   UNL     1       4.698   4.248  16.240  0.00  0.00    +0.000 A 
ATOM     29  C   UNL     1       5.483   4.629  17.358  0.00  0.00    +0.000 A 
ENDBRANCH  18  20
ENDBRANCH  17  18
ENDBRANCH   1  17
TORSDOF 6
ENDMDL
MODEL 8
REMARK VINA RESULT:      -7.8      4.476      7.566
REMARK  Name = 
REMARK  7 active torsions:
REMARK  status: ('A' for Active; 'I' for Inactive)
REMARK    1  A    between atoms: C_1  and  C_2
REMARK    2  A    between atoms: C_2  and  C_3
REMARK    3  A    between atoms: C_2  and  N_18
REMARK    4  A    between atoms: C_3  and  N_4
REMARK    5  A    between atoms: C_7  and  C_8
REMARK    6  A    between atoms: C_11  and  C_12
REMARK    7  A    between atoms: N_18  and  C_19
REMARK                            x       y       z     vdW  Elec       q    Type
REMARK                         _______ _______ _______ _____ _____    ______ ____
ROOT
ATOM      1  C   UNL     1       5.915   6.795  16.632  0.00  0.00    +0.000 C 
ENDROOT
BRANCH   1   2
ATOM      2  N   UNL     1       7.009   7.241  17.477  0.00  0.00    +0.000 N 
ATOM      3  C   UNL     1       7.655   6.518  18.442  0.00  0.00    +0.000 A 
ATOM      4  C   UNL     1       8.535   7.388  19.045  0.00  0.00    +0.000 A 
ATOM      5  C   UNL     1       8.340   8.634  18.395  0.00  0.00    +0.000 A 
ATOM      6  N   UNL     1       7.397   8.523  17.451  0.00  0.00    +0.000 NA
BRANCH   5   7
ATOM      7  C   UNL     1       8.985   9.920  18.638  0.00  0.00    +0.000 A 
ATOM      8  C   UNL     1       9.427  10.684  17.548  0.00  0.00    +0.000 A 
ATOM      9  C   UNL     1      10.002  11.942  17.747  0.00  0.00    +0.000 A 
ATOM     10  C   UNL     1      10.134  12.460  19.039  0.00  0.00    +0.000 A 
ATOM     11  C   UNL     1       9.693  11.691  20.130  0.00  0.00    +0.000 A 
ATOM     12 CL   UNL     1       9.811  12.274  21.759  0.00  0.00    +0.000 Cl
ATOM     13  C   UNL     1       9.128  10.427  19.934  0.00  0.00    +0.000 A 
BRANCH  10  14
ATOM     14  C   UNL     1      10.700  13.763  19.207  0.00  0.00    +0.000 C 
ATOM     15  N   UNL     1      11.126  14.838  19.326  0.00  0.00    +0.000 NA
ENDBRANCH  10  14
ENDBRANCH   5   7
ENDBRANCH   1   2
BRANCH   1  17
ATOM     16  C   UNL     1       5.893   4.417  15.730  0.00  0.00    +0.000 C 
ATOM     17  C   UNL     1       5.405   5.348  16.844  0.00  0.00    +0.000 C 
BRANCH  17  18
ATOM     18  N   UNL     1       3.942   5.228  16.925  0.00  0.00    +0.000 N 
ATOM     19  H   UNL     1       3.563   4.495  16.336  0.00  0.00    +0.000 HD
BRANCH  18  20
ATOM     20  C   UNL     1       3.333   5.152  18.188  0.00  0.00    +0.000 A 
ATOM     21  N   UNL     1       3.421   3.994  18.880  0.00  0.00    +0.000 NA
ATOM     22  C   UNL     1       2.855   3.948  20.104  0.00  0.00    +0.000 A 
ATOM     23  C   UNL     1       2.236   5.022  20.714  0.00  0.00    +0.000 A 
ATOM     24  C   UNL     1       2.162   6.231  20.023  0.00  0.00    +0.000 A 
ATOM     25  C   UNL     1       1.590   7.368  20.624  0.00  0.00    +0.000 A 
ATOM     26  C   UNL     1       1.492   8.573  19.929  0.00  0.00    +0.000 A 
ATOM     27  C   UNL     1       1.934   8.648  18.616  0.00  0.00    +0.000 A 
ATOM     28  C   UNL     1       2.524   7.532  18.015  0.00  0.00    +0.000 A 
ATOM     29  C   UNL     1       2.679   6.306  18.711  0.00  0.00    +0.000 A 
ENDBRANCH  18  20
ENDBRANCH  17  18
ENDBRANCH   1  17
TORSDOF 6
ENDMDL
MODEL 9
REMARK VINA RESULT:      -7.8      1.962      3.200
REMARK  Name = 
REMARK  7 active torsions:
REMARK  status: ('A' for Active; 'I' for Inactive)
REMARK    1  A    between atoms: C_1  and  C_2
REMARK    2  A    between atoms: C_2  and  C_3
REMARK    3  A    between atoms: C_2  and  N_18
REMARK    4  A    between atoms: C_3  and  N_4
REMARK    5  A    between atoms: C_7  and  C_8
REMARK    6  A    between atoms: C_11  and  C_12
REMARK    7  A    between atoms: N_18  and  C_19
REMARK                            x       y       z     vdW  Elec       q    Type
REMARK                         _______ _______ _______ _____ _____    ______ ____
ROOT
ATOM      1  C   UNL     1       2.410   3.395  17.648  0.00  0.00    +0.000 C 
ENDROOT
BRANCH   1   2
ATOM      2  N   UNL     1       2.362   4.477  18.616  0.00  0.00    +0.000 N 
ATOM      3  C   UNL     1       2.362   4.366  19.980  0.00  0.00    +0.000 A 
ATOM      4  C   UNL     1       2.196   5.643  20.466  0.00  0.00    +0.000 A 
ATOM      5  C   UNL     1       2.079   6.471  19.320  0.00  0.00    +0.000 A 
ATOM      6  N   UNL     1       2.172   5.738  18.204  0.00  0.00    +0.000 NA
BRANCH   5   7
ATOM      7  C   UNL     1       1.864   7.912  19.234  0.00  0.00    +0.000 A 
ATOM      8  C   UNL     1       2.231   8.593  18.063  0.00  0.00    +0.000 A 
ATOM      9  C   UNL     1       1.991   9.962  17.932  0.00  0.00    +0.000 A 
ATOM     10  C   UNL     1       1.370  10.671  18.965  0.00  0.00    +0.000 A 
ATOM     11  C   UNL     1       1.005   9.988  20.138  0.00  0.00    +0.000 A 
ATOM     12 CL   UNL     1       0.219  10.798  21.454  0.00  0.00    +0.000 Cl
ATOM     13  C   UNL     1       1.256   8.619  20.277  0.00  0.00    +0.000 A 
BRANCH  10  14
ATOM     14  C   UNL     1       1.111  12.067  18.787  0.00  0.00    +0.000 C 
ATOM     15  N   UNL     1       0.939  13.209  18.653  0.00  0.00    +0.000 NA
ENDBRANCH  10  14
ENDBRANCH   5   7
ENDBRANCH   1   2
BRANCH   1  17
ATOM     16  C   UNL     1       3.425   1.336  18.743  0.00  0.00    +0.000 C 
ATOM     17  C   UNL     1       3.634   2.448  17.709  0.00  0.00    +0.000 C 
BRANCH  17  18
ATOM     18  N   UNL     1       4.905   3.119  18.017  0.00  0.00    +0.000 N 
ATOM     19  H   UNL     1       5.658   2.477  18.236  0.00  0.00    +0.000 HD
BRANCH  18  20
ATOM     20  C   UNL     1       5.388   4.100  17.136  0.00  0.00    +0.000 A 
ATOM     21  N   UNL     1       4.919   4.119  15.868  0.00  0.00    +0.000 NA
ATOM     22  C   UNL     1       5.373   5.087  15.045  0.00  0.00    +0.000 A 
ATOM     23  C   UNL     1       6.247   6.085  15.427  0.00  0.00    +0.000 A 
ATOM     24  C   UNL     1       6.719   6.094  16.739  0.00  0.00    +0.000 A 
ATOM     25  C   UNL     1       7.568   7.121  17.191  0.00  0.00    +0.000 A 
ATOM     26  C   UNL     1       8.062   7.121  18.496  0.00  0.00    +0.000 A 
ATOM     27  C   UNL     1       7.740   6.079  19.353  0.00  0.00    +0.000 A 
ATOM     28  C   UNL     1       6.880   5.064  18.923  0.00  0.00    +0.000 A 
ATOM     29  C   UNL     1       6.325   5.060  17.619  0.00  0.00    +0.000 A 
ENDBRANCH  18  20
ENDBRANCH  17  18
ENDBRANCH   1  17
TORSDOF 6
ENDMDL
