MODEL 1
REMARK VINA RESULT:      -7.7      0.000      0.000
REMARK  Name = 
REMARK  5 active torsions:
REMARK  status: ('A' for Active; 'I' for Inactive)
REMARK    1  A    between atoms: C_1  and  C_2
REMARK    2  A    between atoms: C_2  and  C_3
REMARK    3  A    between atoms: N_5  and  C_6
REMARK    4  A    between atoms: N_14  and  C_15
REMARK    5  A    between atoms: C_15  and  C_16
REMARK                            x       y       z     vdW  Elec       q    Type
REMARK                         _______ _______ _______ _____ _____    ______ ____
ROOT
ATOM      1  C   UNL     1       4.104   3.898  17.123  0.00  0.00    +0.000 C 
ATOM      2  C   UNL     1       3.288   2.731  17.682  0.00  0.00    +0.000 C 
ATOM      3  C   UNL     1       2.614   3.051  18.994  0.00  0.00    +0.000 A 
ATOM      4  C   UNL     1       2.137   1.977  19.769  0.00  0.00    +0.000 A 
ATOM      5  C   UNL     1       1.510   2.205  20.989  0.00  0.00    +0.000 A 
ATOM      6  C   UNL     1       1.341   3.508  21.434  0.00  0.00    +0.000 A 
ATOM      7  C   UNL     1       1.799   4.578  20.657  0.00  0.00    +0.000 A 
ATOM      8  C   UNL     1       2.443   4.385  19.424  0.00  0.00    +0.000 A 
ATOM      9  N   UNL     1       2.891   5.453  18.652  0.00  0.00    +0.000 N 
ATOM     10  C   UNL     1       3.295   5.196  17.261  0.00  0.00    +0.000 C 
ENDROOT
BRANCH   1  13
ATOM     11  C   UNL     1       6.473   4.619  17.123  0.00  0.00    +0.000 C 
ATOM     12  O   UNL     1       6.365   5.159  16.025  0.00  0.00    +0.000 OA
ATOM     13  N   UNL     1       5.431   3.977  17.749  0.00  0.00    +0.000 N 
ATOM     14  H   UNL     1       5.483   3.801  18.745  0.00  0.00    +0.000 HD
BRANCH  11  16
ATOM     15  C   UNL     1       7.865   5.735  18.903  0.00  0.00    +0.000 C 
ATOM     16  C   UNL     1       7.783   4.612  17.884  0.00  0.00    +0.000 C 
ENDBRANCH  11  16
ENDBRANCH   1  13
BRANCH   9  17
ATOM     17  C   UNL     1       3.285   6.727  19.264  0.00  0.00    +0.000 C 
BRANCH  17  18
ATOM     18  C   UNL     1       2.243   7.828  19.182  0.00  0.00    +0.000 A 
ATOM     19  C   UNL     1       1.582   8.228  20.358  0.00  0.00    +0.000 A 
ATOM     20  C   UNL     1       0.655   9.274  20.346  0.00  0.00    +0.000 A 
ATOM     21  C   UNL     1       0.383   9.945  19.155  0.00  0.00    +0.000 A 
ATOM     22  C   UNL     1       1.036   9.567  17.982  0.00  0.00    +0.000 A 
ATOM     23  C   UNL     1       1.961   8.519  17.995  0.00  0.00    +0.000 A 
ENDBRANCH  17  18
ENDBRANCH   9  17
TORSDOF 4
ENDMDL
MODEL 2
REMARK VINA RESULT:      -7.5      0.117      1.034
REMARK  Name = 
REMARK  5 active torsions:
REMARK  status: ('A' for Active; 'I' for Inactive)
REMARK    1  A    between atoms: C_1  and  C_2
REMARK    2  A    between atoms: C_2  and  C_3
REMARK    3  A    between atoms: N_5  and  C_6
REMARK    4  A    between atoms: N_14  and  C_15
REMARK    5  A    between atoms: C_15  and  C_16
REMARK                            x       y       z     vdW  Elec       q    Type
REMARK                         _______ _______ _______ _____ _____    ______ ____
ROOT
ATOM      1  C   UNL     1       4.099   4.045  17.082  0.00  0.00    +0.000 C 
ATOM      2  C   UNL     1       3.265   2.867  17.590  0.00  0.00    +0.000 C 
ATOM      3  C   UNL     1       2.581   3.147  18.907  0.00  0.00    +0.000 A 
ATOM      4  C   UNL     1       2.086   2.050  19.639  0.00  0.00    +0.000 A 
ATOM      5  C   UNL     1       1.450   2.241  20.860  0.00  0.00    +0.000 A 
ATOM      6  C   UNL     1       1.290   3.529  21.350  0.00  0.00    +0.000 A 
ATOM      7  C   UNL     1       1.766   4.621  20.616  0.00  0.00    +0.000 A 
ATOM      8  C   UNL     1       2.420   4.466  19.383  0.00  0.00    +0.000 A 
ATOM      9  N   UNL     1       2.887   5.556  18.655  0.00  0.00    +0.000 N 
ATOM     10  C   UNL     1       3.302   5.345  17.259  0.00  0.00    +0.000 C 
ENDROOT
BRANCH   1  13
ATOM     11  C   UNL     1       6.503   4.636  17.078  0.00  0.00    +0.000 C 
ATOM     12  O   UNL     1       6.439   5.120  15.951  0.00  0.00    +0.000 OA
ATOM     13  N   UNL     1       5.420   4.087  17.723  0.00  0.00    +0.000 N 
ATOM     14  H   UNL     1       5.450   3.963  18.727  0.00  0.00    +0.000 HD
BRANCH  11  16
ATOM     15  C   UNL     1       7.848   5.656  18.950  0.00  0.00    +0.000 C 
ATOM     16  C   UNL     1       7.801   4.601  17.859  0.00  0.00    +0.000 C 
ENDBRANCH  11  16
ENDBRANCH   1  13
BRANCH   9  17
ATOM     17  C   UNL     1       3.288   6.803  19.316  0.00  0.00    +0.000 C 
BRANCH  17  18
ATOM     18  C   UNL     1       2.252   7.912  19.278  0.00  0.00    +0.000 A 
ATOM     19  C   UNL     1       1.964   8.534  18.049  0.00  0.00    +0.000 A 
ATOM     20  C   UNL     1       0.979   9.520  17.950  0.00  0.00    +0.000 A 
ATOM     21  C   UNL     1       0.257   9.893  19.083  0.00  0.00    +0.000 A 
ATOM     22  C   UNL     1       0.523   9.280  20.307  0.00  0.00    +0.000 A 
ATOM     23  C   UNL     1       1.510   8.295  20.404  0.00  0.00    +0.000 A 
ENDBRANCH  17  18
ENDBRANCH   9  17
TORSDOF 4
ENDMDL
MODEL 3
REMARK VINA RESULT:      -7.5      2.085      5.025
REMARK  Name = 
REMARK  5 active torsions:
REMARK  status: ('A' for Active; 'I' for Inactive)
REMARK    1  A    between atoms: C_1  and  C_2
REMARK    2  A    between atoms: C_2  and  C_3
REMARK    3  A    between atoms: N_5  and  C_6
REMARK    4  A    between atoms: N_14  and  C_15
REMARK    5  A    between atoms: C_15  and  C_16
REMARK                            x       y       z     vdW  Elec       q    Type
REMARK                         _______ _______ _______ _____ _____    ______ ____
ROOT
ATOM      1  C   UNL     1       6.507   5.119  16.708  0.00  0.00    +0.000 C 
ATOM      2  C   UNL     1       6.052   6.568  16.888  0.00  0.00    +0.000 C 
ATOM      3  C   UNL     1       4.619   6.688  17.349  0.00  0.00    +0.000 A 
ATOM      4  C   UNL     1       3.987   7.939  17.213  0.00  0.00    +0.000 A 
ATOM      5  C   UNL     1       2.667   8.114  17.615  0.00  0.00    +0.000 A 
ATOM      6  C   UNL     1       1.978   7.046  18.170  0.00  0.00    +0.000 A 
ATOM      7  C   UNL     1       2.610   5.808  18.321  0.00  0.00    +0.000 A 
ATOM      8  C   UNL     1       3.939   5.592  17.920  0.00  0.00    +0.000 A 
ATOM      9  N   UNL     1       4.565   4.359  18.078  0.00  0.00    +0.000 N 
ATOM     10  C   UNL     1       6.024   4.282  17.902  0.00  0.00    +0.000 C 
ENDROOT
BRANCH   1  13
ATOM     11  C   UNL     1       6.836   4.761  14.280  0.00  0.00    +0.000 C 
ATOM     12  O   UNL     1       7.899   5.376  14.278  0.00  0.00    +0.000 OA
ATOM     13  N   UNL     1       6.078   4.575  15.413  0.00  0.00    +0.000 N 
ATOM     14  H   UNL     1       5.379   3.843  15.428  0.00  0.00    +0.000 HD
BRANCH  11  16
ATOM     15  C   UNL     1       7.255   4.163  11.867  0.00  0.00    +0.000 C 
ATOM     16  C   UNL     1       6.263   4.151  13.016  0.00  0.00    +0.000 C 
ENDBRANCH  11  16
ENDBRANCH   1  13
BRANCH   9  17
ATOM     17  C   UNL     1       3.800   3.106  18.080  0.00  0.00    +0.000 C 
BRANCH  17  18
ATOM     18  C   UNL     1       2.872   2.923  19.266  0.00  0.00    +0.000 A 
ATOM     19  C   UNL     1       3.425   2.827  20.556  0.00  0.00    +0.000 A 
ATOM     20  C   UNL     1       2.611   2.715  21.687  0.00  0.00    +0.000 A 
ATOM     21  C   UNL     1       1.224   2.707  21.543  0.00  0.00    +0.000 A 
ATOM     22  C   UNL     1       0.659   2.810  20.273  0.00  0.00    +0.000 A 
ATOM     23  C   UNL     1       1.475   2.921  19.143  0.00  0.00    +0.000 A 
ENDBRANCH  17  18
ENDBRANCH   9  17
TORSDOF 4
ENDMDL
MODEL 4
REMARK VINA RESULT:      -7.5      2.016      4.963
REMARK  Name = 
REMARK  5 active torsions:
REMARK  status: ('A' for Active; 'I' for Inactive)
REMARK    1  A    between atoms: C_1  and  C_2
REMARK    2  A    between atoms: C_2  and  C_3
REMARK    3  A    between atoms: N_5  and  C_6
REMARK    4  A    between atoms: N_14  and  C_15
REMARK    5  A    between atoms: C_15  and  C_16
REMARK                            x       y       z     vdW  Elec       q    Type
REMARK                         _______ _______ _______ _____ _____    ______ ____
ROOT
ATOM      1  C   UNL     1       6.670   5.801  16.844  0.00  0.00    +0.000 C 
ATOM      2  C   UNL     1       5.787   7.050  16.847  0.00  0.00    +0.000 C 
ATOM      3  C   UNL     1       4.570   6.916  17.731  0.00  0.00    +0.000 A 
ATOM      4  C   UNL     1       3.520   7.836  17.550  0.00  0.00    +0.000 A 
ATOM      5  C   UNL     1       2.371   7.764  18.329  0.00  0.00    +0.000 A 
ATOM      6  C   UNL     1       2.271   6.783  19.304  0.00  0.00    +0.000 A 
ATOM      7  C   UNL     1       3.321   5.878  19.498  0.00  0.00    +0.000 A 
ATOM      8  C   UNL     1       4.493   5.916  18.725  0.00  0.00    +0.000 A 
ATOM      9  N   UNL     1       5.537   5.018  18.924  0.00  0.00    +0.000 N 
ATOM     10  C   UNL     1       6.832   5.289  18.282  0.00  0.00    +0.000 C 
ENDROOT
BRANCH   1  13
ATOM     11  C   UNL     1       6.653   4.655  14.648  0.00  0.00    +0.000 C 
ATOM     12  O   UNL     1       7.545   5.373  14.205  0.00  0.00    +0.000 OA
ATOM     13  N   UNL     1       6.154   4.778  15.924  0.00  0.00    +0.000 N 
ATOM     14  H   UNL     1       5.638   4.008  16.332  0.00  0.00    +0.000 HD
BRANCH  11  16
ATOM     15  C   UNL     1       6.477   3.601  12.366  0.00  0.00    +0.000 C 
ATOM     16  C   UNL     1       6.018   3.562  13.812  0.00  0.00    +0.000 C 
ENDBRANCH  11  16
ENDBRANCH   1  13
BRANCH   9  17
ATOM     17  C   UNL     1       5.297   3.673  19.460  0.00  0.00    +0.000 C 
BRANCH  17  18
ATOM     18  C   UNL     1       3.940   3.080  19.124  0.00  0.00    +0.000 A 
ATOM     19  C   UNL     1       3.037   2.810  20.168  0.00  0.00    +0.000 A 
ATOM     20  C   UNL     1       1.755   2.318  19.907  0.00  0.00    +0.000 A 
ATOM     21  C   UNL     1       1.353   2.097  18.591  0.00  0.00    +0.000 A 
ATOM     22  C   UNL     1       2.233   2.368  17.543  0.00  0.00    +0.000 A 
ATOM     23  C   UNL     1       3.515   2.859  17.806  0.00  0.00    +0.000 A 
ENDBRANCH  17  18
ENDBRANCH   9  17
TORSDOF 4
ENDMDL
MODEL 5
REMARK VINA RESULT:      -7.4      1.019      1.172
REMARK  Name = 
REMARK  5 active torsions:
REMARK  status: ('A' for Active; 'I' for Inactive)
REMARK    1  A    between atoms: C_1  and  C_2
REMARK    2  A    between atoms: C_2  and  C_3
REMARK    3  A    between atoms: N_5  and  C_6
REMARK    4  A    between atoms: N_14  and  C_15
REMARK    5  A    between atoms: C_15  and  C_16
REMARK                            x       y       z     vdW  Elec       q    Type
REMARK                         _______ _______ _______ _____ _____    ______ ____
ROOT
ATOM      1  C   UNL     1       4.116   5.260  17.182  0.00  0.00    +0.000 C 
ATOM      2  C   UNL     1       3.475   3.885  17.373  0.00  0.00    +0.000 C 
ATOM      3  C   UNL     1       2.664   3.777  18.641  0.00  0.00    +0.000 A 
ATOM      4  C   UNL     1       2.325   2.490  19.100  0.00  0.00    +0.000 A 
ATOM      5  C   UNL     1       1.583   2.323  20.264  0.00  0.00    +0.000 A 
ATOM      6  C   UNL     1       1.162   3.441  20.967  0.00  0.00    +0.000 A 
ATOM      7  C   UNL     1       1.483   4.722  20.504  0.00  0.00    +0.000 A 
ATOM      8  C   UNL     1       2.237   4.928  19.337  0.00  0.00    +0.000 A 
ATOM      9  N   UNL     1       2.549   6.205  18.878  0.00  0.00    +0.000 N 
ATOM     10  C   UNL     1       3.089   6.351  17.517  0.00  0.00    +0.000 C 
ENDROOT
BRANCH   1  13
ATOM     11  C   UNL     1       6.394   6.178  17.504  0.00  0.00    +0.000 C 
ATOM     12  O   UNL     1       6.342   6.820  16.459  0.00  0.00    +0.000 OA
ATOM     13  N   UNL     1       5.362   5.386  17.951  0.00  0.00    +0.000 N 
ATOM     14  H   UNL     1       5.333   5.111  18.925  0.00  0.00    +0.000 HD
BRANCH  11  16
ATOM     15  C   UNL     1       8.259   7.578  18.461  0.00  0.00    +0.000 C 
ATOM     16  C   UNL     1       7.617   6.203  18.398  0.00  0.00    +0.000 C 
ENDBRANCH  11  16
ENDBRANCH   1  13
BRANCH   9  17
ATOM     17  C   UNL     1       2.673   7.340  19.799  0.00  0.00    +0.000 C 
BRANCH  17  18
ATOM     18  C   UNL     1       1.545   8.353  19.724  0.00  0.00    +0.000 A 
ATOM     19  C   UNL     1       0.764   8.588  20.871  0.00  0.00    +0.000 A 
ATOM     20  C   UNL     1      -0.249   9.551  20.871  0.00  0.00    +0.000 A 
ATOM     21  C   UNL     1      -0.490  10.303  19.722  0.00  0.00    +0.000 A 
ATOM     22  C   UNL     1       0.281  10.089  18.580  0.00  0.00    +0.000 A 
ATOM     23  C   UNL     1       1.293   9.125  18.581  0.00  0.00    +0.000 A 
ENDBRANCH  17  18
ENDBRANCH   9  17
TORSDOF 4
ENDMDL
MODEL 6
REMARK VINA RESULT:      -7.4      2.100      5.089
REMARK  Name = 
REMARK  5 active torsions:
REMARK  status: ('A' for Active; 'I' for Inactive)
REMARK    1  A    between atoms: C_1  and  C_2
REMARK    2  A    between atoms: C_2  and  C_3
REMARK    3  A    between atoms: N_5  and  C_6
REMARK    4  A    between atoms: N_14  and  C_15
REMARK    5  A    between atoms: C_15  and  C_16
REMARK                            x       y       z     vdW  Elec       q    Type
REMARK                         _______ _______ _______ _____ _____    ______ ____
ROOT
ATOM      1  C   UNL     1       6.583   5.082  16.677  0.00  0.00    +0.000 C 
ATOM      2  C   UNL     1       6.123   6.533  16.826  0.00  0.00    +0.000 C 
ATOM      3  C   UNL     1       4.708   6.659  17.335  0.00  0.00    +0.000 A 
ATOM      4  C   UNL     1       4.061   7.901  17.182  0.00  0.00    +0.000 A 
ATOM      5  C   UNL     1       2.756   8.081  17.627  0.00  0.00    +0.000 A 
ATOM      6  C   UNL     1       2.096   7.028  18.242  0.00  0.00    +0.000 A 
ATOM      7  C   UNL     1       2.743   5.799  18.411  0.00  0.00    +0.000 A 
ATOM      8  C   UNL     1       4.057   5.578  17.967  0.00  0.00    +0.000 A 
ATOM      9  N   UNL     1       4.698   4.355  18.142  0.00  0.00    +0.000 N 
ATOM     10  C   UNL     1       6.150   4.282  17.914  0.00  0.00    +0.000 C 
ENDROOT
BRANCH   1  13
ATOM     11  C   UNL     1       6.802   4.680  14.243  0.00  0.00    +0.000 C 
ATOM     12  O   UNL     1       7.839   5.335  14.173  0.00  0.00    +0.000 OA
ATOM     13  N   UNL     1       6.110   4.493  15.416  0.00  0.00    +0.000 N 
ATOM     14  H   UNL     1       5.441   3.736  15.483  0.00  0.00    +0.000 HD
BRANCH  11  16
ATOM     15  C   UNL     1       7.146   3.984  11.845  0.00  0.00    +0.000 C 
ATOM     16  C   UNL     1       6.190   4.021  13.024  0.00  0.00    +0.000 C 
ENDBRANCH  11  16
ENDBRANCH   1  13
BRANCH   9  17
ATOM     17  C   UNL     1       3.944   3.099  18.214  0.00  0.00    +0.000 C 
BRANCH  17  18
ATOM     18  C   UNL     1       2.990   2.989  19.389  0.00  0.00    +0.000 A 
ATOM     19  C   UNL     1       1.606   2.932  19.140  0.00  0.00    +0.000 A 
ATOM     20  C   UNL     1       0.689   2.774  20.183  0.00  0.00    +0.000 A 
ATOM     21  C   UNL     1       1.146   2.660  21.495  0.00  0.00    +0.000 A 
ATOM     22  C   UNL     1       2.514   2.706  21.759  0.00  0.00    +0.000 A 
ATOM     23  C   UNL     1       3.430   2.865  20.715  0.00  0.00    +0.000 A 
ENDBRANCH  17  18
ENDBRANCH   9  17
TORSDOF 4
ENDMDL
MODEL 7
REMARK VINA RESULT:      -7.4      2.036      5.097
REMARK  Name = 
REMARK  5 active torsions:
REMARK  status: ('A' for Active; 'I' for Inactive)
REMARK    1  A    between atoms: C_1  and  C_2
REMARK    2  A    between atoms: C_2  and  C_3
REMARK    3  A    between atoms: N_5  and  C_6
REMARK    4  A    between atoms: N_14  and  C_15
REMARK    5  A    between atoms: C_15  and  C_16
REMARK                            x       y       z     vdW  Elec       q    Type
REMARK                         _______ _______ _______ _____ _____    ______ ____
ROOT
ATOM      1  C   UNL     1       6.715   5.759  16.788  0.00  0.00    +0.000 C 
ATOM      2  C   UNL     1       5.853   7.023  16.795  0.00  0.00    +0.000 C 
ATOM      3  C   UNL     1       4.633   6.906  17.676  0.00  0.00    +0.000 A 
ATOM      4  C   UNL     1       3.599   7.845  17.497  0.00  0.00    +0.000 A 
ATOM      5  C   UNL     1       2.447   7.790  18.274  0.00  0.00    +0.000 A 
ATOM      6  C   UNL     1       2.329   6.807  19.245  0.00  0.00    +0.000 A 
ATOM      7  C   UNL     1       3.363   5.884  19.436  0.00  0.00    +0.000 A 
ATOM      8  C   UNL     1       4.537   5.905  18.666  0.00  0.00    +0.000 A 
ATOM      9  N   UNL     1       5.565   4.988  18.864  0.00  0.00    +0.000 N 
ATOM     10  C   UNL     1       6.866   5.239  18.225  0.00  0.00    +0.000 C 
ENDROOT
BRANCH   1  13
ATOM     11  C   UNL     1       6.652   4.651  14.574  0.00  0.00    +0.000 C 
ATOM     12  O   UNL     1       7.529   5.382  14.122  0.00  0.00    +0.000 OA
ATOM     13  N   UNL     1       6.183   4.749  15.863  0.00  0.00    +0.000 N 
ATOM     14  H   UNL     1       5.682   3.969  16.270  0.00  0.00    +0.000 HD
BRANCH  11  16
ATOM     15  C   UNL     1       6.520   3.558  12.307  0.00  0.00    +0.000 C 
ATOM     16  C   UNL     1       6.004   3.568  13.735  0.00  0.00    +0.000 C 
ENDBRANCH  11  16
ENDBRANCH   1  13
BRANCH   9  17
ATOM     17  C   UNL     1       5.301   3.645  19.394  0.00  0.00    +0.000 C 
BRANCH  17  18
ATOM     18  C   UNL     1       3.895   3.125  19.155  0.00  0.00    +0.000 A 
ATOM     19  C   UNL     1       3.496   2.819  17.840  0.00  0.00    +0.000 A 
ATOM     20  C   UNL     1       2.233   2.284  17.574  0.00  0.00    +0.000 A 
ATOM     21  C   UNL     1       1.350   2.038  18.624  0.00  0.00    +0.000 A 
ATOM     22  C   UNL     1       1.732   2.328  19.933  0.00  0.00    +0.000 A 
ATOM     23  C   UNL     1       2.996   2.863  20.198  0.00  0.00    +0.000 A 
ENDBRANCH  17  18
ENDBRANCH   9  17
TORSDOF 4
ENDMDL
MODEL 8
REMARK VINA RESULT:      -7.4      0.942      1.463
REMARK  Name = 
REMARK  5 active torsions:
REMARK  status: ('A' for Active; 'I' for Inactive)
REMARK    1  A    between atoms: C_1  and  C_2
REMARK    2  A    between atoms: C_2  and  C_3
REMARK    3  A    between atoms: N_5  and  C_6
REMARK    4  A    between atoms: N_14  and  C_15
REMARK    5  A    between atoms: C_15  and  C_16
REMARK                            x       y       z     vdW  Elec       q    Type
REMARK                         _______ _______ _______ _____ _____    ______ ____
ROOT
ATOM      1  C   UNL     1       3.910   5.130  17.113  0.00  0.00    +0.000 C 
ATOM      2  C   UNL     1       3.180   3.790  17.208  0.00  0.00    +0.000 C 
ATOM      3  C   UNL     1       2.429   3.613  18.506  0.00  0.00    +0.000 A 
ATOM      4  C   UNL     1       2.019   2.312  18.858  0.00  0.00    +0.000 A 
ATOM      5  C   UNL     1       1.328   2.082  20.042  0.00  0.00    +0.000 A 
ATOM      6  C   UNL     1       1.027   3.151  20.872  0.00  0.00    +0.000 A 
ATOM      7  C   UNL     1       1.417   4.446  20.516  0.00  0.00    +0.000 A 
ATOM      8  C   UNL     1       2.124   4.715  19.333  0.00  0.00    +0.000 A 
ATOM      9  N   UNL     1       2.506   6.007  18.980  0.00  0.00    +0.000 N 
ATOM     10  C   UNL     1       2.985   6.250  17.611  0.00  0.00    +0.000 C 
ENDROOT
BRANCH   1  13
ATOM     11  C   UNL     1       6.315   5.696  17.285  0.00  0.00    +0.000 C 
ATOM     12  O   UNL     1       6.307   6.294  16.213  0.00  0.00    +0.000 OA
ATOM     13  N   UNL     1       5.199   5.093  17.817  0.00  0.00    +0.000 N 
ATOM     14  H   UNL     1       5.180   4.866  18.804  0.00  0.00    +0.000 HD
BRANCH  11  16
ATOM     15  C   UNL     1       8.070   6.910  18.626  0.00  0.00    +0.000 C 
ATOM     16  C   UNL     1       7.574   5.568  18.119  0.00  0.00    +0.000 C 
ENDBRANCH  11  16
ENDBRANCH   1  13
BRANCH   9  17
ATOM     17  C   UNL     1       2.761   7.034  19.997  0.00  0.00    +0.000 C 
BRANCH  17  18
ATOM     18  C   UNL     1       1.684   8.097  20.119  0.00  0.00    +0.000 A 
ATOM     19  C   UNL     1       1.479   8.985  19.047  0.00  0.00    +0.000 A 
ATOM     20  C   UNL     1       0.464   9.945  19.087  0.00  0.00    +0.000 A 
ATOM     21  C   UNL     1      -0.371  10.023  20.200  0.00  0.00    +0.000 A 
ATOM     22  C   UNL     1      -0.187   9.145  21.268  0.00  0.00    +0.000 A 
ATOM     23  C   UNL     1       0.829   8.187  21.227  0.00  0.00    +0.000 A 
ENDBRANCH  17  18
ENDBRANCH   9  17
TORSDOF 4
ENDMDL
MODEL 9
REMARK VINA RESULT:      -7.3      1.366      1.720
REMARK  Name = 
REMARK  5 active torsions:
REMARK  status: ('A' for Active; 'I' for Inactive)
REMARK    1  A    between atoms: C_1  and  C_2
REMARK    2  A    between atoms: C_2  and  C_3
REMARK    3  A    between atoms: N_5  and  C_6
REMARK    4  A    between atoms: N_14  and  C_15
REMARK    5  A    between atoms: C_15  and  C_16
REMARK                            x       y       z     vdW  Elec       q    Type
REMARK                         _______ _______ _______ _____ _____    ______ ____
ROOT
ATOM      1  C   UNL     1       4.945   5.891  16.723  0.00  0.00    +0.000 C 
ATOM      2  C   UNL     1       4.367   4.505  16.438  0.00  0.00    +0.000 C 
ATOM      3  C   UNL     1       3.328   4.074  17.446  0.00  0.00    +0.000 A 
ATOM      4  C   UNL     1       2.987   2.709  17.498  0.00  0.00    +0.000 A 
ATOM      5  C   UNL     1       2.040   2.249  18.407  0.00  0.00    +0.000 A 
ATOM      6  C   UNL     1       1.418   3.151  19.256  0.00  0.00    +0.000 A 
ATOM      7  C   UNL     1       1.743   4.510  19.194  0.00  0.00    +0.000 A 
ATOM      8  C   UNL     1       2.700   5.010  18.295  0.00  0.00    +0.000 A 
ATOM      9  N   UNL     1       3.016   6.364  18.233  0.00  0.00    +0.000 N 
ATOM     10  C   UNL     1       3.805   6.852  17.092  0.00  0.00    +0.000 C 
ENDROOT
BRANCH   1  13
ATOM     11  C   UNL     1       7.085   6.682  17.687  0.00  0.00    +0.000 C 
ATOM     12  O   UNL     1       7.235   7.523  16.805  0.00  0.00    +0.000 OA
ATOM     13  N   UNL     1       6.003   5.836  17.742  0.00  0.00    +0.000 N 
ATOM     14  H   UNL     1       5.781   5.369  18.613  0.00  0.00    +0.000 HD
BRANCH  11  16
ATOM     15  C   UNL     1       7.665   5.459  19.814  0.00  0.00    +0.000 C 
ATOM     16  C   UNL     1       8.098   6.503  18.800  0.00  0.00    +0.000 C 
ENDBRANCH  11  16
ENDBRANCH   1  13
BRANCH   9  17
ATOM     17  C   UNL     1       2.883   7.236  19.407  0.00  0.00    +0.000 C 
BRANCH  17  18
ATOM     18  C   UNL     1       1.772   8.265  19.319  0.00  0.00    +0.000 A 
ATOM     19  C   UNL     1       1.113   8.659  20.499  0.00  0.00    +0.000 A 
ATOM     20  C   UNL     1       0.122   9.644  20.479  0.00  0.00    +0.000 A 
ATOM     21  C   UNL     1      -0.218  10.261  19.277  0.00  0.00    +0.000 A 
ATOM     22  C   UNL     1       0.431   9.889  18.100  0.00  0.00    +0.000 A 
ATOM     23  C   UNL     1       1.421   8.902  18.120  0.00  0.00    +0.000 A 
ENDBRANCH  17  18
ENDBRANCH   9  17
TORSDOF 4
ENDMDL
