MODEL 1
REMARK VINA RESULT:      -9.4      0.000      0.000
REMARK  Name = 
REMARK  3 active torsions:
REMARK  status: ('A' for Active; 'I' for Inactive)
REMARK    1  A    between atoms: C_5  and  C_6
REMARK    2  A    between atoms: C_9  and  N_10
REMARK    3  A    between atoms: N_18  and  C_19
REMARK                            x       y       z     vdW  Elec       q    Type
REMARK                         _______ _______ _______ _____ _____    ______ ____
ROOT
ATOM      1  O   UNL     1       2.940   1.595  18.609  0.00  0.00    +0.000 OA
ATOM      2  C   UNL     1       2.655   2.615  19.213  0.00  0.00    +0.000 C 
ATOM      3  N   UNL     1       1.636   2.651  20.160  0.00  0.00    +0.000 N 
ATOM      4  C   UNL     1       1.354   4.003  20.545  0.00  0.00    +0.000 C 
ATOM      5  C   UNL     1       2.636   4.757  20.169  0.00  0.00    +0.000 C 
ATOM      6  N   UNL     1       3.234   3.898  19.146  0.00  0.00    +0.000 N 
ATOM      7  H   UNL     1       1.013   1.860  20.243  0.00  0.00    +0.000 HD
ENDROOT
BRANCH   6   8
ATOM      8  C   UNL     1       4.371   4.240  18.358  0.00  0.00    +0.000 A 
ATOM      9  C   UNL     1       5.556   4.685  18.968  0.00  0.00    +0.000 A 
ATOM     10  C   UNL     1       6.712   5.003  18.235  0.00  0.00    +0.000 A 
ATOM     11  C   UNL     1       6.631   4.864  16.852  0.00  0.00    +0.000 A 
ATOM     12  N   UNL     1       7.531   5.081  15.842  0.00  0.00    +0.000 N 
ATOM     13  C   UNL     1       6.914   4.789  14.657  0.00  0.00    +0.000 A 
ATOM     14  N   UNL     1       5.675   4.396  14.840  0.00  0.00    +0.000 NA
ATOM     15  C   UNL     1       5.484   4.433  16.202  0.00  0.00    +0.000 A 
ATOM     16  C   UNL     1       4.344   4.120  16.958  0.00  0.00    +0.000 A 
ATOM     17  H   UNL     1       8.480   5.408  15.951  0.00  0.00    +0.000 HD
ENDBRANCH   6   8
BRANCH   5  18
ATOM     18  C   UNL     1       2.359   6.184  19.745  0.00  0.00    +0.000 A 
ATOM     19  C   UNL     1       2.538   6.565  18.411  0.00  0.00    +0.000 A 
ATOM     20  C   UNL     1       2.154   7.839  17.975  0.00  0.00    +0.000 A 
ATOM     21  C   UNL     1       1.609   8.792  18.848  0.00  0.00    +0.000 A 
ATOM     22  C   UNL     1       1.490   8.410  20.191  0.00  0.00    +0.000 A 
ATOM     23  C   UNL     1       1.852   7.133  20.637  0.00  0.00    +0.000 A 
BRANCH  21  24
ATOM     24  N   UNL     1       1.201  10.033  18.403  0.00  0.00    +0.000 N 
ATOM     25  C   UNL     1       2.155  11.082  18.039  0.00  0.00    +0.000 C 
ATOM     26  C   UNL     1       1.913  12.307  18.919  0.00  0.00    +0.000 C 
ATOM     27  C   UNL     1       0.455  12.760  18.833  0.00  0.00    +0.000 C 
ATOM     28  C   UNL     1      -0.504  11.608  19.130  0.00  0.00    +0.000 C 
ATOM     29  C   UNL     1      -0.210  10.384  18.260  0.00  0.00    +0.000 C 
ENDBRANCH  21  24
ENDBRANCH   5  18
TORSDOF 3
ENDMDL
MODEL 2
REMARK VINA RESULT:      -9.1      0.422      1.012
REMARK  Name = 
REMARK  3 active torsions:
REMARK  status: ('A' for Active; 'I' for Inactive)
REMARK    1  A    between atoms: C_5  and  C_6
REMARK    2  A    between atoms: C_9  and  N_10
REMARK    3  A    between atoms: N_18  and  C_19
REMARK                            x       y       z     vdW  Elec       q    Type
REMARK                         _______ _______ _______ _____ _____    ______ ____
ROOT
ATOM      1  O   UNL     1       3.729   1.684  19.049  0.00  0.00    +0.000 OA
ATOM      2  C   UNL     1       3.316   2.709  19.564  0.00  0.00    +0.000 C 
ATOM      3  N   UNL     1       2.378   2.692  20.592  0.00  0.00    +0.000 N 
ATOM      4  C   UNL     1       1.893   4.015  20.854  0.00  0.00    +0.000 C 
ATOM      5  C   UNL     1       2.993   4.919  20.281  0.00  0.00    +0.000 C 
ATOM      6  N   UNL     1       3.655   4.052  19.306  0.00  0.00    +0.000 N 
ATOM      7  H   UNL     1       1.911   1.825  20.817  0.00  0.00    +0.000 HD
ENDROOT
BRANCH   6   8
ATOM      8  C   UNL     1       4.653   4.478  18.383  0.00  0.00    +0.000 A 
ATOM      9  C   UNL     1       5.757   5.230  18.820  0.00  0.00    +0.000 A 
ATOM     10  C   UNL     1       6.782   5.645  17.953  0.00  0.00    +0.000 A 
ATOM     11  C   UNL     1       6.654   5.280  16.616  0.00  0.00    +0.000 A 
ATOM     12  N   UNL     1       7.434   5.504  15.512  0.00  0.00    +0.000 N 
ATOM     13  C   UNL     1       6.824   4.919  14.438  0.00  0.00    +0.000 A 
ATOM     14  N   UNL     1       5.701   4.330  14.780  0.00  0.00    +0.000 NA
ATOM     15  C   UNL     1       5.583   4.542  16.134  0.00  0.00    +0.000 A 
ATOM     16  C   UNL     1       4.574   4.138  17.021  0.00  0.00    +0.000 A 
ATOM     17  H   UNL     1       8.301   6.020  15.492  0.00  0.00    +0.000 HD
ENDBRANCH   6   8
BRANCH   5  18
ATOM     18  C   UNL     1       2.440   6.218  19.733  0.00  0.00    +0.000 A 
ATOM     19  C   UNL     1       1.819   7.131  20.591  0.00  0.00    +0.000 A 
ATOM     20  C   UNL     1       1.429   8.394  20.128  0.00  0.00    +0.000 A 
ATOM     21  C   UNL     1       1.610   8.786  18.795  0.00  0.00    +0.000 A 
ATOM     22  C   UNL     1       2.182   7.836  17.937  0.00  0.00    +0.000 A 
ATOM     23  C   UNL     1       2.595   6.577  18.391  0.00  0.00    +0.000 A 
BRANCH  21  24
ATOM     24  N   UNL     1       1.254  10.045  18.354  0.00  0.00    +0.000 N 
ATOM     25  C   UNL     1       2.250  11.038  17.947  0.00  0.00    +0.000 C 
ATOM     26  C   UNL     1       2.106  12.280  18.823  0.00  0.00    +0.000 C 
ATOM     27  C   UNL     1       0.672  12.811  18.784  0.00  0.00    +0.000 C 
ATOM     28  C   UNL     1      -0.337  11.715  19.126  0.00  0.00    +0.000 C 
ATOM     29  C   UNL     1      -0.140  10.471  18.257  0.00  0.00    +0.000 C 
ENDBRANCH  21  24
ENDBRANCH   5  18
TORSDOF 3
ENDMDL
MODEL 3
REMARK VINA RESULT:      -8.6      0.952      1.520
REMARK  Name = 
REMARK  3 active torsions:
REMARK  status: ('A' for Active; 'I' for Inactive)
REMARK    1  A    between atoms: C_5  and  C_6
REMARK    2  A    between atoms: C_9  and  N_10
REMARK    3  A    between atoms: N_18  and  C_19
REMARK                            x       y       z     vdW  Elec       q    Type
REMARK                         _______ _______ _______ _____ _____    ______ ____
ROOT
ATOM      1  O   UNL     1       3.664   1.107  18.067  0.00  0.00    +0.000 OA
ATOM      2  C   UNL     1       3.254   1.974  18.821  0.00  0.00    +0.000 C 
ATOM      3  N   UNL     1       2.305   1.709  19.803  0.00  0.00    +0.000 N 
ATOM      4  C   UNL     1       1.829   2.929  20.386  0.00  0.00    +0.000 C 
ATOM      5  C   UNL     1       2.943   3.935  20.069  0.00  0.00    +0.000 C 
ATOM      6  N   UNL     1       3.609   3.334  18.912  0.00  0.00    +0.000 N 
ATOM      7  H   UNL     1       1.827   0.818  19.798  0.00  0.00    +0.000 HD
ENDROOT
BRANCH   6   8
ATOM      8  C   UNL     1       4.621   3.968  18.135  0.00  0.00    +0.000 A 
ATOM      9  C   UNL     1       5.664   4.673  18.759  0.00  0.00    +0.000 A 
ATOM     10  C   UNL     1       6.701   5.287  18.037  0.00  0.00    +0.000 A 
ATOM     11  C   UNL     1       6.649   5.171  16.651  0.00  0.00    +0.000 A 
ATOM     12  N   UNL     1       7.462   5.631  15.648  0.00  0.00    +0.000 N 
ATOM     13  C   UNL     1       6.929   5.229  14.455  0.00  0.00    +0.000 A 
ATOM     14  N   UNL     1       5.826   4.538  14.625  0.00  0.00    +0.000 NA
ATOM     15  C   UNL     1       5.640   4.489  15.987  0.00  0.00    +0.000 A 
ATOM     16  C   UNL     1       4.617   3.884  16.733  0.00  0.00    +0.000 A 
ATOM     17  H   UNL     1       8.301   6.179  15.767  0.00  0.00    +0.000 HD
ENDBRANCH   6   8
BRANCH   5  18
ATOM     18  C   UNL     1       2.408   5.336  19.862  0.00  0.00    +0.000 A 
ATOM     19  C   UNL     1       1.737   5.990  20.900  0.00  0.00    +0.000 A 
ATOM     20  C   UNL     1       1.360   7.333  20.774  0.00  0.00    +0.000 A 
ATOM     21  C   UNL     1       1.606   8.067  19.605  0.00  0.00    +0.000 A 
ATOM     22  C   UNL     1       2.229   7.378  18.555  0.00  0.00    +0.000 A 
ATOM     23  C   UNL     1       2.628   6.041  18.675  0.00  0.00    +0.000 A 
BRANCH  21  24
ATOM     24  N   UNL     1       1.263   9.400  19.500  0.00  0.00    +0.000 N 
ATOM     25  C   UNL     1       1.122  10.263  20.674  0.00  0.00    +0.000 C 
ATOM     26  C   UNL     1      -0.298  10.823  20.718  0.00  0.00    +0.000 C 
ATOM     27  C   UNL     1      -0.647  11.526  19.406  0.00  0.00    +0.000 C 
ATOM     28  C   UNL     1      -0.397  10.617  18.203  0.00  0.00    +0.000 C 
ATOM     29  C   UNL     1       1.022  10.043  18.210  0.00  0.00    +0.000 C 
ENDBRANCH  21  24
ENDBRANCH   5  18
TORSDOF 3
ENDMDL
MODEL 4
REMARK VINA RESULT:      -8.3      4.031      8.933
REMARK  Name = 
REMARK  3 active torsions:
REMARK  status: ('A' for Active; 'I' for Inactive)
REMARK    1  A    between atoms: C_5  and  C_6
REMARK    2  A    between atoms: C_9  and  N_10
REMARK    3  A    between atoms: N_18  and  C_19
REMARK                            x       y       z     vdW  Elec       q    Type
REMARK                         _______ _______ _______ _____ _____    ______ ____
ROOT
ATOM      1  O   UNL     1      -0.095  14.874  18.565  0.00  0.00    +0.000 OA
ATOM      2  C   UNL     1       0.264  13.961  19.290  0.00  0.00    +0.000 C 
ATOM      3  N   UNL     1       1.322  14.102  20.183  0.00  0.00    +0.000 N 
ATOM      4  C   UNL     1       1.687  12.831  20.737  0.00  0.00    +0.000 C 
ATOM      5  C   UNL     1       0.428  11.977  20.530  0.00  0.00    +0.000 C 
ATOM      6  N   UNL     1      -0.253  12.659  19.429  0.00  0.00    +0.000 N 
ATOM      7  H   UNL     1       1.909  14.923  20.125  0.00  0.00    +0.000 HD
ENDROOT
BRANCH   6   8
ATOM      8  C   UNL     1      -1.403  12.161  18.751  0.00  0.00    +0.000 A 
ATOM      9  C   UNL     1      -2.655  12.138  19.389  0.00  0.00    +0.000 A 
ATOM     10  C   UNL     1      -3.823  11.687  18.751  0.00  0.00    +0.000 A 
ATOM     11  C   UNL     1      -3.685  11.248  17.437  0.00  0.00    +0.000 A 
ATOM     12  N   UNL     1      -4.578  10.749  16.525  0.00  0.00    +0.000 N 
ATOM     13  C   UNL     1      -3.894  10.468  15.375  0.00  0.00    +0.000 A 
ATOM     14  N   UNL     1      -2.618  10.757  15.487  0.00  0.00    +0.000 NA
ATOM     15  C   UNL     1      -2.472  11.248  16.764  0.00  0.00    +0.000 A 
ATOM     16  C   UNL     1      -1.322  11.706  17.424  0.00  0.00    +0.000 A 
ATOM     17  H   UNL     1      -5.565  10.604  16.678  0.00  0.00    +0.000 HD
ENDBRANCH   6   8
BRANCH   5  18
ATOM     18  C   UNL     1       0.757  10.518  20.295  0.00  0.00    +0.000 A 
ATOM     19  C   UNL     1       1.324  10.116  19.081  0.00  0.00    +0.000 A 
ATOM     20  C   UNL     1       1.762   8.798  18.900  0.00  0.00    +0.000 A 
ATOM     21  C   UNL     1       1.626   7.825  19.899  0.00  0.00    +0.000 A 
ATOM     22  C   UNL     1       1.003   8.233  21.087  0.00  0.00    +0.000 A 
ATOM     23  C   UNL     1       0.578   9.552  21.289  0.00  0.00    +0.000 A 
BRANCH  21  24
ATOM     24  N   UNL     1       2.091   6.537  19.726  0.00  0.00    +0.000 N 
ATOM     25  C   UNL     1       2.741   6.104  18.488  0.00  0.00    +0.000 C 
ATOM     26  C   UNL     1       1.950   4.945  17.885  0.00  0.00    +0.000 C 
ATOM     27  C   UNL     1       1.775   3.816  18.903  0.00  0.00    +0.000 C 
ATOM     28  C   UNL     1       1.179   4.334  20.211  0.00  0.00    +0.000 C 
ATOM     29  C   UNL     1       1.972   5.519  20.768  0.00  0.00    +0.000 C 
ENDBRANCH  21  24
ENDBRANCH   5  18
TORSDOF 3
ENDMDL
MODEL 5
REMARK VINA RESULT:      -8.2      2.246      2.901
REMARK  Name = 
REMARK  3 active torsions:
REMARK  status: ('A' for Active; 'I' for Inactive)
REMARK    1  A    between atoms: C_5  and  C_6
REMARK    2  A    between atoms: C_9  and  N_10
REMARK    3  A    between atoms: N_18  and  C_19
REMARK                            x       y       z     vdW  Elec       q    Type
REMARK                         _______ _______ _______ _____ _____    ______ ____
ROOT
ATOM      1  O   UNL     1       5.259   3.593  16.024  0.00  0.00    +0.000 OA
ATOM      2  C   UNL     1       4.387   4.007  16.769  0.00  0.00    +0.000 C 
ATOM      3  N   UNL     1       3.110   3.457  16.788  0.00  0.00    +0.000 N 
ATOM      4  C   UNL     1       2.223   4.267  17.570  0.00  0.00    +0.000 C 
ATOM      5  C   UNL     1       3.172   5.066  18.473  0.00  0.00    +0.000 C 
ATOM      6  N   UNL     1       4.434   5.034  17.732  0.00  0.00    +0.000 N 
ATOM      7  H   UNL     1       2.845   2.801  16.065  0.00  0.00    +0.000 HD
ENDROOT
BRANCH   6   8
ATOM      8  C   UNL     1       5.600   5.777  18.078  0.00  0.00    +0.000 A 
ATOM      9  C   UNL     1       6.530   5.261  18.997  0.00  0.00    +0.000 A 
ATOM     10  C   UNL     1       7.708   5.942  19.344  0.00  0.00    +0.000 A 
ATOM     11  C   UNL     1       7.919   7.175  18.734  0.00  0.00    +0.000 A 
ATOM     12  N   UNL     1       8.927   8.099  18.828  0.00  0.00    +0.000 N 
ATOM     13  C   UNL     1       8.618   9.146  18.005  0.00  0.00    +0.000 A 
ATOM     14  N   UNL     1       7.477   8.953  17.383  0.00  0.00    +0.000 NA
ATOM     15  C   UNL     1       7.031   7.729  17.823  0.00  0.00    +0.000 A 
ATOM     16  C   UNL     1       5.862   7.027  17.492  0.00  0.00    +0.000 A 
ATOM     17  H   UNL     1       9.747   8.026  19.411  0.00  0.00    +0.000 HD
ENDBRANCH   6   8
BRANCH   5  18
ATOM     18  C   UNL     1       2.635   6.445  18.792  0.00  0.00    +0.000 A 
ATOM     19  C   UNL     1       2.389   7.356  17.759  0.00  0.00    +0.000 A 
ATOM     20  C   UNL     1       1.763   8.581  18.022  0.00  0.00    +0.000 A 
ATOM     21  C   UNL     1       1.387   8.962  19.318  0.00  0.00    +0.000 A 
ATOM     22  C   UNL     1       1.693   8.060  20.346  0.00  0.00    +0.000 A 
ATOM     23  C   UNL     1       2.301   6.823  20.096  0.00  0.00    +0.000 A 
BRANCH  21  24
ATOM     24  N   UNL     1       0.739  10.156  19.565  0.00  0.00    +0.000 N 
ATOM     25  C   UNL     1       0.808  10.824  20.865  0.00  0.00    +0.000 C 
ATOM     26  C   UNL     1      -0.604  10.972  21.427  0.00  0.00    +0.000 C 
ATOM     27  C   UNL     1      -1.518  11.684  20.428  0.00  0.00    +0.000 C 
ATOM     28  C   UNL     1      -1.484  11.004  19.060  0.00  0.00    +0.000 C 
ATOM     29  C   UNL     1      -0.054  10.837  18.544  0.00  0.00    +0.000 C 
ENDBRANCH  21  24
ENDBRANCH   5  18
TORSDOF 3
ENDMDL
MODEL 6
REMARK VINA RESULT:      -8.2      1.289      2.178
REMARK  Name = 
REMARK  3 active torsions:
REMARK  status: ('A' for Active; 'I' for Inactive)
REMARK    1  A    between atoms: C_5  and  C_6
REMARK    2  A    between atoms: C_9  and  N_10
REMARK    3  A    between atoms: N_18  and  C_19
REMARK                            x       y       z     vdW  Elec       q    Type
REMARK                         _______ _______ _______ _____ _____    ______ ____
ROOT
ATOM      1  O   UNL     1       3.365   1.797  17.960  0.00  0.00    +0.000 OA
ATOM      2  C   UNL     1       2.945   2.613  18.763  0.00  0.00    +0.000 C 
ATOM      3  N   UNL     1       1.969   2.290  19.701  0.00  0.00    +0.000 N 
ATOM      4  C   UNL     1       1.490   3.471  20.356  0.00  0.00    +0.000 C 
ATOM      5  C   UNL     1       2.620   4.485  20.137  0.00  0.00    +0.000 C 
ATOM      6  N   UNL     1       3.309   3.960  18.958  0.00  0.00    +0.000 N 
ATOM      7  H   UNL     1       1.484   1.407  19.622  0.00  0.00    +0.000 HD
ENDROOT
BRANCH   6   8
ATOM      8  C   UNL     1       4.346   4.635  18.252  0.00  0.00    +0.000 A 
ATOM      9  C   UNL     1       4.322   4.714  16.849  0.00  0.00    +0.000 A 
ATOM     10  C   UNL     1       5.304   5.396  16.112  0.00  0.00    +0.000 A 
ATOM     11  C   UNL     1       6.326   5.997  16.841  0.00  0.00    +0.000 A 
ATOM     12  N   UNL     1       7.428   6.725  16.473  0.00  0.00    +0.000 N 
ATOM     13  C   UNL     1       8.105   7.069  17.610  0.00  0.00    +0.000 A 
ATOM     14  N   UNL     1       7.508   6.612  18.687  0.00  0.00    +0.000 NA
ATOM     15  C   UNL     1       6.397   5.946  18.226  0.00  0.00    +0.000 A 
ATOM     16  C   UNL     1       5.402   5.260  18.938  0.00  0.00    +0.000 A 
ATOM     17  H   UNL     1       7.698   6.957  15.529  0.00  0.00    +0.000 HD
ENDBRANCH   6   8
BRANCH   5  18
ATOM     18  C   UNL     1       2.104   5.903  20.017  0.00  0.00    +0.000 A 
ATOM     19  C   UNL     1       1.463   6.509  21.102  0.00  0.00    +0.000 A 
ATOM     20  C   UNL     1       1.104   7.862  21.055  0.00  0.00    +0.000 A 
ATOM     21  C   UNL     1       1.339   8.655  19.922  0.00  0.00    +0.000 A 
ATOM     22  C   UNL     1       1.931   8.015  18.825  0.00  0.00    +0.000 A 
ATOM     23  C   UNL     1       2.312   6.668  18.865  0.00  0.00    +0.000 A 
BRANCH  21  24
ATOM     24  N   UNL     1       1.014   9.997  19.896  0.00  0.00    +0.000 N 
ATOM     25  C   UNL     1       0.801  10.770  21.120  0.00  0.00    +0.000 C 
ATOM     26  C   UNL     1      -0.614  11.344  21.110  0.00  0.00    +0.000 C 
ATOM     27  C   UNL     1      -0.867  12.149  19.834  0.00  0.00    +0.000 C 
ATOM     28  C   UNL     1      -0.542  11.330  18.586  0.00  0.00    +0.000 C 
ATOM     29  C   UNL     1       0.867  10.738  18.645  0.00  0.00    +0.000 C 
ENDBRANCH  21  24
ENDBRANCH   5  18
TORSDOF 3
ENDMDL
MODEL 7
REMARK VINA RESULT:      -8.1      1.886      2.593
REMARK  Name = 
REMARK  3 active torsions:
REMARK  status: ('A' for Active; 'I' for Inactive)
REMARK    1  A    between atoms: C_5  and  C_6
REMARK    2  A    between atoms: C_9  and  N_10
REMARK    3  A    between atoms: N_18  and  C_19
REMARK                            x       y       z     vdW  Elec       q    Type
REMARK                         _______ _______ _______ _____ _____    ______ ____
ROOT
ATOM      1  O   UNL     1       4.747   2.816  16.561  0.00  0.00    +0.000 OA
ATOM      2  C   UNL     1       3.912   3.298  17.309  0.00  0.00    +0.000 C 
ATOM      3  N   UNL     1       2.641   2.749  17.447  0.00  0.00    +0.000 N 
ATOM      4  C   UNL     1       1.790   3.628  18.194  0.00  0.00    +0.000 C 
ATOM      5  C   UNL     1       2.780   4.511  18.966  0.00  0.00    +0.000 C 
ATOM      6  N   UNL     1       4.001   4.411  18.167  0.00  0.00    +0.000 N 
ATOM      7  H   UNL     1       2.344   2.027  16.804  0.00  0.00    +0.000 HD
ENDROOT
BRANCH   6   8
ATOM      8  C   UNL     1       5.178   5.186  18.379  0.00  0.00    +0.000 A 
ATOM      9  C   UNL     1       6.099   4.829  19.378  0.00  0.00    +0.000 A 
ATOM     10  C   UNL     1       7.288   5.542  19.603  0.00  0.00    +0.000 A 
ATOM     11  C   UNL     1       7.518   6.644  18.783  0.00  0.00    +0.000 A 
ATOM     12  N   UNL     1       8.540   7.555  18.715  0.00  0.00    +0.000 N 
ATOM     13  C   UNL     1       8.249   8.442  17.717  0.00  0.00    +0.000 A 
ATOM     14  N   UNL     1       7.106   8.159  17.135  0.00  0.00    +0.000 NA
ATOM     15  C   UNL     1       6.640   7.040  17.785  0.00  0.00    +0.000 A 
ATOM     16  C   UNL     1       5.461   6.308  17.580  0.00  0.00    +0.000 A 
ATOM     17  H   UNL     1       9.359   7.574  19.305  0.00  0.00    +0.000 HD
ENDBRANCH   6   8
BRANCH   5  18
ATOM     18  C   UNL     1       2.250   5.913  19.181  0.00  0.00    +0.000 A 
ATOM     19  C   UNL     1       1.829   6.315  20.452  0.00  0.00    +0.000 A 
ATOM     20  C   UNL     1       1.469   7.646  20.698  0.00  0.00    +0.000 A 
ATOM     21  C   UNL     1       1.482   8.619  19.688  0.00  0.00    +0.000 A 
ATOM     22  C   UNL     1       1.852   8.183  18.407  0.00  0.00    +0.000 A 
ATOM     23  C   UNL     1       2.233   6.860  18.152  0.00  0.00    +0.000 A 
BRANCH  21  24
ATOM     24  N   UNL     1       1.158   9.936  19.944  0.00  0.00    +0.000 N 
ATOM     25  C   UNL     1       0.821  10.407  21.289  0.00  0.00    +0.000 C 
ATOM     26  C   UNL     1      -0.587  10.997  21.274  0.00  0.00    +0.000 C 
ATOM     27  C   UNL     1      -0.712  12.083  20.204  0.00  0.00    +0.000 C 
ATOM     28  C   UNL     1      -0.261  11.571  18.836  0.00  0.00    +0.000 C 
ATOM     29  C   UNL     1       1.137  10.951  18.894  0.00  0.00    +0.000 C 
ENDBRANCH  21  24
ENDBRANCH   5  18
TORSDOF 3
ENDMDL
MODEL 8
REMARK VINA RESULT:      -8.1      2.293      2.835
REMARK  Name = 
REMARK  3 active torsions:
REMARK  status: ('A' for Active; 'I' for Inactive)
REMARK    1  A    between atoms: C_5  and  C_6
REMARK    2  A    between atoms: C_9  and  N_10
REMARK    3  A    between atoms: N_18  and  C_19
REMARK                            x       y       z     vdW  Elec       q    Type
REMARK                         _______ _______ _______ _____ _____    ______ ____
ROOT
ATOM      1  O   UNL     1       5.356   3.569  15.977  0.00  0.00    +0.000 OA
ATOM      2  C   UNL     1       4.484   3.943  16.743  0.00  0.00    +0.000 C 
ATOM      3  N   UNL     1       3.225   3.351  16.772  0.00  0.00    +0.000 N 
ATOM      4  C   UNL     1       2.326   4.118  17.583  0.00  0.00    +0.000 C 
ATOM      5  C   UNL     1       3.263   4.932  18.485  0.00  0.00    +0.000 C 
ATOM      6  N   UNL     1       4.513   4.953  17.724  0.00  0.00    +0.000 N 
ATOM      7  H   UNL     1       2.970   2.700  16.042  0.00  0.00    +0.000 HD
ENDROOT
BRANCH   6   8
ATOM      8  C   UNL     1       5.660   5.727  18.064  0.00  0.00    +0.000 A 
ATOM      9  C   UNL     1       6.613   5.232  18.972  0.00  0.00    +0.000 A 
ATOM     10  C   UNL     1       7.775   5.944  19.313  0.00  0.00    +0.000 A 
ATOM     11  C   UNL     1       7.944   7.188  18.710  0.00  0.00    +0.000 A 
ATOM     12  N   UNL     1       8.925   8.140  18.802  0.00  0.00    +0.000 N 
ATOM     13  C   UNL     1       8.579   9.183  17.989  0.00  0.00    +0.000 A 
ATOM     14  N   UNL     1       7.439   8.962  17.376  0.00  0.00    +0.000 NA
ATOM     15  C   UNL     1       7.032   7.722  17.811  0.00  0.00    +0.000 A 
ATOM     16  C   UNL     1       5.881   6.988  17.486  0.00  0.00    +0.000 A 
ATOM     17  H   UNL     1       9.753   8.087  19.378  0.00  0.00    +0.000 HD
ENDBRANCH   6   8
BRANCH   5  18
ATOM     18  C   UNL     1       2.687   6.287  18.836  0.00  0.00    +0.000 A 
ATOM     19  C   UNL     1       2.506   7.250  17.839  0.00  0.00    +0.000 A 
ATOM     20  C   UNL     1       1.847   8.454  18.120  0.00  0.00    +0.000 A 
ATOM     21  C   UNL     1       1.373   8.760  19.404  0.00  0.00    +0.000 A 
ATOM     22  C   UNL     1       1.616   7.807  20.402  0.00  0.00    +0.000 A 
ATOM     23  C   UNL     1       2.255   6.591  20.131  0.00  0.00    +0.000 A 
BRANCH  21  24
ATOM     24  N   UNL     1       0.695   9.934  19.666  0.00  0.00    +0.000 N 
ATOM     25  C   UNL     1       1.014  11.187  18.980  0.00  0.00    +0.000 C 
ATOM     26  C   UNL     1       1.416  12.236  20.015  0.00  0.00    +0.000 C 
ATOM     27  C   UNL     1       0.333  12.390  21.084  0.00  0.00    +0.000 C 
ATOM     28  C   UNL     1      -0.032  11.042  21.706  0.00  0.00    +0.000 C 
ATOM     29  C   UNL     1      -0.391  10.004  20.641  0.00  0.00    +0.000 C 
ENDBRANCH  21  24
ENDBRANCH   5  18
TORSDOF 3
ENDMDL
MODEL 9
REMARK VINA RESULT:      -8.1      1.402      2.053
REMARK  Name = 
REMARK  3 active torsions:
REMARK  status: ('A' for Active; 'I' for Inactive)
REMARK    1  A    between atoms: C_5  and  C_6
REMARK    2  A    between atoms: C_9  and  N_10
REMARK    3  A    between atoms: N_18  and  C_19
REMARK                            x       y       z     vdW  Elec       q    Type
REMARK                         _______ _______ _______ _____ _____    ______ ____
ROOT
ATOM      1  O   UNL     1       2.598   2.193  17.904  0.00  0.00    +0.000 OA
ATOM      2  C   UNL     1       2.249   3.013  18.737  0.00  0.00    +0.000 C 
ATOM      3  N   UNL     1       1.153   2.800  19.568  0.00  0.00    +0.000 N 
ATOM      4  C   UNL     1       0.820   3.998  20.280  0.00  0.00    +0.000 C 
ATOM      5  C   UNL     1       2.118   4.815  20.233  0.00  0.00    +0.000 C 
ATOM      6  N   UNL     1       2.813   4.260  19.070  0.00  0.00    +0.000 N 
ATOM      7  H   UNL     1       0.537   2.021  19.380  0.00  0.00    +0.000 HD
ENDROOT
BRANCH   6   8
ATOM      8  C   UNL     1       4.006   4.794  18.503  0.00  0.00    +0.000 A 
ATOM      9  C   UNL     1       4.083   5.071  17.128  0.00  0.00    +0.000 A 
ATOM     10  C   UNL     1       5.225   5.627  16.530  0.00  0.00    +0.000 A 
ATOM     11  C   UNL     1       6.303   5.891  17.370  0.00  0.00    +0.000 A 
ATOM     12  N   UNL     1       7.551   6.413  17.147  0.00  0.00    +0.000 N 
ATOM     13  C   UNL     1       8.215   6.444  18.341  0.00  0.00    +0.000 A 
ATOM     14  N   UNL     1       7.475   5.977  19.320  0.00  0.00    +0.000 NA
ATOM     15  C   UNL     1       6.280   5.632  18.733  0.00  0.00    +0.000 A 
ATOM     16  C   UNL     1       5.124   5.079  19.305  0.00  0.00    +0.000 A 
ATOM     17  H   UNL     1       7.919   6.713  16.256  0.00  0.00    +0.000 HD
ENDBRANCH   6   8
BRANCH   5  18
ATOM     18  C   UNL     1       1.857   6.306  20.190  0.00  0.00    +0.000 A 
ATOM     19  C   UNL     1       2.168   7.038  19.039  0.00  0.00    +0.000 A 
ATOM     20  C   UNL     1       1.805   8.386  18.931  0.00  0.00    +0.000 A 
ATOM     21  C   UNL     1       1.151   9.066  19.968  0.00  0.00    +0.000 A 
ATOM     22  C   UNL     1       0.899   8.330  21.135  0.00  0.00    +0.000 A 
ATOM     23  C   UNL     1       1.239   6.976  21.249  0.00  0.00    +0.000 A 
BRANCH  21  24
ATOM     24  N   UNL     1       0.766  10.385  19.842  0.00  0.00    +0.000 N 
ATOM     25  C   UNL     1       0.955  11.359  20.918  0.00  0.00    +0.000 C 
ATOM     26  C   UNL     1      -0.402  11.933  21.319  0.00  0.00    +0.000 C 
ATOM     27  C   UNL     1      -1.130  12.510  20.104  0.00  0.00    +0.000 C 
ATOM     28  C   UNL     1      -1.222  11.486  18.973  0.00  0.00    +0.000 C 
ATOM     29  C   UNL     1       0.149  10.903  18.622  0.00  0.00    +0.000 C 
ENDBRANCH  21  24
ENDBRANCH   5  18
TORSDOF 3
ENDMDL
