MODEL 1
REMARK VINA RESULT:      -7.0      0.000      0.000
REMARK  Name = 
REMARK  8 active torsions:
REMARK  status: ('A' for Active; 'I' for Inactive)
REMARK    1  A    between atoms: C_1  and  O_2
REMARK    2  A    between atoms: O_2  and  C_3
REMARK    3  A    between atoms: C_6  and  N_7
REMARK    4  A    between atoms: N_7  and  C_8
REMARK    5  A    between atoms: C_8  and  N_10
REMARK    6  A    between atoms: N_10  and  C_11
REMARK    7  A    between atoms: C_11  and  C_12
REMARK    8  A    between atoms: C_18  and  N_19
REMARK                            x       y       z     vdW  Elec       q    Type
REMARK                         _______ _______ _______ _____ _____    ______ ____
ROOT
ATOM      1  N   UNL     1       2.464   1.886  18.148  0.00  0.00    +0.000 N 
ATOM      2  H   UNL     1       2.290   1.048  17.605  0.00  0.00    +0.000 HD
ENDROOT
BRANCH   1   3
ATOM      3  C   UNL     1       3.769   2.282  18.389  0.00  0.00    +0.000 C 
ATOM      4  S   UNL     1       4.502   2.136  19.896  0.00  0.00    +0.000 S 
BRANCH   3   5
ATOM      5  N   UNL     1       4.363   2.792  17.243  0.00  0.00    +0.000 N 
ATOM      6  H   UNL     1       4.329   2.187  16.432  0.00  0.00    +0.000 HD
BRANCH   5  10
ATOM      7  C   UNL     1       6.974   6.112  16.948  0.00  0.00    +0.000 A 
ATOM      8  C   UNL     1       6.733   5.285  15.848  0.00  0.00    +0.000 A 
ATOM      9  C   UNL     1       5.848   4.202  15.944  0.00  0.00    +0.000 A 
ATOM     10  C   UNL     1       5.231   3.908  17.159  0.00  0.00    +0.000 A 
ATOM     11  C   UNL     1       5.446   4.763  18.245  0.00  0.00    +0.000 A 
ATOM     12  C   UNL     1       6.320   5.849  18.148  0.00  0.00    +0.000 A 
BRANCH   7  14
ATOM     13  C   UNL     1       7.802   8.218  17.652  0.00  0.00    +0.000 C 
ATOM     14  O   UNL     1       7.869   7.125  16.741  0.00  0.00    +0.000 OA
ENDBRANCH   7  14
ENDBRANCH   5  10
ENDBRANCH   3   5
ENDBRANCH   1   3
BRANCH   1  15
ATOM     15  C   UNL     1       1.341   2.820  18.215  0.00  0.00    +0.000 C 
BRANCH  15  16
ATOM     16  C   UNL     1       1.655   4.141  18.870  0.00  0.00    +0.000 A 
ATOM     17  N   UNL     1       2.104   5.165  18.087  0.00  0.00    +0.000 NA
ATOM     18  C   UNL     1       2.302   6.330  18.737  0.00  0.00    +0.000 A 
ATOM     19 CL   UNL     1       2.828   7.632  17.759  0.00  0.00    +0.000 Cl
ATOM     20  C   UNL     1       2.098   6.477  20.096  0.00  0.00    +0.000 A 
ATOM     21  N   UNL     1       1.669   5.460  20.881  0.00  0.00    +0.000 NA
ATOM     22  C   UNL     1       1.450   4.285  20.259  0.00  0.00    +0.000 A 
BRANCH  22  23
ATOM     23  N   UNL     1       0.977   3.261  21.074  0.00  0.00    +0.000 N 
ATOM     24  H   UNL     1       1.101   3.559  22.039  0.00  0.00    +0.000 HD
ATOM     25  H   UNL     1       1.432   2.370  20.905  0.00  0.00    +0.000 HD
ENDBRANCH  22  23
ENDBRANCH  15  16
ENDBRANCH   1  15
TORSDOF 7
ENDMDL
MODEL 2
REMARK VINA RESULT:      -6.9      3.302      5.973
REMARK  Name = 
REMARK  8 active torsions:
REMARK  status: ('A' for Active; 'I' for Inactive)
REMARK    1  A    between atoms: C_1  and  O_2
REMARK    2  A    between atoms: O_2  and  C_3
REMARK    3  A    between atoms: C_6  and  N_7
REMARK    4  A    between atoms: N_7  and  C_8
REMARK    5  A    between atoms: C_8  and  N_10
REMARK    6  A    between atoms: N_10  and  C_11
REMARK    7  A    between atoms: C_11  and  C_12
REMARK    8  A    between atoms: C_18  and  N_19
REMARK                            x       y       z     vdW  Elec       q    Type
REMARK                         _______ _______ _______ _____ _____    ______ ____
ROOT
ATOM      1  N   UNL     1       3.750   4.160  19.227  0.00  0.00    +0.000 N 
ATOM      2  H   UNL     1       3.851   3.157  19.135  0.00  0.00    +0.000 HD
ENDROOT
BRANCH   1   3
ATOM      3  C   UNL     1       2.615   4.677  19.831  0.00  0.00    +0.000 C 
ATOM      4  S   UNL     1       1.181   3.809  19.970  0.00  0.00    +0.000 S 
BRANCH   3   5
ATOM      5  N   UNL     1       2.831   5.968  20.293  0.00  0.00    +0.000 N 
ATOM      6  H   UNL     1       3.274   6.034  21.201  0.00  0.00    +0.000 HD
BRANCH   5  10
ATOM      7  C   UNL     1       1.110   9.539  18.804  0.00  0.00    +0.000 A 
ATOM      8  C   UNL     1       0.953   9.166  20.141  0.00  0.00    +0.000 A 
ATOM      9  C   UNL     1       1.545   7.996  20.636  0.00  0.00    +0.000 A 
ATOM     10  C   UNL     1       2.265   7.160  19.781  0.00  0.00    +0.000 A 
ATOM     11  C   UNL     1       2.452   7.561  18.454  0.00  0.00    +0.000 A 
ATOM     12  C   UNL     1       1.870   8.732  17.963  0.00  0.00    +0.000 A 
BRANCH   7  14
ATOM     13  C   UNL     1      -0.377  11.280  19.413  0.00  0.00    +0.000 C 
ATOM     14  O   UNL     1       0.472  10.690  18.433  0.00  0.00    +0.000 OA
ENDBRANCH   7  14
ENDBRANCH   5  10
ENDBRANCH   3   5
ENDBRANCH   1   3
BRANCH   1  15
ATOM     15  C   UNL     1       4.999   4.915  19.140  0.00  0.00    +0.000 C 
BRANCH  15  16
ATOM     16  C   UNL     1       5.776   4.707  17.864  0.00  0.00    +0.000 A 
ATOM     17  N   UNL     1       5.082   4.527  16.703  0.00  0.00    +0.000 NA
ATOM     18  C   UNL     1       5.847   4.411  15.599  0.00  0.00    +0.000 A 
ATOM     19 CL   UNL     1       4.989   4.223  14.130  0.00  0.00    +0.000 Cl
ATOM     20  C   UNL     1       7.229   4.442  15.635  0.00  0.00    +0.000 A 
ATOM     21  N   UNL     1       7.923   4.603  16.786  0.00  0.00    +0.000 NA
ATOM     22  C   UNL     1       7.186   4.734  17.907  0.00  0.00    +0.000 A 
BRANCH  22  23
ATOM     23  N   UNL     1       7.914   4.935  19.076  0.00  0.00    +0.000 N 
ATOM     24  H   UNL     1       7.911   4.056  19.589  0.00  0.00    +0.000 HD
ATOM     25  H   UNL     1       7.555   5.692  19.648  0.00  0.00    +0.000 HD
ENDBRANCH  22  23
ENDBRANCH  15  16
ENDBRANCH   1  15
TORSDOF 7
ENDMDL
MODEL 3
REMARK VINA RESULT:      -6.7      3.624      6.176
REMARK  Name = 
REMARK  8 active torsions:
REMARK  status: ('A' for Active; 'I' for Inactive)
REMARK    1  A    between atoms: C_1  and  O_2
REMARK    2  A    between atoms: O_2  and  C_3
REMARK    3  A    between atoms: C_6  and  N_7
REMARK    4  A    between atoms: N_7  and  C_8
REMARK    5  A    between atoms: C_8  and  N_10
REMARK    6  A    between atoms: N_10  and  C_11
REMARK    7  A    between atoms: C_11  and  C_12
REMARK    8  A    between atoms: C_18  and  N_19
REMARK                            x       y       z     vdW  Elec       q    Type
REMARK                         _______ _______ _______ _____ _____    ______ ____
ROOT
ATOM      1  N   UNL     1       3.027   4.836  18.415  0.00  0.00    +0.000 N 
ATOM      2  H   UNL     1       2.549   4.955  17.530  0.00  0.00    +0.000 HD
ENDROOT
BRANCH   1   3
ATOM      3  C   UNL     1       2.411   5.253  19.583  0.00  0.00    +0.000 C 
ATOM      4  S   UNL     1       1.336   4.285  20.442  0.00  0.00    +0.000 S 
BRANCH   3   5
ATOM      5  N   UNL     1       2.801   6.539  19.930  0.00  0.00    +0.000 N 
ATOM      6  H   UNL     1       3.688   6.605  20.414  0.00  0.00    +0.000 HD
BRANCH   5  10
ATOM      7  C   UNL     1       0.404  10.029  19.899  0.00  0.00    +0.000 A 
ATOM      8  C   UNL     1       1.121   9.637  18.765  0.00  0.00    +0.000 A 
ATOM      9  C   UNL     1       1.893   8.467  18.773  0.00  0.00    +0.000 A 
ATOM     10  C   UNL     1       1.993   7.701  19.934  0.00  0.00    +0.000 A 
ATOM     11  C   UNL     1       1.240   8.078  21.052  0.00  0.00    +0.000 A 
ATOM     12  C   UNL     1       0.462   9.239  21.042  0.00  0.00    +0.000 A 
BRANCH   7  14
ATOM     13  C   UNL     1      -0.894  11.441  18.507  0.00  0.00    +0.000 C 
ATOM     14  O   UNL     1      -0.299  11.196  19.778  0.00  0.00    +0.000 OA
ENDBRANCH   7  14
ENDBRANCH   5  10
ENDBRANCH   3   5
ENDBRANCH   1   3
BRANCH   1  15
ATOM     15  C   UNL     1       4.089   3.830  18.410  0.00  0.00    +0.000 C 
BRANCH  15  16
ATOM     16  C   UNL     1       5.236   4.126  17.476  0.00  0.00    +0.000 A 
ATOM     17  N   UNL     1       5.081   3.849  16.149  0.00  0.00    +0.000 NA
ATOM     18  C   UNL     1       6.126   4.199  15.373  0.00  0.00    +0.000 A 
ATOM     19 CL   UNL     1       5.930   3.893  13.700  0.00  0.00    +0.000 Cl
ATOM     20  C   UNL     1       7.281   4.767  15.878  0.00  0.00    +0.000 A 
ATOM     21  N   UNL     1       7.447   5.029  17.196  0.00  0.00    +0.000 NA
ATOM     22  C   UNL     1       6.414   4.701  17.997  0.00  0.00    +0.000 A 
BRANCH  22  23
ATOM     23  N   UNL     1       6.587   5.008  19.343  0.00  0.00    +0.000 N 
ATOM     24  H   UNL     1       5.852   5.664  19.602  0.00  0.00    +0.000 HD
ATOM     25  H   UNL     1       7.504   5.386  19.555  0.00  0.00    +0.000 HD
ENDBRANCH  22  23
ENDBRANCH  15  16
ENDBRANCH   1  15
TORSDOF 7
ENDMDL
MODEL 4
REMARK VINA RESULT:      -6.6      3.202      4.349
REMARK  Name = 
REMARK  8 active torsions:
REMARK  status: ('A' for Active; 'I' for Inactive)
REMARK    1  A    between atoms: C_1  and  O_2
REMARK    2  A    between atoms: O_2  and  C_3
REMARK    3  A    between atoms: C_6  and  N_7
REMARK    4  A    between atoms: N_7  and  C_8
REMARK    5  A    between atoms: C_8  and  N_10
REMARK    6  A    between atoms: N_10  and  C_11
REMARK    7  A    between atoms: C_11  and  C_12
REMARK    8  A    between atoms: C_18  and  N_19
REMARK                            x       y       z     vdW  Elec       q    Type
REMARK                         _______ _______ _______ _____ _____    ______ ____
ROOT
ATOM      1  N   UNL     1       2.751   6.767  20.163  0.00  0.00    +0.000 N 
ATOM      2  H   UNL     1       2.725   7.080  21.127  0.00  0.00    +0.000 HD
ENDROOT
BRANCH   1   3
ATOM      3  C   UNL     1       2.954   5.425  19.889  0.00  0.00    +0.000 C 
ATOM      4  S   UNL     1       1.689   4.341  19.658  0.00  0.00    +0.000 S 
BRANCH   3   5
ATOM      5  N   UNL     1       4.307   5.120  19.828  0.00  0.00    +0.000 N 
ATOM      6  H   UNL     1       4.760   4.987  20.723  0.00  0.00    +0.000 HD
BRANCH   5  10
ATOM      7  C   UNL     1       6.814   5.485  16.436  0.00  0.00    +0.000 A 
ATOM      8  C   UNL     1       5.434   5.321  16.297  0.00  0.00    +0.000 A 
ATOM      9  C   UNL     1       4.604   5.225  17.424  0.00  0.00    +0.000 A 
ATOM     10  C   UNL     1       5.158   5.247  18.704  0.00  0.00    +0.000 A 
ATOM     11  C   UNL     1       6.535   5.452  18.835  0.00  0.00    +0.000 A 
ATOM     12  C   UNL     1       7.361   5.557  17.713  0.00  0.00    +0.000 A 
BRANCH   7  14
ATOM     13  C   UNL     1       6.978   4.825  14.166  0.00  0.00    +0.000 C 
ATOM     14  O   UNL     1       7.521   5.548  15.267  0.00  0.00    +0.000 OA
ENDBRANCH   7  14
ENDBRANCH   5  10
ENDBRANCH   3   5
ENDBRANCH   1   3
BRANCH   1  15
ATOM     15  C   UNL     1       2.116   7.671  19.206  0.00  0.00    +0.000 C 
BRANCH  15  16
ATOM     16  C   UNL     1       1.314   8.788  19.827  0.00  0.00    +0.000 A 
ATOM     17  N   UNL     1       0.941   8.671  21.134  0.00  0.00    +0.000 NA
ATOM     18  C   UNL     1       0.281   9.737  21.632  0.00  0.00    +0.000 A 
ATOM     19 CL   UNL     1      -0.159   9.620  23.282  0.00  0.00    +0.000 Cl
ATOM     20  C   UNL     1      -0.023  10.853  20.875  0.00  0.00    +0.000 A 
ATOM     21  N   UNL     1       0.330  10.968  19.573  0.00  0.00    +0.000 NA
ATOM     22  C   UNL     1       1.001   9.923  19.049  0.00  0.00    +0.000 A 
BRANCH  22  23
ATOM     23  N   UNL     1       1.387  10.072  17.720  0.00  0.00    +0.000 N 
ATOM     24  H   UNL     1       1.949  10.918  17.661  0.00  0.00    +0.000 HD
ATOM     25  H   UNL     1       0.605  10.108  17.076  0.00  0.00    +0.000 HD
ENDBRANCH  22  23
ENDBRANCH  15  16
ENDBRANCH   1  15
TORSDOF 7
ENDMDL
MODEL 5
REMARK VINA RESULT:      -6.6      2.826      5.193
REMARK  Name = 
REMARK  8 active torsions:
REMARK  status: ('A' for Active; 'I' for Inactive)
REMARK    1  A    between atoms: C_1  and  O_2
REMARK    2  A    between atoms: O_2  and  C_3
REMARK    3  A    between atoms: C_6  and  N_7
REMARK    4  A    between atoms: N_7  and  C_8
REMARK    5  A    between atoms: C_8  and  N_10
REMARK    6  A    between atoms: N_10  and  C_11
REMARK    7  A    between atoms: C_11  and  C_12
REMARK    8  A    between atoms: C_18  and  N_19
REMARK                            x       y       z     vdW  Elec       q    Type
REMARK                         _______ _______ _______ _____ _____    ______ ____
ROOT
ATOM      1  N   UNL     1       3.496   3.486  20.701  0.00  0.00    +0.000 N 
ATOM      2  H   UNL     1       4.063   3.732  21.504  0.00  0.00    +0.000 HD
ENDROOT
BRANCH   1   3
ATOM      3  C   UNL     1       2.245   4.062  20.550  0.00  0.00    +0.000 C 
ATOM      4  S   UNL     1       0.937   3.238  19.888  0.00  0.00    +0.000 S 
BRANCH   3   5
ATOM      5  N   UNL     1       2.231   5.370  21.014  0.00  0.00    +0.000 N 
ATOM      6  H   UNL     1       2.122   5.472  22.015  0.00  0.00    +0.000 HD
BRANCH   5  10
ATOM      7  C   UNL     1       1.728   8.903  18.734  0.00  0.00    +0.000 A 
ATOM      8  C   UNL     1       1.286   8.830  20.058  0.00  0.00    +0.000 A 
ATOM      9  C   UNL     1       1.477   7.667  20.817  0.00  0.00    +0.000 A 
ATOM     10  C   UNL     1       2.073   6.545  20.240  0.00  0.00    +0.000 A 
ATOM     11  C   UNL     1       2.548   6.639  18.927  0.00  0.00    +0.000 A 
ATOM     12  C   UNL     1       2.367   7.802  18.174  0.00  0.00    +0.000 A 
BRANCH   7  14
ATOM     13  C   UNL     1       0.631  11.003  18.780  0.00  0.00    +0.000 C 
ATOM     14  O   UNL     1       1.470  10.081  18.090  0.00  0.00    +0.000 OA
ENDBRANCH   7  14
ENDBRANCH   5  10
ENDBRANCH   3   5
ENDBRANCH   1   3
BRANCH   1  15
ATOM     15  C   UNL     1       4.237   2.923  19.574  0.00  0.00    +0.000 C 
BRANCH  15  16
ATOM     16  C   UNL     1       4.910   3.942  18.688  0.00  0.00    +0.000 A 
ATOM     17  N   UNL     1       5.999   4.606  19.173  0.00  0.00    +0.000 NA
ATOM     18  C   UNL     1       6.581   5.452  18.298  0.00  0.00    +0.000 A 
ATOM     19 CL   UNL     1       7.971   6.263  18.881  0.00  0.00    +0.000 Cl
ATOM     20  C   UNL     1       6.100   5.659  17.019  0.00  0.00    +0.000 A 
ATOM     21  N   UNL     1       5.010   5.016  16.538  0.00  0.00    +0.000 NA
ATOM     22  C   UNL     1       4.412   4.153  17.384  0.00  0.00    +0.000 A 
BRANCH  22  23
ATOM     23  N   UNL     1       3.315   3.475  16.863  0.00  0.00    +0.000 N 
ATOM     24  H   UNL     1       3.644   2.565  16.545  0.00  0.00    +0.000 HD
ATOM     25  H   UNL     1       2.850   3.977  16.114  0.00  0.00    +0.000 HD
ENDBRANCH  22  23
ENDBRANCH  15  16
ENDBRANCH   1  15
TORSDOF 7
ENDMDL
MODEL 6
REMARK VINA RESULT:      -6.6      3.632      6.121
REMARK  Name = 
REMARK  8 active torsions:
REMARK  status: ('A' for Active; 'I' for Inactive)
REMARK    1  A    between atoms: C_1  and  O_2
REMARK    2  A    between atoms: O_2  and  C_3
REMARK    3  A    between atoms: C_6  and  N_7
REMARK    4  A    between atoms: N_7  and  C_8
REMARK    5  A    between atoms: C_8  and  N_10
REMARK    6  A    between atoms: N_10  and  C_11
REMARK    7  A    between atoms: C_11  and  C_12
REMARK    8  A    between atoms: C_18  and  N_19
REMARK                            x       y       z     vdW  Elec       q    Type
REMARK                         _______ _______ _______ _____ _____    ______ ____
ROOT
ATOM      1  N   UNL     1       4.033   4.911  19.322  0.00  0.00    +0.000 N 
ATOM      2  H   UNL     1       4.433   5.501  20.041  0.00  0.00    +0.000 HD
ENDROOT
BRANCH   1   3
ATOM      3  C   UNL     1       2.973   5.383  18.565  0.00  0.00    +0.000 C 
ATOM      4  S   UNL     1       1.705   4.401  18.061  0.00  0.00    +0.000 S 
BRANCH   3   5
ATOM      5  N   UNL     1       3.105   6.739  18.301  0.00  0.00    +0.000 N 
ATOM      6  H   UNL     1       3.991   7.017  17.896  0.00  0.00    +0.000 HD
BRANCH   5  10
ATOM      7  C   UNL     1       0.633   9.886  19.685  0.00  0.00    +0.000 A 
ATOM      8  C   UNL     1       1.031   9.818  18.348  0.00  0.00    +0.000 A 
ATOM      9  C   UNL     1       1.829   8.760  17.888  0.00  0.00    +0.000 A 
ATOM     10  C   UNL     1       2.276   7.783  18.778  0.00  0.00    +0.000 A 
ATOM     11  C   UNL     1       1.841   7.837  20.106  0.00  0.00    +0.000 A 
ATOM     12  C   UNL     1       1.037   8.885  20.563  0.00  0.00    +0.000 A 
BRANCH   7  14
ATOM     13  C   UNL     1      -0.229  11.995  19.033  0.00  0.00    +0.000 C 
ATOM     14  O   UNL     1      -0.128  10.972  20.019  0.00  0.00    +0.000 OA
ENDBRANCH   7  14
ENDBRANCH   5  10
ENDBRANCH   3   5
ENDBRANCH   1   3
BRANCH   1  15
ATOM     15  C   UNL     1       4.904   3.833  18.856  0.00  0.00    +0.000 C 
BRANCH  15  16
ATOM     16  C   UNL     1       5.721   4.164  17.632  0.00  0.00    +0.000 A 
ATOM     17  N   UNL     1       5.198   3.876  16.405  0.00  0.00    +0.000 NA
ATOM     18  C   UNL     1       5.961   4.260  15.361  0.00  0.00    +0.000 A 
ATOM     19 CL   UNL     1       5.299   3.940  13.815  0.00  0.00    +0.000 Cl
ATOM     20  C   UNL     1       7.192   4.870  15.513  0.00  0.00    +0.000 A 
ATOM     21  N   UNL     1       7.724   5.142  16.728  0.00  0.00    +0.000 NA
ATOM     22  C   UNL     1       6.979   4.782  17.793  0.00  0.00    +0.000 A 
BRANCH  22  23
ATOM     23  N   UNL     1       7.524   5.101  19.033  0.00  0.00    +0.000 N 
ATOM     24  H   UNL     1       7.882   4.238  19.437  0.00  0.00    +0.000 HD
ATOM     25  H   UNL     1       6.864   5.550  19.658  0.00  0.00    +0.000 HD
ENDBRANCH  22  23
ENDBRANCH  15  16
ENDBRANCH   1  15
TORSDOF 7
ENDMDL
MODEL 7
REMARK VINA RESULT:      -6.6      3.465      6.235
REMARK  Name = 
REMARK  8 active torsions:
REMARK  status: ('A' for Active; 'I' for Inactive)
REMARK    1  A    between atoms: C_1  and  O_2
REMARK    2  A    between atoms: O_2  and  C_3
REMARK    3  A    between atoms: C_6  and  N_7
REMARK    4  A    between atoms: N_7  and  C_8
REMARK    5  A    between atoms: C_8  and  N_10
REMARK    6  A    between atoms: N_10  and  C_11
REMARK    7  A    between atoms: C_11  and  C_12
REMARK    8  A    between atoms: C_18  and  N_19
REMARK                            x       y       z     vdW  Elec       q    Type
REMARK                         _______ _______ _______ _____ _____    ______ ____
ROOT
ATOM      1  N   UNL     1       4.007   3.703  17.549  0.00  0.00    +0.000 N 
ATOM      2  H   UNL     1       3.864   2.701  17.547  0.00  0.00    +0.000 HD
ENDROOT
BRANCH   1   3
ATOM      3  C   UNL     1       2.967   4.539  17.923  0.00  0.00    +0.000 C 
ATOM      4  S   UNL     1       1.409   3.977  18.218  0.00  0.00    +0.000 S 
BRANCH   3   5
ATOM      5  N   UNL     1       3.387   5.858  18.019  0.00  0.00    +0.000 N 
ATOM      6  H   UNL     1       4.377   6.008  17.873  0.00  0.00    +0.000 HD
BRANCH   5  10
ATOM      7  C   UNL     1       1.200   9.080  19.681  0.00  0.00    +0.000 A 
ATOM      8  C   UNL     1       1.581   7.988  20.465  0.00  0.00    +0.000 A 
ATOM      9  C   UNL     1       2.327   6.935  19.916  0.00  0.00    +0.000 A 
ATOM     10  C   UNL     1       2.658   6.944  18.561  0.00  0.00    +0.000 A 
ATOM     11  C   UNL     1       2.308   8.060  17.793  0.00  0.00    +0.000 A 
ATOM     12  C   UNL     1       1.574   9.115  18.342  0.00  0.00    +0.000 A 
BRANCH   7  14
ATOM     13  C   UNL     1       0.433   9.959  21.744  0.00  0.00    +0.000 C 
ATOM     14  O   UNL     1       0.461  10.036  20.321  0.00  0.00    +0.000 OA
ENDBRANCH   7  14
ENDBRANCH   5  10
ENDBRANCH   3   5
ENDBRANCH   1   3
BRANCH   1  15
ATOM     15  C   UNL     1       5.406   4.125  17.611  0.00  0.00    +0.000 C 
BRANCH  15  16
ATOM     16  C   UNL     1       6.050   4.382  16.272  0.00  0.00    +0.000 A 
ATOM     17  N   UNL     1       5.574   3.711  15.183  0.00  0.00    +0.000 NA
ATOM     18  C   UNL     1       6.159   4.043  14.014  0.00  0.00    +0.000 A 
ATOM     19 CL   UNL     1       5.545   3.237  12.634  0.00  0.00    +0.000 Cl
ATOM     20  C   UNL     1       7.183   4.968  13.921  0.00  0.00    +0.000 A 
ATOM     21  N   UNL     1       7.670   5.624  15.001  0.00  0.00    +0.000 NA
ATOM     22  C   UNL     1       7.097   5.323  16.183  0.00  0.00    +0.000 A 
BRANCH  22  23
ATOM     23  N   UNL     1       7.586   6.032  17.276  0.00  0.00    +0.000 N 
ATOM     24  H   UNL     1       6.976   6.835  17.414  0.00  0.00    +0.000 HD
ATOM     25  H   UNL     1       8.552   6.322  17.169  0.00  0.00    +0.000 HD
ENDBRANCH  22  23
ENDBRANCH  15  16
ENDBRANCH   1  15
TORSDOF 7
ENDMDL
MODEL 8
REMARK VINA RESULT:      -6.5      3.484      5.783
REMARK  Name = 
REMARK  8 active torsions:
REMARK  status: ('A' for Active; 'I' for Inactive)
REMARK    1  A    between atoms: C_1  and  O_2
REMARK    2  A    between atoms: O_2  and  C_3
REMARK    3  A    between atoms: C_6  and  N_7
REMARK    4  A    between atoms: N_7  and  C_8
REMARK    5  A    between atoms: C_8  and  N_10
REMARK    6  A    between atoms: N_10  and  C_11
REMARK    7  A    between atoms: C_11  and  C_12
REMARK    8  A    between atoms: C_18  and  N_19
REMARK                            x       y       z     vdW  Elec       q    Type
REMARK                         _______ _______ _______ _____ _____    ______ ____
ROOT
ATOM      1  N   UNL     1       2.422   4.700  17.808  0.00  0.00    +0.000 N 
ATOM      2  H   UNL     1       1.752   4.926  17.083  0.00  0.00    +0.000 HD
ENDROOT
BRANCH   1   3
ATOM      3  C   UNL     1       2.194   5.132  19.104  0.00  0.00    +0.000 C 
ATOM      4  S   UNL     1       1.316   4.233  20.222  0.00  0.00    +0.000 S 
BRANCH   3   5
ATOM      5  N   UNL     1       2.782   6.367  19.338  0.00  0.00    +0.000 N 
ATOM      6  H   UNL     1       3.708   6.335  19.744  0.00  0.00    +0.000 HD
BRANCH   5  10
ATOM      7  C   UNL     1       0.839  10.129  19.369  0.00  0.00    +0.000 A 
ATOM      8  C   UNL     1       0.875   9.327  20.513  0.00  0.00    +0.000 A 
ATOM      9  C   UNL     1       1.541   8.094  20.505  0.00  0.00    +0.000 A 
ATOM     10  C   UNL     1       2.139   7.629  19.333  0.00  0.00    +0.000 A 
ATOM     11  C   UNL     1       2.133   8.455  18.205  0.00  0.00    +0.000 A 
ATOM     12  C   UNL     1       1.477   9.689  18.215  0.00  0.00    +0.000 A 
BRANCH   7  14
ATOM     13  C   UNL     1       0.635  12.403  18.733  0.00  0.00    +0.000 C 
ATOM     14  O   UNL     1       0.145  11.301  19.492  0.00  0.00    +0.000 OA
ENDBRANCH   7  14
ENDBRANCH   5  10
ENDBRANCH   3   5
ENDBRANCH   1   3
BRANCH   1  15
ATOM     15  C   UNL     1       3.296   3.568  17.506  0.00  0.00    +0.000 C 
BRANCH  15  16
ATOM     16  C   UNL     1       4.732   3.934  17.223  0.00  0.00    +0.000 A 
ATOM     17  N   UNL     1       5.100   4.165  15.929  0.00  0.00    +0.000 NA
ATOM     18  C   UNL     1       6.383   4.548  15.766  0.00  0.00    +0.000 A 
ATOM     19 CL   UNL     1       6.849   4.878  14.152  0.00  0.00    +0.000 Cl
ATOM     20  C   UNL     1       7.271   4.671  16.819  0.00  0.00    +0.000 A 
ATOM     21  N   UNL     1       6.915   4.427  18.103  0.00  0.00    +0.000 NA
ATOM     22  C   UNL     1       5.635   4.054  18.300  0.00  0.00    +0.000 A 
BRANCH  22  23
ATOM     23  N   UNL     1       5.277   3.841  19.628  0.00  0.00    +0.000 N 
ATOM     24  H   UNL     1       5.888   3.116  19.995  0.00  0.00    +0.000 HD
ATOM     25  H   UNL     1       4.301   3.590  19.746  0.00  0.00    +0.000 HD
ENDBRANCH  22  23
ENDBRANCH  15  16
ENDBRANCH   1  15
TORSDOF 7
ENDMDL
MODEL 9
REMARK VINA RESULT:      -6.5      2.972      5.435
REMARK  Name = 
REMARK  8 active torsions:
REMARK  status: ('A' for Active; 'I' for Inactive)
REMARK    1  A    between atoms: C_1  and  O_2
REMARK    2  A    between atoms: O_2  and  C_3
REMARK    3  A    between atoms: C_6  and  N_7
REMARK    4  A    between atoms: N_7  and  C_8
REMARK    5  A    between atoms: C_8  and  N_10
REMARK    6  A    between atoms: N_10  and  C_11
REMARK    7  A    between atoms: C_11  and  C_12
REMARK    8  A    between atoms: C_18  and  N_19
REMARK                            x       y       z     vdW  Elec       q    Type
REMARK                         _______ _______ _______ _____ _____    ______ ____
ROOT
ATOM      1  N   UNL     1       4.642   2.911  17.432  0.00  0.00    +0.000 N 
ATOM      2  H   UNL     1       5.332   2.351  17.919  0.00  0.00    +0.000 HD
ENDROOT
BRANCH   1   3
ATOM      3  C   UNL     1       3.376   3.052  17.975  0.00  0.00    +0.000 C 
ATOM      4  S   UNL     1       2.695   1.912  19.008  0.00  0.00    +0.000 S 
BRANCH   3   5
ATOM      5  N   UNL     1       2.776   4.233  17.560  0.00  0.00    +0.000 N 
ATOM      6  H   UNL     1       2.721   4.361  16.558  0.00  0.00    +0.000 HD
BRANCH   5  10
ATOM      7  C   UNL     1       1.919   7.603  19.976  0.00  0.00    +0.000 A 
ATOM      8  C   UNL     1       1.756   6.305  20.466  0.00  0.00    +0.000 A 
ATOM      9  C   UNL     1       2.065   5.193  19.671  0.00  0.00    +0.000 A 
ATOM     10  C   UNL     1       2.497   5.370  18.357  0.00  0.00    +0.000 A 
ATOM     11  C   UNL     1       2.696   6.672  17.887  0.00  0.00    +0.000 A 
ATOM     12  C   UNL     1       2.398   7.782  18.682  0.00  0.00    +0.000 A 
BRANCH   7  14
ATOM     13  C   UNL     1       0.455   8.346  21.685  0.00  0.00    +0.000 C 
ATOM     14  O   UNL     1       1.568   8.607  20.836  0.00  0.00    +0.000 OA
ENDBRANCH   7  14
ENDBRANCH   5  10
ENDBRANCH   3   5
ENDBRANCH   1   3
BRANCH   1  15
ATOM     15  C   UNL     1       5.191   3.869  16.474  0.00  0.00    +0.000 C 
BRANCH  15  16
ATOM     16  C   UNL     1       6.052   4.948  17.082  0.00  0.00    +0.000 A 
ATOM     17  N   UNL     1       6.726   4.669  18.235  0.00  0.00    +0.000 NA
ATOM     18  C   UNL     1       7.522   5.663  18.680  0.00  0.00    +0.000 A 
ATOM     19 CL   UNL     1       8.403   5.312  20.105  0.00  0.00    +0.000 Cl
ATOM     20  C   UNL     1       7.629   6.884  18.040  0.00  0.00    +0.000 A 
ATOM     21  N   UNL     1       6.950   7.172  16.905  0.00  0.00    +0.000 NA
ATOM     22  C   UNL     1       6.155   6.194  16.428  0.00  0.00    +0.000 A 
BRANCH  22  23
ATOM     23  N   UNL     1       5.492   6.494  15.242  0.00  0.00    +0.000 N 
ATOM     24  H   UNL     1       5.707   7.461  15.010  0.00  0.00    +0.000 HD
ATOM     25  H   UNL     1       4.489   6.346  15.293  0.00  0.00    +0.000 HD
ENDBRANCH  22  23
ENDBRANCH  15  16
ENDBRANCH   1  15
TORSDOF 7
ENDMDL
