MODEL 1
REMARK VINA RESULT:      -6.4      0.000      0.000
REMARK  Name = 
REMARK  9 active torsions:
REMARK  status: ('A' for Active; 'I' for Inactive)
REMARK    1  A    between atoms: C_1  and  O_2
REMARK    2  A    between atoms: O_2  and  C_3
REMARK    3  A    between atoms: C_3  and  C_5
REMARK    4  A    between atoms: N_7  and  C_8
REMARK    5  A    between atoms: C_10  and  C_11
REMARK    6  A    between atoms: C_11  and  O_12
REMARK    7  A    between atoms: C_13  and  O_14
REMARK    8  A    between atoms: C_15  and  O_16
REMARK    9  A    between atoms: C_17  and  O_18
REMARK                            x       y       z     vdW  Elec       q    Type
REMARK                         _______ _______ _______ _____ _____    ______ ____
ROOT
ATOM      1  C   UNL     1       4.310   4.274  17.561  0.00  0.00    +0.000 C 
ATOM      2  O   UNL     1       4.425   3.859  16.203  0.00  0.00    +0.000 OA
ATOM      3  C   UNL     1       5.377   4.673  15.489  0.00  0.00    +0.000 C 
ATOM      4  C   UNL     1       6.784   4.523  16.093  0.00  0.00    +0.000 C 
ATOM      5  C   UNL     1       6.751   4.820  17.606  0.00  0.00    +0.000 C 
ATOM      6  C   UNL     1       5.639   4.022  18.310  0.00  0.00    +0.000 C 
ENDROOT
BRANCH   1   9
ATOM      7  C   UNL     1       2.197   4.202  18.791  0.00  0.00    +0.000 C 
ATOM      8  O   UNL     1       2.130   5.417  18.911  0.00  0.00    +0.000 OA
ATOM      9  N   UNL     1       3.207   3.544  18.111  0.00  0.00    +0.000 N 
ATOM     10  H   UNL     1       3.215   2.534  18.114  0.00  0.00    +0.000 HD
BRANCH   7  11
ATOM     11  C   UNL     1       1.124   3.252  19.385  0.00  0.00    +0.000 C 
ATOM     12  O   UNL     1       0.583   2.394  18.705  0.00  0.00    +0.000 OA
BRANCH  11  14
ATOM     13  C   UNL     1       1.931   3.082  21.568  0.00  0.00    +0.000 C 
ATOM     14  O   UNL     1       0.906   3.531  20.685  0.00  0.00    +0.000 OA
ENDBRANCH  11  14
ENDBRANCH   7  11
ENDBRANCH   1   9
BRANCH   4  15
ATOM     15  O   UNL     1       7.690   5.401  15.417  0.00  0.00    +0.000 OA
ATOM     16  H   UNL     1       8.475   5.541  15.974  0.00  0.00    +0.000 HD
ENDBRANCH   4  15
BRANCH   5  17
ATOM     17  O   UNL     1       8.037   4.562  18.181  0.00  0.00    +0.000 OA
ATOM     18  H   UNL     1       8.722   4.809  17.534  0.00  0.00    +0.000 HD
ENDBRANCH   5  17
BRANCH   6  19
ATOM     19  O   UNL     1       5.572   4.376  19.695  0.00  0.00    +0.000 OA
ATOM     20  H   UNL     1       5.649   3.567  20.234  0.00  0.00    +0.000 HD
ENDBRANCH   6  19
BRANCH   3  21
ATOM     21  C   UNL     1       5.342   4.272  14.009  0.00  0.00    +0.000 C 
BRANCH  21  22
ATOM     22  O   UNL     1       6.385   3.340  13.709  0.00  0.00    +0.000 OA
ATOM     23  H   UNL     1       6.833   3.688  12.916  0.00  0.00    +0.000 HD
ENDBRANCH  21  22
ENDBRANCH   3  21
TORSDOF 8
ENDMDL
MODEL 2
REMARK VINA RESULT:      -6.3      1.707      6.214
REMARK  Name = 
REMARK  9 active torsions:
REMARK  status: ('A' for Active; 'I' for Inactive)
REMARK    1  A    between atoms: C_1  and  O_2
REMARK    2  A    between atoms: O_2  and  C_3
REMARK    3  A    between atoms: C_3  and  C_5
REMARK    4  A    between atoms: N_7  and  C_8
REMARK    5  A    between atoms: C_10  and  C_11
REMARK    6  A    between atoms: C_11  and  O_12
REMARK    7  A    between atoms: C_13  and  O_14
REMARK    8  A    between atoms: C_15  and  O_16
REMARK    9  A    between atoms: C_17  and  O_18
REMARK                            x       y       z     vdW  Elec       q    Type
REMARK                         _______ _______ _______ _____ _____    ______ ____
ROOT
ATOM      1  C   UNL     1       3.885   4.330  18.382  0.00  0.00    +0.000 C 
ATOM      2  O   UNL     1       3.449   5.066  19.521  0.00  0.00    +0.000 OA
ATOM      3  C   UNL     1       2.024   4.947  19.703  0.00  0.00    +0.000 C 
ATOM      4  C   UNL     1       1.629   3.484  19.973  0.00  0.00    +0.000 C 
ATOM      5  C   UNL     1       2.174   2.570  18.858  0.00  0.00    +0.000 C 
ATOM      6  C   UNL     1       3.673   2.816  18.612  0.00  0.00    +0.000 C 
ENDROOT
BRANCH   1   9
ATOM      7  C   UNL     1       5.792   4.737  16.905  0.00  0.00    +0.000 C 
ATOM      8  O   UNL     1       5.142   4.568  15.883  0.00  0.00    +0.000 OA
ATOM      9  N   UNL     1       5.259   4.681  18.181  0.00  0.00    +0.000 N 
ATOM     10  H   UNL     1       5.883   4.774  18.970  0.00  0.00    +0.000 HD
BRANCH   7  11
ATOM     11  C   UNL     1       7.310   5.057  16.876  0.00  0.00    +0.000 C 
ATOM     12  O   UNL     1       8.143   4.233  17.222  0.00  0.00    +0.000 OA
BRANCH  11  14
ATOM     13  C   UNL     1       7.562   7.298  17.473  0.00  0.00    +0.000 C 
ATOM     14  O   UNL     1       7.525   6.314  16.443  0.00  0.00    +0.000 OA
ENDBRANCH  11  14
ENDBRANCH   7  11
ENDBRANCH   1   9
BRANCH   4  15
ATOM     15  O   UNL     1       0.204   3.384  20.069  0.00  0.00    +0.000 OA
ATOM     16  H   UNL     1      -0.088   3.782  20.907  0.00  0.00    +0.000 HD
ENDBRANCH   4  15
BRANCH   5  17
ATOM     17  O   UNL     1       1.905   1.200  19.178  0.00  0.00    +0.000 OA
ATOM     18  H   UNL     1       2.721   0.684  19.050  0.00  0.00    +0.000 HD
ENDBRANCH   5  17
BRANCH   6  19
ATOM     19  O   UNL     1       4.137   2.018  17.518  0.00  0.00    +0.000 OA
ATOM     20  H   UNL     1       4.561   1.213  17.869  0.00  0.00    +0.000 HD
ENDBRANCH   6  19
BRANCH   3  21
ATOM     21  C   UNL     1       1.603   5.875  20.849  0.00  0.00    +0.000 C 
BRANCH  21  22
ATOM     22  O   UNL     1       2.142   7.187  20.665  0.00  0.00    +0.000 OA
ATOM     23  H   UNL     1       1.536   7.642  20.051  0.00  0.00    +0.000 HD
ENDBRANCH  21  22
ENDBRANCH   3  21
TORSDOF 8
ENDMDL
MODEL 3
REMARK VINA RESULT:      -6.2      1.829      6.060
REMARK  Name = 
REMARK  9 active torsions:
REMARK  status: ('A' for Active; 'I' for Inactive)
REMARK    1  A    between atoms: C_1  and  O_2
REMARK    2  A    between atoms: O_2  and  C_3
REMARK    3  A    between atoms: C_3  and  C_5
REMARK    4  A    between atoms: N_7  and  C_8
REMARK    5  A    between atoms: C_10  and  C_11
REMARK    6  A    between atoms: C_11  and  O_12
REMARK    7  A    between atoms: C_13  and  O_14
REMARK    8  A    between atoms: C_15  and  O_16
REMARK    9  A    between atoms: C_17  and  O_18
REMARK                            x       y       z     vdW  Elec       q    Type
REMARK                         _______ _______ _______ _____ _____    ______ ____
ROOT
ATOM      1  C   UNL     1       5.045   4.111  17.369  0.00  0.00    +0.000 C 
ATOM      2  O   UNL     1       4.101   3.045  17.384  0.00  0.00    +0.000 OA
ATOM      3  C   UNL     1       3.748   2.680  18.733  0.00  0.00    +0.000 C 
ATOM      4  C   UNL     1       3.065   3.855  19.455  0.00  0.00    +0.000 C 
ATOM      5  C   UNL     1       3.950   5.115  19.381  0.00  0.00    +0.000 C 
ATOM      6  C   UNL     1       4.405   5.398  17.939  0.00  0.00    +0.000 C 
ENDROOT
BRANCH   1   9
ATOM      7  C   UNL     1       6.779   4.597  15.713  0.00  0.00    +0.000 C 
ATOM      8  O   UNL     1       7.656   4.738  16.552  0.00  0.00    +0.000 OA
ATOM      9  N   UNL     1       5.472   4.250  16.009  0.00  0.00    +0.000 N 
ATOM     10  H   UNL     1       4.798   4.214  15.257  0.00  0.00    +0.000 HD
BRANCH   7  11
ATOM     11  C   UNL     1       7.048   4.779  14.196  0.00  0.00    +0.000 C 
ATOM     12  O   UNL     1       7.928   5.520  13.788  0.00  0.00    +0.000 OA
BRANCH  11  14
ATOM     13  C   UNL     1       6.711   3.592  12.216  0.00  0.00    +0.000 C 
ATOM     14  O   UNL     1       6.193   4.036  13.467  0.00  0.00    +0.000 OA
ENDBRANCH  11  14
ENDBRANCH   7  11
ENDBRANCH   1   9
BRANCH   4  15
ATOM     15  O   UNL     1       2.800   3.492  20.814  0.00  0.00    +0.000 OA
ATOM     16  H   UNL     1       3.041   4.233  21.395  0.00  0.00    +0.000 HD
ENDBRANCH   4  15
BRANCH   5  17
ATOM     17  O   UNL     1       3.255   6.232  19.949  0.00  0.00    +0.000 OA
ATOM     18  H   UNL     1       3.887   6.963  20.069  0.00  0.00    +0.000 HD
ENDBRANCH   5  17
BRANCH   6  19
ATOM     19  O   UNL     1       5.292   6.521  17.907  0.00  0.00    +0.000 OA
ATOM     20  H   UNL     1       4.803   7.321  18.174  0.00  0.00    +0.000 HD
ENDBRANCH   6  19
BRANCH   3  21
ATOM     21  C   UNL     1       2.850   1.439  18.680  0.00  0.00    +0.000 C 
BRANCH  21  22
ATOM     22  O   UNL     1       1.469   1.809  18.663  0.00  0.00    +0.000 OA
ATOM     23  H   UNL     1       1.091   1.470  19.496  0.00  0.00    +0.000 HD
ENDBRANCH  21  22
ENDBRANCH   3  21
TORSDOF 8
ENDMDL
MODEL 4
REMARK VINA RESULT:      -6.2      1.127      1.131
REMARK  Name = 
REMARK  9 active torsions:
REMARK  status: ('A' for Active; 'I' for Inactive)
REMARK    1  A    between atoms: C_1  and  O_2
REMARK    2  A    between atoms: O_2  and  C_3
REMARK    3  A    between atoms: C_3  and  C_5
REMARK    4  A    between atoms: N_7  and  C_8
REMARK    5  A    between atoms: C_10  and  C_11
REMARK    6  A    between atoms: C_11  and  O_12
REMARK    7  A    between atoms: C_13  and  O_14
REMARK    8  A    between atoms: C_15  and  O_16
REMARK    9  A    between atoms: C_17  and  O_18
REMARK                            x       y       z     vdW  Elec       q    Type
REMARK                         _______ _______ _______ _____ _____    ______ ____
ROOT
ATOM      1  C   UNL     1       4.376   4.388  17.693  0.00  0.00    +0.000 C 
ATOM      2  O   UNL     1       5.026   3.792  16.575  0.00  0.00    +0.000 OA
ATOM      3  C   UNL     1       5.833   4.755  15.867  0.00  0.00    +0.000 C 
ATOM      4  C   UNL     1       6.959   5.291  16.769  0.00  0.00    +0.000 C 
ATOM      5  C   UNL     1       6.372   5.843  18.084  0.00  0.00    +0.000 C 
ATOM      6  C   UNL     1       5.421   4.830  18.744  0.00  0.00    +0.000 C 
ENDROOT
BRANCH   1   9
ATOM      7  C   UNL     1       2.103   3.685  18.260  0.00  0.00    +0.000 C 
ATOM      8  O   UNL     1       1.593   4.718  17.850  0.00  0.00    +0.000 OA
ATOM      9  N   UNL     1       3.457   3.409  18.192  0.00  0.00    +0.000 N 
ATOM     10  H   UNL     1       3.799   2.554  18.609  0.00  0.00    +0.000 HD
BRANCH   7  11
ATOM     11  C   UNL     1       1.265   2.544  18.894  0.00  0.00    +0.000 C 
ATOM     12  O   UNL     1       0.244   2.131  18.365  0.00  0.00    +0.000 OA
BRANCH  11  14
ATOM     13  C   UNL     1       1.361   2.828  21.208  0.00  0.00    +0.000 C 
ATOM     14  O   UNL     1       1.818   2.132  20.051  0.00  0.00    +0.000 OA
ENDBRANCH  11  14
ENDBRANCH   7  11
ENDBRANCH   1   9
BRANCH   4  15
ATOM     15  O   UNL     1       7.691   6.301  16.068  0.00  0.00    +0.000 OA
ATOM     16  H   UNL     1       7.199   7.139  16.111  0.00  0.00    +0.000 HD
ENDBRANCH   4  15
BRANCH   5  17
ATOM     17  O   UNL     1       7.434   6.230  18.965  0.00  0.00    +0.000 OA
ATOM     18  H   UNL     1       8.279   6.146  18.489  0.00  0.00    +0.000 HD
ENDBRANCH   5  17
BRANCH   6  19
ATOM     19  O   UNL     1       4.825   5.396  19.916  0.00  0.00    +0.000 OA
ATOM     20  H   UNL     1       5.530   5.657  20.537  0.00  0.00    +0.000 HD
ENDBRANCH   6  19
BRANCH   3  21
ATOM     21  C   UNL     1       6.381   4.088  14.600  0.00  0.00    +0.000 C 
BRANCH  21  22
ATOM     22  O   UNL     1       7.046   5.043  13.769  0.00  0.00    +0.000 OA
ATOM     23  H   UNL     1       7.720   4.543  13.274  0.00  0.00    +0.000 HD
ENDBRANCH  21  22
ENDBRANCH   3  21
TORSDOF 8
ENDMDL
MODEL 5
REMARK VINA RESULT:      -6.2      2.039      6.117
REMARK  Name = 
REMARK  9 active torsions:
REMARK  status: ('A' for Active; 'I' for Inactive)
REMARK    1  A    between atoms: C_1  and  O_2
REMARK    2  A    between atoms: O_2  and  C_3
REMARK    3  A    between atoms: C_3  and  C_5
REMARK    4  A    between atoms: N_7  and  C_8
REMARK    5  A    between atoms: C_10  and  C_11
REMARK    6  A    between atoms: C_11  and  O_12
REMARK    7  A    between atoms: C_13  and  O_14
REMARK    8  A    between atoms: C_15  and  O_16
REMARK    9  A    between atoms: C_17  and  O_18
REMARK                            x       y       z     vdW  Elec       q    Type
REMARK                         _______ _______ _______ _____ _____    ______ ____
ROOT
ATOM      1  C   UNL     1       4.891   5.116  17.591  0.00  0.00    +0.000 C 
ATOM      2  O   UNL     1       4.488   3.813  17.998  0.00  0.00    +0.000 OA
ATOM      3  C   UNL     1       4.220   3.769  19.414  0.00  0.00    +0.000 C 
ATOM      4  C   UNL     1       3.050   4.700  19.777  0.00  0.00    +0.000 C 
ATOM      5  C   UNL     1       3.322   6.126  19.257  0.00  0.00    +0.000 C 
ATOM      6  C   UNL     1       3.724   6.115  17.772  0.00  0.00    +0.000 C 
ENDROOT
BRANCH   1   9
ATOM      7  C   UNL     1       6.658   4.792  15.931  0.00  0.00    +0.000 C 
ATOM      8  O   UNL     1       7.532   4.632  16.772  0.00  0.00    +0.000 OA
ATOM      9  N   UNL     1       5.323   4.996  16.230  0.00  0.00    +0.000 N 
ATOM     10  H   UNL     1       4.679   5.178  15.473  0.00  0.00    +0.000 HD
BRANCH   7  11
ATOM     11  C   UNL     1       6.959   4.762  14.410  0.00  0.00    +0.000 C 
ATOM     12  O   UNL     1       7.819   5.475  13.915  0.00  0.00    +0.000 OA
BRANCH  11  14
ATOM     13  C   UNL     1       6.526   3.599  12.434  0.00  0.00    +0.000 C 
ATOM     14  O   UNL     1       6.156   3.883  13.781  0.00  0.00    +0.000 OA
ENDBRANCH  11  14
ENDBRANCH   7  11
ENDBRANCH   1   9
BRANCH   4  15
ATOM     15  O   UNL     1       2.860   4.697  21.195  0.00  0.00    +0.000 OA
ATOM     16  H   UNL     1       3.704   4.907  21.631  0.00  0.00    +0.000 HD
ENDBRANCH   4  15
BRANCH   5  17
ATOM     17  O   UNL     1       2.179   6.956  19.493  0.00  0.00    +0.000 OA
ATOM     18  H   UNL     1       1.531   6.801  18.783  0.00  0.00    +0.000 HD
ENDBRANCH   5  17
BRANCH   6  19
ATOM     19  O   UNL     1       4.053   7.438  17.334  0.00  0.00    +0.000 OA
ATOM     20  H   UNL     1       4.774   7.387  16.681  0.00  0.00    +0.000 HD
ENDBRANCH   6  19
BRANCH   3  21
ATOM     21  C   UNL     1       3.939   2.314  19.808  0.00  0.00    +0.000 C 
BRANCH  21  22
ATOM     22  O   UNL     1       5.157   1.614  20.078  0.00  0.00    +0.000 OA
ATOM     23  H   UNL     1       5.876   2.228  19.840  0.00  0.00    +0.000 HD
ENDBRANCH  21  22
ENDBRANCH   3  21
TORSDOF 8
ENDMDL
MODEL 6
REMARK VINA RESULT:      -6.2      1.833      6.141
REMARK  Name = 
REMARK  9 active torsions:
REMARK  status: ('A' for Active; 'I' for Inactive)
REMARK    1  A    between atoms: C_1  and  O_2
REMARK    2  A    between atoms: O_2  and  C_3
REMARK    3  A    between atoms: C_3  and  C_5
REMARK    4  A    between atoms: N_7  and  C_8
REMARK    5  A    between atoms: C_10  and  C_11
REMARK    6  A    between atoms: C_11  and  O_12
REMARK    7  A    between atoms: C_13  and  O_14
REMARK    8  A    between atoms: C_15  and  O_16
REMARK    9  A    between atoms: C_17  and  O_18
REMARK                            x       y       z     vdW  Elec       q    Type
REMARK                         _______ _______ _______ _____ _____    ______ ____
ROOT
ATOM      1  C   UNL     1       4.390   3.916  18.652  0.00  0.00    +0.000 C 
ATOM      2  O   UNL     1       3.938   5.235  18.941  0.00  0.00    +0.000 OA
ATOM      3  C   UNL     1       2.563   5.231  19.374  0.00  0.00    +0.000 C 
ATOM      4  C   UNL     1       2.407   4.439  20.684  0.00  0.00    +0.000 C 
ATOM      5  C   UNL     1       2.994   3.023  20.526  0.00  0.00    +0.000 C 
ATOM      6  C   UNL     1       4.419   3.068  19.945  0.00  0.00    +0.000 C 
ENDROOT
BRANCH   1   9
ATOM      7  C   UNL     1       5.827   4.764  16.863  0.00  0.00    +0.000 C 
ATOM      8  O   UNL     1       4.917   5.358  16.302  0.00  0.00    +0.000 OA
ATOM      9  N   UNL     1       5.680   4.058  18.045  0.00  0.00    +0.000 N 
ATOM     10  H   UNL     1       6.473   3.547  18.405  0.00  0.00    +0.000 HD
BRANCH   7  11
ATOM     11  C   UNL     1       7.275   4.753  16.306  0.00  0.00    +0.000 C 
ATOM     12  O   UNL     1       8.181   4.183  16.894  0.00  0.00    +0.000 OA
BRANCH  11  14
ATOM     13  C   UNL     1       7.044   4.680  13.986  0.00  0.00    +0.000 C 
ATOM     14  O   UNL     1       7.347   5.442  15.152  0.00  0.00    +0.000 OA
ENDBRANCH  11  14
ENDBRANCH   7  11
ENDBRANCH   1   9
BRANCH   4  15
ATOM     15  O   UNL     1       1.023   4.383  21.047  0.00  0.00    +0.000 OA
ATOM     16  H   UNL     1       0.930   3.884  21.876  0.00  0.00    +0.000 HD
ENDBRANCH   4  15
BRANCH   5  17
ATOM     17  O   UNL     1       2.953   2.335  21.782  0.00  0.00    +0.000 OA
ATOM     18  H   UNL     1       2.952   2.995  22.497  0.00  0.00    +0.000 HD
ENDBRANCH   5  17
BRANCH   6  19
ATOM     19  O   UNL     1       4.911   1.741  19.728  0.00  0.00    +0.000 OA
ATOM     20  H   UNL     1       5.827   1.684  20.057  0.00  0.00    +0.000 HD
ENDBRANCH   6  19
BRANCH   3  21
ATOM     21  C   UNL     1       2.098   6.685  19.523  0.00  0.00    +0.000 C 
BRANCH  21  22
ATOM     22  O   UNL     1       2.036   7.061  20.902  0.00  0.00    +0.000 OA
ATOM     23  H   UNL     1       2.961   7.141  21.199  0.00  0.00    +0.000 HD
ENDBRANCH  21  22
ENDBRANCH   3  21
TORSDOF 8
ENDMDL
MODEL 7
REMARK VINA RESULT:      -6.1      1.623      3.139
REMARK  Name = 
REMARK  9 active torsions:
REMARK  status: ('A' for Active; 'I' for Inactive)
REMARK    1  A    between atoms: C_1  and  O_2
REMARK    2  A    between atoms: O_2  and  C_3
REMARK    3  A    between atoms: C_3  and  C_5
REMARK    4  A    between atoms: N_7  and  C_8
REMARK    5  A    between atoms: C_10  and  C_11
REMARK    6  A    between atoms: C_11  and  O_12
REMARK    7  A    between atoms: C_13  and  O_14
REMARK    8  A    between atoms: C_15  and  O_16
REMARK    9  A    between atoms: C_17  and  O_18
REMARK                            x       y       z     vdW  Elec       q    Type
REMARK                         _______ _______ _______ _____ _____    ______ ____
ROOT
ATOM      1  C   UNL     1       5.043   4.328  18.446  0.00  0.00    +0.000 C 
ATOM      2  O   UNL     1       5.757   5.545  18.640  0.00  0.00    +0.000 OA
ATOM      3  C   UNL     1       6.918   5.610  17.788  0.00  0.00    +0.000 C 
ATOM      4  C   UNL     1       6.507   5.597  16.305  0.00  0.00    +0.000 C 
ATOM      5  C   UNL     1       5.608   4.380  16.011  0.00  0.00    +0.000 C 
ATOM      6  C   UNL     1       4.450   4.279  17.020  0.00  0.00    +0.000 C 
ENDROOT
BRANCH   1   9
ATOM      7  C   UNL     1       3.604   3.067  19.970  0.00  0.00    +0.000 C 
ATOM      8  O   UNL     1       4.063   1.983  19.639  0.00  0.00    +0.000 OA
ATOM      9  N   UNL     1       4.045   4.281  19.473  0.00  0.00    +0.000 N 
ATOM     10  H   UNL     1       3.566   5.124  19.758  0.00  0.00    +0.000 HD
BRANCH   7  11
ATOM     11  C   UNL     1       2.468   3.198  21.019  0.00  0.00    +0.000 C 
ATOM     12  O   UNL     1       2.608   2.800  22.165  0.00  0.00    +0.000 OA
BRANCH  11  14
ATOM     13  C   UNL     1       0.720   2.987  19.487  0.00  0.00    +0.000 C 
ATOM     14  O   UNL     1       1.380   3.776  20.474  0.00  0.00    +0.000 OA
ENDBRANCH  11  14
ENDBRANCH   7  11
ENDBRANCH   1   9
BRANCH   4  15
ATOM     15  O   UNL     1       7.679   5.581  15.485  0.00  0.00    +0.000 OA
ATOM     16  H   UNL     1       7.450   5.898  14.594  0.00  0.00    +0.000 HD
ENDBRANCH   4  15
BRANCH   5  17
ATOM     17  O   UNL     1       5.133   4.442  14.660  0.00  0.00    +0.000 OA
ATOM     18  H   UNL     1       5.449   3.654  14.184  0.00  0.00    +0.000 HD
ENDBRANCH   5  17
BRANCH   6  19
ATOM     19  O   UNL     1       3.679   3.098  16.778  0.00  0.00    +0.000 OA
ATOM     20  H   UNL     1       2.817   3.183  17.225  0.00  0.00    +0.000 HD
ENDBRANCH   6  19
BRANCH   3  21
ATOM     21  C   UNL     1       7.716   6.867  18.152  0.00  0.00    +0.000 C 
BRANCH  21  22
ATOM     22  O   UNL     1       7.587   7.865  17.135  0.00  0.00    +0.000 OA
ATOM     23  H   UNL     1       7.655   7.390  16.286  0.00  0.00    +0.000 HD
ENDBRANCH  21  22
ENDBRANCH   3  21
TORSDOF 8
ENDMDL
MODEL 8
REMARK VINA RESULT:      -6.1      1.938      6.144
REMARK  Name = 
REMARK  9 active torsions:
REMARK  status: ('A' for Active; 'I' for Inactive)
REMARK    1  A    between atoms: C_1  and  O_2
REMARK    2  A    between atoms: O_2  and  C_3
REMARK    3  A    between atoms: C_3  and  C_5
REMARK    4  A    between atoms: N_7  and  C_8
REMARK    5  A    between atoms: C_10  and  C_11
REMARK    6  A    between atoms: C_11  and  O_12
REMARK    7  A    between atoms: C_13  and  O_14
REMARK    8  A    between atoms: C_15  and  O_16
REMARK    9  A    between atoms: C_17  and  O_18
REMARK                            x       y       z     vdW  Elec       q    Type
REMARK                         _______ _______ _______ _____ _____    ______ ____
ROOT
ATOM      1  C   UNL     1       4.449   3.867  19.047  0.00  0.00    +0.000 C 
ATOM      2  O   UNL     1       3.791   5.095  19.340  0.00  0.00    +0.000 OA
ATOM      3  C   UNL     1       2.397   4.883  19.638  0.00  0.00    +0.000 C 
ATOM      4  C   UNL     1       2.236   4.011  20.896  0.00  0.00    +0.000 C 
ATOM      5  C   UNL     1       3.029   2.698  20.742  0.00  0.00    +0.000 C 
ATOM      6  C   UNL     1       4.479   2.966  20.303  0.00  0.00    +0.000 C 
ENDROOT
BRANCH   1   9
ATOM      7  C   UNL     1       5.925   4.746  17.305  0.00  0.00    +0.000 C 
ATOM      8  O   UNL     1       5.005   5.019  16.548  0.00  0.00    +0.000 OA
ATOM      9  N   UNL     1       5.755   4.214  18.572  0.00  0.00    +0.000 N 
ATOM     10  H   UNL     1       6.575   3.964  19.106  0.00  0.00    +0.000 HD
BRANCH   7  11
ATOM     11  C   UNL     1       7.409   4.991  16.926  0.00  0.00    +0.000 C 
ATOM     12  O   UNL     1       8.259   4.128  17.083  0.00  0.00    +0.000 OA
BRANCH  11  14
ATOM     13  C   UNL     1       7.553   7.266  17.424  0.00  0.00    +0.000 C 
ATOM     14  O   UNL     1       7.578   6.235  16.440  0.00  0.00    +0.000 OA
ENDBRANCH  11  14
ENDBRANCH   7  11
ENDBRANCH   1   9
BRANCH   4  15
ATOM     15  O   UNL     1       0.847   3.750  21.121  0.00  0.00    +0.000 OA
ATOM     16  H   UNL     1       0.695   3.633  22.075  0.00  0.00    +0.000 HD
ENDBRANCH   4  15
BRANCH   5  17
ATOM     17  O   UNL     1       2.971   1.949  21.961  0.00  0.00    +0.000 OA
ATOM     18  H   UNL     1       2.042   1.891  22.247  0.00  0.00    +0.000 HD
ENDBRANCH   5  17
BRANCH   6  19
ATOM     19  O   UNL     1       5.170   1.731  20.085  0.00  0.00    +0.000 OA
ATOM     20  H   UNL     1       6.126   1.877  20.204  0.00  0.00    +0.000 HD
ENDBRANCH   6  19
BRANCH   3  21
ATOM     21  C   UNL     1       1.722   6.250  19.796  0.00  0.00    +0.000 C 
BRANCH  21  22
ATOM     22  O   UNL     1       1.866   6.738  21.133  0.00  0.00    +0.000 OA
ATOM     23  H   UNL     1       1.058   7.251  21.319  0.00  0.00    +0.000 HD
ENDBRANCH  21  22
ENDBRANCH   3  21
TORSDOF 8
ENDMDL
MODEL 9
REMARK VINA RESULT:      -6.1      1.534      3.361
REMARK  Name = 
REMARK  9 active torsions:
REMARK  status: ('A' for Active; 'I' for Inactive)
REMARK    1  A    between atoms: C_1  and  O_2
REMARK    2  A    between atoms: O_2  and  C_3
REMARK    3  A    between atoms: C_3  and  C_5
REMARK    4  A    between atoms: N_7  and  C_8
REMARK    5  A    between atoms: C_10  and  C_11
REMARK    6  A    between atoms: C_11  and  O_12
REMARK    7  A    between atoms: C_13  and  O_14
REMARK    8  A    between atoms: C_15  and  O_16
REMARK    9  A    between atoms: C_17  and  O_18
REMARK                            x       y       z     vdW  Elec       q    Type
REMARK                         _______ _______ _______ _____ _____    ______ ____
ROOT
ATOM      1  C   UNL     1       4.609   4.078  18.679  0.00  0.00    +0.000 C 
ATOM      2  O   UNL     1       5.563   5.028  19.142  0.00  0.00    +0.000 OA
ATOM      3  C   UNL     1       6.797   4.929  18.404  0.00  0.00    +0.000 C 
ATOM      4  C   UNL     1       6.572   5.253  16.917  0.00  0.00    +0.000 C 
ATOM      5  C   UNL     1       5.450   4.366  16.341  0.00  0.00    +0.000 C 
ATOM      6  C   UNL     1       4.192   4.406  17.226  0.00  0.00    +0.000 C 
ENDROOT
BRANCH   1   9
ATOM      7  C   UNL     1       3.147   2.999  20.317  0.00  0.00    +0.000 C 
ATOM      8  O   UNL     1       3.747   1.935  20.274  0.00  0.00    +0.000 OA
ATOM      9  N   UNL     1       3.514   4.126  19.602  0.00  0.00    +0.000 N 
ATOM     10  H   UNL     1       2.925   4.945  19.652  0.00  0.00    +0.000 HD
BRANCH   7  11
ATOM     11  C   UNL     1       1.896   3.208  21.211  0.00  0.00    +0.000 C 
ATOM     12  O   UNL     1       1.931   3.006  22.415  0.00  0.00    +0.000 OA
BRANCH  11  14
ATOM     13  C   UNL     1       0.564   2.792  19.341  0.00  0.00    +0.000 C 
ATOM     14  O   UNL     1       0.844   3.612  20.474  0.00  0.00    +0.000 OA
ENDBRANCH  11  14
ENDBRANCH   7  11
ENDBRANCH   1   9
BRANCH   4  15
ATOM     15  O   UNL     1       7.795   5.068  16.197  0.00  0.00    +0.000 OA
ATOM     16  H   UNL     1       7.922   5.814  15.587  0.00  0.00    +0.000 HD
ENDBRANCH   4  15
BRANCH   5  17
ATOM     17  O   UNL     1       5.166   4.756  14.993  0.00  0.00    +0.000 OA
ATOM     18  H   UNL     1       5.813   4.331  14.403  0.00  0.00    +0.000 HD
ENDBRANCH   5  17
BRANCH   6  19
ATOM     19  O   UNL     1       3.196   3.511  16.718  0.00  0.00    +0.000 OA
ATOM     20  H   UNL     1       2.976   2.857  17.406  0.00  0.00    +0.000 HD
ENDBRANCH   6  19
BRANCH   3  21
ATOM     21  C   UNL     1       7.823   5.870  19.048  0.00  0.00    +0.000 C 
BRANCH  21  22
ATOM     22  O   UNL     1       8.028   5.536  20.424  0.00  0.00    +0.000 OA
ATOM     23  H   UNL     1       8.953   5.770  20.620  0.00  0.00    +0.000 HD
ENDBRANCH  21  22
ENDBRANCH   3  21
TORSDOF 8
ENDMDL
