MODEL 1
REMARK VINA RESULT:      -7.7      0.000      0.000
REMARK  Name = 
REMARK  8 active torsions:
REMARK  status: ('A' for Active; 'I' for Inactive)
REMARK    1  A    between atoms: O_1  and  C_2
REMARK    2  A    between atoms: C_2  and  C_3
REMARK    3  A    between atoms: C_3  and  N_4
REMARK    4  A    between atoms: N_4  and  C_5
REMARK    5  A    between atoms: C_5  and  C_6
REMARK    6  A    between atoms: C_6  and  O_7
REMARK    7  A    between atoms: C_10  and  C_11
REMARK    8  A    between atoms: C_17  and  C_18
REMARK                            x       y       z     vdW  Elec       q    Type
REMARK                         _______ _______ _______ _____ _____    ______ ____
ROOT
ATOM      1  N   UNL     1       6.422   6.333  17.118  0.00  0.00    +0.000 N 
ATOM      2  C   UNL     1       5.186   6.155  17.629  0.00  0.00    +0.000 A 
ATOM      3  N   UNL     1       4.606   5.033  17.989  0.00  0.00    +0.000 NA
ATOM      4  C   UNL     1       3.376   5.425  18.473  0.00  0.00    +0.000 A 
ATOM      5  C   UNL     1       3.260   6.803  18.408  0.00  0.00    +0.000 A 
ATOM      6  O   UNL     1       4.422   7.268  17.845  0.00  0.00    +0.000 OA
ENDROOT
BRANCH   4   7
ATOM      7  C   UNL     1       2.409   4.471  18.982  0.00  0.00    +0.000 A 
ATOM      8  C   UNL     1       1.818   3.553  18.104  0.00  0.00    +0.000 A 
ATOM      9  C   UNL     1       0.914   2.600  18.578  0.00  0.00    +0.000 A 
ATOM     10  C   UNL     1       0.592   2.555  19.934  0.00  0.00    +0.000 A 
ATOM     11  C   UNL     1       1.157   3.478  20.812  0.00  0.00    +0.000 A 
ATOM     12  C   UNL     1       2.045   4.443  20.335  0.00  0.00    +0.000 A 
ENDBRANCH   4   7
BRANCH   5  13
ATOM     13  C   UNL     1       2.283   7.818  18.780  0.00  0.00    +0.000 A 
ATOM     14  C   UNL     1       1.757   8.709  17.829  0.00  0.00    +0.000 A 
ATOM     15  C   UNL     1       0.887   9.737  18.206  0.00  0.00    +0.000 A 
ATOM     16  C   UNL     1       0.496   9.863  19.536  0.00  0.00    +0.000 A 
ATOM     17  C   UNL     1       0.967   8.960  20.484  0.00  0.00    +0.000 A 
ATOM     18  C   UNL     1       1.855   7.948  20.110  0.00  0.00    +0.000 A 
ENDBRANCH   5  13
BRANCH   1  19
ATOM     19  C   UNL     1       7.265   5.162  16.861  0.00  0.00    +0.000 C 
BRANCH  19  20
ATOM     20  C   UNL     1       7.059   4.587  15.450  0.00  0.00    +0.000 C 
BRANCH  20  21
ATOM     21  O   UNL     1       7.697   5.399  14.462  0.00  0.00    +0.000 OA
ATOM     22  H   UNL     1       7.105   6.154  14.299  0.00  0.00    +0.000 HD
ENDBRANCH  20  21
ENDBRANCH  19  20
ENDBRANCH   1  19
BRANCH   1  23
ATOM     23  C   UNL     1       7.031   7.663  17.071  0.00  0.00    +0.000 C 
BRANCH  23  24
ATOM     24  C   UNL     1       8.085   7.852  18.176  0.00  0.00    +0.000 C 
BRANCH  24  25
ATOM     25  O   UNL     1       8.519   9.210  18.280  0.00  0.00    +0.000 OA
ATOM     26  H   UNL     1       7.715   9.724  18.476  0.00  0.00    +0.000 HD
ENDBRANCH  24  25
ENDBRANCH  23  24
ENDBRANCH   1  23
TORSDOF 8
ENDMDL
MODEL 2
REMARK VINA RESULT:      -7.6      0.630      1.523
REMARK  Name = 
REMARK  8 active torsions:
REMARK  status: ('A' for Active; 'I' for Inactive)
REMARK    1  A    between atoms: O_1  and  C_2
REMARK    2  A    between atoms: C_2  and  C_3
REMARK    3  A    between atoms: C_3  and  N_4
REMARK    4  A    between atoms: N_4  and  C_5
REMARK    5  A    between atoms: C_5  and  C_6
REMARK    6  A    between atoms: C_6  and  O_7
REMARK    7  A    between atoms: C_10  and  C_11
REMARK    8  A    between atoms: C_17  and  C_18
REMARK                            x       y       z     vdW  Elec       q    Type
REMARK                         _______ _______ _______ _____ _____    ______ ____
ROOT
ATOM      1  N   UNL     1       6.481   6.251  17.151  0.00  0.00    +0.000 N 
ATOM      2  C   UNL     1       5.240   6.098  17.657  0.00  0.00    +0.000 A 
ATOM      3  N   UNL     1       4.643   4.990  18.035  0.00  0.00    +0.000 NA
ATOM      4  C   UNL     1       3.416   5.406  18.504  0.00  0.00    +0.000 A 
ATOM      5  C   UNL     1       3.317   6.785  18.412  0.00  0.00    +0.000 A 
ATOM      6  O   UNL     1       4.488   7.224  17.848  0.00  0.00    +0.000 OA
ENDROOT
BRANCH   4   7
ATOM      7  C   UNL     1       2.434   4.474  19.024  0.00  0.00    +0.000 A 
ATOM      8  C   UNL     1       2.238   4.381  20.409  0.00  0.00    +0.000 A 
ATOM      9  C   UNL     1       1.271   3.519  20.931  0.00  0.00    +0.000 A 
ATOM     10  C   UNL     1       0.491   2.743  20.075  0.00  0.00    +0.000 A 
ATOM     11  C   UNL     1       0.693   2.811  18.698  0.00  0.00    +0.000 A 
ATOM     12  C   UNL     1       1.673   3.657  18.178  0.00  0.00    +0.000 A 
ENDBRANCH   4   7
BRANCH   5  13
ATOM     13  C   UNL     1       2.351   7.819  18.759  0.00  0.00    +0.000 A 
ATOM     14  C   UNL     1       1.901   7.984  20.079  0.00  0.00    +0.000 A 
ATOM     15  C   UNL     1       0.908   8.918  20.392  0.00  0.00    +0.000 A 
ATOM     16  C   UNL     1       0.381   9.732  19.394  0.00  0.00    +0.000 A 
ATOM     17  C   UNL     1       0.849   9.617  18.089  0.00  0.00    +0.000 A 
ATOM     18  C   UNL     1       1.824   8.667  17.773  0.00  0.00    +0.000 A 
ENDBRANCH   5  13
BRANCH   1  19
ATOM     19  C   UNL     1       7.311   5.065  16.921  0.00  0.00    +0.000 C 
BRANCH  19  20
ATOM     20  C   UNL     1       6.974   4.359  15.597  0.00  0.00    +0.000 C 
BRANCH  20  21
ATOM     21  O   UNL     1       6.033   3.303  15.798  0.00  0.00    +0.000 OA
ATOM     22  H   UNL     1       5.276   3.492  15.216  0.00  0.00    +0.000 HD
ENDBRANCH  20  21
ENDBRANCH  19  20
ENDBRANCH   1  19
BRANCH   1  23
ATOM     23  C   UNL     1       7.107   7.572  17.083  0.00  0.00    +0.000 C 
BRANCH  23  24
ATOM     24  C   UNL     1       8.150   7.772  18.197  0.00  0.00    +0.000 C 
BRANCH  24  25
ATOM     25  O   UNL     1       8.515   9.145  18.353  0.00  0.00    +0.000 OA
ATOM     26  H   UNL     1       7.683   9.645  18.269  0.00  0.00    +0.000 HD
ENDBRANCH  24  25
ENDBRANCH  23  24
ENDBRANCH   1  23
TORSDOF 8
ENDMDL
MODEL 3
REMARK VINA RESULT:      -7.4      0.825      4.578
REMARK  Name = 
REMARK  8 active torsions:
REMARK  status: ('A' for Active; 'I' for Inactive)
REMARK    1  A    between atoms: O_1  and  C_2
REMARK    2  A    between atoms: C_2  and  C_3
REMARK    3  A    between atoms: C_3  and  N_4
REMARK    4  A    between atoms: N_4  and  C_5
REMARK    5  A    between atoms: C_5  and  C_6
REMARK    6  A    between atoms: C_6  and  O_7
REMARK    7  A    between atoms: C_10  and  C_11
REMARK    8  A    between atoms: C_17  and  C_18
REMARK                            x       y       z     vdW  Elec       q    Type
REMARK                         _______ _______ _______ _____ _____    ______ ____
ROOT
ATOM      1  N   UNL     1       6.587   6.088  17.234  0.00  0.00    +0.000 N 
ATOM      2  C   UNL     1       5.346   6.247  17.739  0.00  0.00    +0.000 A 
ATOM      3  N   UNL     1       4.656   7.358  17.873  0.00  0.00    +0.000 NA
ATOM      4  C   UNL     1       3.451   6.949  18.402  0.00  0.00    +0.000 A 
ATOM      5  C   UNL     1       3.444   5.572  18.553  0.00  0.00    +0.000 A 
ATOM      6  O   UNL     1       4.675   5.127  18.142  0.00  0.00    +0.000 OA
ENDROOT
BRANCH   4   7
ATOM      7  C   UNL     1       2.386   7.886  18.706  0.00  0.00    +0.000 A 
ATOM      8  C   UNL     1       1.909   7.984  20.020  0.00  0.00    +0.000 A 
ATOM      9  C   UNL     1       0.910   8.906  20.344  0.00  0.00    +0.000 A 
ATOM     10  C   UNL     1       0.382   9.738  19.358  0.00  0.00    +0.000 A 
ATOM     11  C   UNL     1       0.833   9.634  18.045  0.00  0.00    +0.000 A 
ATOM     12  C   UNL     1       1.816   8.698  17.717  0.00  0.00    +0.000 A 
ENDBRANCH   4   7
BRANCH   5  13
ATOM     13  C   UNL     1       2.510   4.544  18.995  0.00  0.00    +0.000 A 
ATOM     14  C   UNL     1       1.844   3.719  18.074  0.00  0.00    +0.000 A 
ATOM     15  C   UNL     1       0.884   2.794  18.496  0.00  0.00    +0.000 A 
ATOM     16  C   UNL     1       0.606   2.651  19.852  0.00  0.00    +0.000 A 
ATOM     17  C   UNL     1       1.291   3.426  20.784  0.00  0.00    +0.000 A 
ATOM     18  C   UNL     1       2.233   4.366  20.359  0.00  0.00    +0.000 A 
ENDBRANCH   5  13
BRANCH   1  19
ATOM     19  C   UNL     1       7.341   7.268  16.803  0.00  0.00    +0.000 C 
BRANCH  19  20
ATOM     20  C   UNL     1       7.978   8.022  17.982  0.00  0.00    +0.000 C 
BRANCH  20  21
ATOM     21  O   UNL     1       8.519   7.115  18.945  0.00  0.00    +0.000 OA
ATOM     22  H   UNL     1       7.825   6.457  19.126  0.00  0.00    +0.000 HD
ENDBRANCH  20  21
ENDBRANCH  19  20
ENDBRANCH   1  19
BRANCH   1  23
ATOM     23  C   UNL     1       7.081   4.761  16.860  0.00  0.00    +0.000 C 
BRANCH  23  24
ATOM     24  C   UNL     1       6.793   4.436  15.384  0.00  0.00    +0.000 C 
BRANCH  24  25
ATOM     25  O   UNL     1       7.634   5.177  14.496  0.00  0.00    +0.000 OA
ATOM     26  H   UNL     1       7.359   4.914  13.600  0.00  0.00    +0.000 HD
ENDBRANCH  24  25
ENDBRANCH  23  24
ENDBRANCH   1  23
TORSDOF 8
ENDMDL
MODEL 4
REMARK VINA RESULT:      -7.4      0.830      4.599
REMARK  Name = 
REMARK  8 active torsions:
REMARK  status: ('A' for Active; 'I' for Inactive)
REMARK    1  A    between atoms: O_1  and  C_2
REMARK    2  A    between atoms: C_2  and  C_3
REMARK    3  A    between atoms: C_3  and  N_4
REMARK    4  A    between atoms: N_4  and  C_5
REMARK    5  A    between atoms: C_5  and  C_6
REMARK    6  A    between atoms: C_6  and  O_7
REMARK    7  A    between atoms: C_10  and  C_11
REMARK    8  A    between atoms: C_17  and  C_18
REMARK                            x       y       z     vdW  Elec       q    Type
REMARK                         _______ _______ _______ _____ _____    ______ ____
ROOT
ATOM      1  N   UNL     1       6.489   6.051  17.232  0.00  0.00    +0.000 N 
ATOM      2  C   UNL     1       5.255   6.239  17.745  0.00  0.00    +0.000 A 
ATOM      3  N   UNL     1       4.596   7.367  17.891  0.00  0.00    +0.000 NA
ATOM      4  C   UNL     1       3.383   6.986  18.423  0.00  0.00    +0.000 A 
ATOM      5  C   UNL     1       3.340   5.608  18.563  0.00  0.00    +0.000 A 
ATOM      6  O   UNL     1       4.556   5.134  18.142  0.00  0.00    +0.000 OA
ENDROOT
BRANCH   4   7
ATOM      7  C   UNL     1       2.344   7.948  18.739  0.00  0.00    +0.000 A 
ATOM      8  C   UNL     1       1.812   8.748  17.719  0.00  0.00    +0.000 A 
ATOM      9  C   UNL     1       0.785   9.654  17.992  0.00  0.00    +0.000 A 
ATOM     10  C   UNL     1       0.279   9.768  19.287  0.00  0.00    +0.000 A 
ATOM     11  C   UNL     1       0.817   8.994  20.313  0.00  0.00    +0.000 A 
ATOM     12  C   UNL     1       1.857   8.103  20.043  0.00  0.00    +0.000 A 
ENDBRANCH   4   7
BRANCH   5  13
ATOM     13  C   UNL     1       2.381   4.602  19.001  0.00  0.00    +0.000 A 
ATOM     14  C   UNL     1       2.021   4.476  20.353  0.00  0.00    +0.000 A 
ATOM     15  C   UNL     1       1.168   3.454  20.781  0.00  0.00    +0.000 A 
ATOM     16  C   UNL     1       0.628   2.566  19.855  0.00  0.00    +0.000 A 
ATOM     17  C   UNL     1       0.934   2.705  18.504  0.00  0.00    +0.000 A 
ATOM     18  C   UNL     1       1.805   3.713  18.081  0.00  0.00    +0.000 A 
ENDBRANCH   5  13
BRANCH   1  19
ATOM     19  C   UNL     1       7.273   7.214  16.807  0.00  0.00    +0.000 C 
BRANCH  19  20
ATOM     20  C   UNL     1       7.924   7.949  17.990  0.00  0.00    +0.000 C 
BRANCH  20  21
ATOM     21  O   UNL     1       8.455   7.025  18.944  0.00  0.00    +0.000 OA
ATOM     22  H   UNL     1       7.691   6.617  19.389  0.00  0.00    +0.000 HD
ENDBRANCH  20  21
ENDBRANCH  19  20
ENDBRANCH   1  19
BRANCH   1  23
ATOM     23  C   UNL     1       6.946   4.715  16.846  0.00  0.00    +0.000 C 
BRANCH  23  24
ATOM     24  C   UNL     1       6.700   4.433  15.354  0.00  0.00    +0.000 C 
BRANCH  24  25
ATOM     25  O   UNL     1       7.590   5.171  14.513  0.00  0.00    +0.000 OA
ATOM     26  H   UNL     1       7.437   4.833  13.613  0.00  0.00    +0.000 HD
ENDBRANCH  24  25
ENDBRANCH  23  24
ENDBRANCH   1  23
TORSDOF 8
ENDMDL
MODEL 5
REMARK VINA RESULT:      -7.3      0.687      4.706
REMARK  Name = 
REMARK  8 active torsions:
REMARK  status: ('A' for Active; 'I' for Inactive)
REMARK    1  A    between atoms: O_1  and  C_2
REMARK    2  A    between atoms: C_2  and  C_3
REMARK    3  A    between atoms: C_3  and  N_4
REMARK    4  A    between atoms: N_4  and  C_5
REMARK    5  A    between atoms: C_5  and  C_6
REMARK    6  A    between atoms: C_6  and  O_7
REMARK    7  A    between atoms: C_10  and  C_11
REMARK    8  A    between atoms: C_17  and  C_18
REMARK                            x       y       z     vdW  Elec       q    Type
REMARK                         _______ _______ _______ _____ _____    ______ ____
ROOT
ATOM      1  N   UNL     1       6.532   6.116  17.323  0.00  0.00    +0.000 N 
ATOM      2  C   UNL     1       5.282   6.284  17.802  0.00  0.00    +0.000 A 
ATOM      3  N   UNL     1       4.603   7.401  17.936  0.00  0.00    +0.000 NA
ATOM      4  C   UNL     1       3.381   7.000  18.432  0.00  0.00    +0.000 A 
ATOM      5  C   UNL     1       3.354   5.622  18.564  0.00  0.00    +0.000 A 
ATOM      6  O   UNL     1       4.588   5.166  18.174  0.00  0.00    +0.000 OA
ENDROOT
BRANCH   4   7
ATOM      7  C   UNL     1       2.321   7.946  18.725  0.00  0.00    +0.000 A 
ATOM      8  C   UNL     1       1.854   8.073  20.040  0.00  0.00    +0.000 A 
ATOM      9  C   UNL     1       0.861   9.004  20.354  0.00  0.00    +0.000 A 
ATOM     10  C   UNL     1       0.326   9.817  19.355  0.00  0.00    +0.000 A 
ATOM     11  C   UNL     1       0.767   9.683  18.040  0.00  0.00    +0.000 A 
ATOM     12  C   UNL     1       1.744   8.739  17.724  0.00  0.00    +0.000 A 
ENDBRANCH   4   7
BRANCH   5  13
ATOM     13  C   UNL     1       2.397   4.599  18.969  0.00  0.00    +0.000 A 
ATOM     14  C   UNL     1       1.980   4.479  20.305  0.00  0.00    +0.000 A 
ATOM     15  C   UNL     1       1.131   3.442  20.706  0.00  0.00    +0.000 A 
ATOM     16  C   UNL     1       0.651   2.535  19.766  0.00  0.00    +0.000 A 
ATOM     17  C   UNL     1       1.013   2.668  18.429  0.00  0.00    +0.000 A 
ATOM     18  C   UNL     1       1.881   3.690  18.034  0.00  0.00    +0.000 A 
ENDBRANCH   5  13
BRANCH   1  19
ATOM     19  C   UNL     1       7.310   7.293  16.926  0.00  0.00    +0.000 C 
BRANCH  19  20
ATOM     20  C   UNL     1       8.093   7.904  18.100  0.00  0.00    +0.000 C 
BRANCH  20  21
ATOM     21  O   UNL     1       8.137   9.329  18.007  0.00  0.00    +0.000 OA
ATOM     22  H   UNL     1       7.791   9.560  17.127  0.00  0.00    +0.000 HD
ENDBRANCH  20  21
ENDBRANCH  19  20
ENDBRANCH   1  19
BRANCH   1  23
ATOM     23  C   UNL     1       7.018   4.789  16.942  0.00  0.00    +0.000 C 
BRANCH  23  24
ATOM     24  C   UNL     1       6.732   4.475  15.463  0.00  0.00    +0.000 C 
BRANCH  24  25
ATOM     25  O   UNL     1       7.599   5.195  14.583  0.00  0.00    +0.000 OA
ATOM     26  H   UNL     1       7.863   5.993  15.076  0.00  0.00    +0.000 HD
ENDBRANCH  24  25
ENDBRANCH  23  24
ENDBRANCH   1  23
TORSDOF 8
ENDMDL
MODEL 6
REMARK VINA RESULT:      -7.2      1.262      4.607
REMARK  Name = 
REMARK  8 active torsions:
REMARK  status: ('A' for Active; 'I' for Inactive)
REMARK    1  A    between atoms: O_1  and  C_2
REMARK    2  A    between atoms: C_2  and  C_3
REMARK    3  A    between atoms: C_3  and  N_4
REMARK    4  A    between atoms: N_4  and  C_5
REMARK    5  A    between atoms: C_5  and  C_6
REMARK    6  A    between atoms: C_6  and  O_7
REMARK    7  A    between atoms: C_10  and  C_11
REMARK    8  A    between atoms: C_17  and  C_18
REMARK                            x       y       z     vdW  Elec       q    Type
REMARK                         _______ _______ _______ _____ _____    ______ ____
ROOT
ATOM      1  N   UNL     1       6.379   6.319  17.096  0.00  0.00    +0.000 N 
ATOM      2  C   UNL     1       5.152   6.469  17.636  0.00  0.00    +0.000 A 
ATOM      3  N   UNL     1       4.465   7.576  17.808  0.00  0.00    +0.000 NA
ATOM      4  C   UNL     1       3.275   7.157  18.362  0.00  0.00    +0.000 A 
ATOM      5  C   UNL     1       3.273   5.777  18.489  0.00  0.00    +0.000 A 
ATOM      6  O   UNL     1       4.492   5.341  18.038  0.00  0.00    +0.000 OA
ENDROOT
BRANCH   4   7
ATOM      7  C   UNL     1       2.218   8.087  18.710  0.00  0.00    +0.000 A 
ATOM      8  C   UNL     1       1.783   8.170  20.040  0.00  0.00    +0.000 A 
ATOM      9  C   UNL     1       0.793   9.085  20.406  0.00  0.00    +0.000 A 
ATOM     10  C   UNL     1       0.230   9.926  19.447  0.00  0.00    +0.000 A 
ATOM     11  C   UNL     1       0.639   9.836  18.118  0.00  0.00    +0.000 A 
ATOM     12  C   UNL     1       1.613   8.907  17.749  0.00  0.00    +0.000 A 
ENDBRANCH   4   7
BRANCH   5  13
ATOM     13  C   UNL     1       2.351   4.741  18.937  0.00  0.00    +0.000 A 
ATOM     14  C   UNL     1       2.013   4.602  20.294  0.00  0.00    +0.000 A 
ATOM     15  C   UNL     1       1.199   3.553  20.731  0.00  0.00    +0.000 A 
ATOM     16  C   UNL     1       0.675   2.650  19.810  0.00  0.00    +0.000 A 
ATOM     17  C   UNL     1       0.959   2.800  18.456  0.00  0.00    +0.000 A 
ATOM     18  C   UNL     1       1.792   3.835  18.024  0.00  0.00    +0.000 A 
ENDBRANCH   5  13
BRANCH   1  19
ATOM     19  C   UNL     1       7.121   7.508  16.666  0.00  0.00    +0.000 C 
BRANCH  19  20
ATOM     20  C   UNL     1       7.759   8.261  17.844  0.00  0.00    +0.000 C 
BRANCH  20  21
ATOM     21  O   UNL     1       8.400   7.359  18.749  0.00  0.00    +0.000 OA
ATOM     22  H   UNL     1       8.135   7.630  19.645  0.00  0.00    +0.000 HD
ENDBRANCH  20  21
ENDBRANCH  19  20
ENDBRANCH   1  19
BRANCH   1  23
ATOM     23  C   UNL     1       6.863   5.000  16.686  0.00  0.00    +0.000 C 
BRANCH  23  24
ATOM     24  C   UNL     1       7.838   4.401  17.716  0.00  0.00    +0.000 C 
BRANCH  24  25
ATOM     25  O   UNL     1       7.483   4.748  19.057  0.00  0.00    +0.000 OA
ATOM     26  H   UNL     1       8.138   4.300  19.622  0.00  0.00    +0.000 HD
ENDBRANCH  24  25
ENDBRANCH  23  24
ENDBRANCH   1  23
TORSDOF 8
ENDMDL
MODEL 7
REMARK VINA RESULT:      -7.2      0.977      1.057
REMARK  Name = 
REMARK  8 active torsions:
REMARK  status: ('A' for Active; 'I' for Inactive)
REMARK    1  A    between atoms: O_1  and  C_2
REMARK    2  A    between atoms: C_2  and  C_3
REMARK    3  A    between atoms: C_3  and  N_4
REMARK    4  A    between atoms: N_4  and  C_5
REMARK    5  A    between atoms: C_5  and  C_6
REMARK    6  A    between atoms: C_6  and  O_7
REMARK    7  A    between atoms: C_10  and  C_11
REMARK    8  A    between atoms: C_17  and  C_18
REMARK                            x       y       z     vdW  Elec       q    Type
REMARK                         _______ _______ _______ _____ _____    ______ ____
ROOT
ATOM      1  N   UNL     1       6.177   6.206  16.694  0.00  0.00    +0.000 N 
ATOM      2  C   UNL     1       4.987   6.069  17.314  0.00  0.00    +0.000 A 
ATOM      3  N   UNL     1       4.400   4.966  17.719  0.00  0.00    +0.000 NA
ATOM      4  C   UNL     1       3.235   5.398  18.314  0.00  0.00    +0.000 A 
ATOM      5  C   UNL     1       3.165   6.781  18.268  0.00  0.00    +0.000 A 
ATOM      6  O   UNL     1       4.288   7.208  17.605  0.00  0.00    +0.000 OA
ENDROOT
BRANCH   4   7
ATOM      7  C   UNL     1       2.282   4.476  18.904  0.00  0.00    +0.000 A 
ATOM      8  C   UNL     1       1.542   3.625  18.072  0.00  0.00    +0.000 A 
ATOM      9  C   UNL     1       0.648   2.702  18.619  0.00  0.00    +0.000 A 
ATOM     10  C   UNL     1       0.486   2.621  20.002  0.00  0.00    +0.000 A 
ATOM     11  C   UNL     1       1.200   3.478  20.836  0.00  0.00    +0.000 A 
ATOM     12  C   UNL     1       2.078   4.414  20.288  0.00  0.00    +0.000 A 
ENDBRANCH   4   7
BRANCH   5  13
ATOM     13  C   UNL     1       2.265   7.828  18.733  0.00  0.00    +0.000 A 
ATOM     14  C   UNL     1       1.776   8.813  17.858  0.00  0.00    +0.000 A 
ATOM     15  C   UNL     1       0.984   9.865  18.326  0.00  0.00    +0.000 A 
ATOM     16  C   UNL     1       0.631   9.925  19.671  0.00  0.00    +0.000 A 
ATOM     17  C   UNL     1       1.065   8.932  20.544  0.00  0.00    +0.000 A 
ATOM     18  C   UNL     1       1.876   7.894  20.080  0.00  0.00    +0.000 A 
ENDBRANCH   5  13
BRANCH   1  19
ATOM     19  C   UNL     1       6.949   5.006  16.354  0.00  0.00    +0.000 C 
BRANCH  19  20
ATOM     20  C   UNL     1       7.778   4.484  17.539  0.00  0.00    +0.000 C 
BRANCH  20  21
ATOM     21  O   UNL     1       6.942   4.163  18.654  0.00  0.00    +0.000 OA
ATOM     22  H   UNL     1       7.494   3.659  19.278  0.00  0.00    +0.000 HD
ENDBRANCH  20  21
ENDBRANCH  19  20
ENDBRANCH   1  19
BRANCH   1  23
ATOM     23  C   UNL     1       6.830   7.513  16.599  0.00  0.00    +0.000 C 
BRANCH  23  24
ATOM     24  C   UNL     1       7.727   7.796  17.817  0.00  0.00    +0.000 C 
BRANCH  24  25
ATOM     25  O   UNL     1       8.108   9.172  17.895  0.00  0.00    +0.000 OA
ATOM     26  H   UNL     1       7.352   9.671  17.538  0.00  0.00    +0.000 HD
ENDBRANCH  24  25
ENDBRANCH  23  24
ENDBRANCH   1  23
TORSDOF 8
ENDMDL
MODEL 8
REMARK VINA RESULT:      -7.1      2.713      6.324
REMARK  Name = 
REMARK  8 active torsions:
REMARK  status: ('A' for Active; 'I' for Inactive)
REMARK    1  A    between atoms: O_1  and  C_2
REMARK    2  A    between atoms: C_2  and  C_3
REMARK    3  A    between atoms: C_3  and  N_4
REMARK    4  A    between atoms: N_4  and  C_5
REMARK    5  A    between atoms: C_5  and  C_6
REMARK    6  A    between atoms: C_6  and  O_7
REMARK    7  A    between atoms: C_10  and  C_11
REMARK    8  A    between atoms: C_17  and  C_18
REMARK                            x       y       z     vdW  Elec       q    Type
REMARK                         _______ _______ _______ _____ _____    ______ ____
ROOT
ATOM      1  N   UNL     1       1.721   9.773  18.189  0.00  0.00    +0.000 N 
ATOM      2  C   UNL     1       2.305   8.561  18.095  0.00  0.00    +0.000 A 
ATOM      3  N   UNL     1       3.496   8.263  17.625  0.00  0.00    +0.000 NA
ATOM      4  C   UNL     1       3.599   6.899  17.798  0.00  0.00    +0.000 A 
ATOM      5  C   UNL     1       2.451   6.411  18.400  0.00  0.00    +0.000 A 
ATOM      6  O   UNL     1       1.613   7.483  18.572  0.00  0.00    +0.000 OA
ENDROOT
BRANCH   4   7
ATOM      7  C   UNL     1       4.783   6.160  17.403  0.00  0.00    +0.000 A 
ATOM      8  C   UNL     1       5.562   5.531  18.383  0.00  0.00    +0.000 A 
ATOM      9  C   UNL     1       6.685   4.782  18.023  0.00  0.00    +0.000 A 
ATOM     10  C   UNL     1       7.038   4.653  16.680  0.00  0.00    +0.000 A 
ATOM     11  C   UNL     1       6.283   5.293  15.699  0.00  0.00    +0.000 A 
ATOM     12  C   UNL     1       5.174   6.059  16.061  0.00  0.00    +0.000 A 
ENDBRANCH   4   7
BRANCH   5  13
ATOM     13  C   UNL     1       1.952   5.129  18.882  0.00  0.00    +0.000 A 
ATOM     14  C   UNL     1       1.718   4.903  20.248  0.00  0.00    +0.000 A 
ATOM     15  C   UNL     1       1.324   3.645  20.715  0.00  0.00    +0.000 A 
ATOM     16  C   UNL     1       1.115   2.604  19.815  0.00  0.00    +0.000 A 
ATOM     17  C   UNL     1       1.294   2.822  18.452  0.00  0.00    +0.000 A 
ATOM     18  C   UNL     1       1.711   4.073  17.990  0.00  0.00    +0.000 A 
ENDBRANCH   5  13
BRANCH   1  19
ATOM     19  C   UNL     1       2.429  10.950  17.675  0.00  0.00    +0.000 C 
BRANCH  19  20
ATOM     20  C   UNL     1       2.206  12.197  18.546  0.00  0.00    +0.000 C 
BRANCH  20  21
ATOM     21  O   UNL     1       1.423  13.176  17.858  0.00  0.00    +0.000 OA
ATOM     22  H   UNL     1       1.776  14.045  18.117  0.00  0.00    +0.000 HD
ENDBRANCH  20  21
ENDBRANCH  19  20
ENDBRANCH   1  19
BRANCH   1  23
ATOM     23  C   UNL     1       0.535   9.973  19.022  0.00  0.00    +0.000 C 
BRANCH  23  24
ATOM     24  C   UNL     1      -0.749  10.069  18.180  0.00  0.00    +0.000 C 
BRANCH  24  25
ATOM     25  O   UNL     1      -1.026  11.411  17.770  0.00  0.00    +0.000 OA
ATOM     26  H   UNL     1      -1.541  11.329  16.948  0.00  0.00    +0.000 HD
ENDBRANCH  24  25
ENDBRANCH  23  24
ENDBRANCH   1  23
TORSDOF 8
ENDMDL
MODEL 9
REMARK VINA RESULT:      -7.1      2.633      6.156
REMARK  Name = 
REMARK  8 active torsions:
REMARK  status: ('A' for Active; 'I' for Inactive)
REMARK    1  A    between atoms: O_1  and  C_2
REMARK    2  A    between atoms: C_2  and  C_3
REMARK    3  A    between atoms: C_3  and  N_4
REMARK    4  A    between atoms: N_4  and  C_5
REMARK    5  A    between atoms: C_5  and  C_6
REMARK    6  A    between atoms: C_6  and  O_7
REMARK    7  A    between atoms: C_10  and  C_11
REMARK    8  A    between atoms: C_17  and  C_18
REMARK                            x       y       z     vdW  Elec       q    Type
REMARK                         _______ _______ _______ _____ _____    ______ ____
ROOT
ATOM      1  N   UNL     1       1.740   9.634  18.365  0.00  0.00    +0.000 N 
ATOM      2  C   UNL     1       2.318   8.419  18.264  0.00  0.00    +0.000 A 
ATOM      3  N   UNL     1       3.419   8.089  17.627  0.00  0.00    +0.000 NA
ATOM      4  C   UNL     1       3.568   6.742  17.879  0.00  0.00    +0.000 A 
ATOM      5  C   UNL     1       2.542   6.298  18.697  0.00  0.00    +0.000 A 
ATOM      6  O   UNL     1       1.728   7.378  18.926  0.00  0.00    +0.000 OA
ENDROOT
BRANCH   4   7
ATOM      7  C   UNL     1       4.681   5.978  17.349  0.00  0.00    +0.000 A 
ATOM      8  C   UNL     1       5.987   6.461  17.508  0.00  0.00    +0.000 A 
ATOM      9  C   UNL     1       7.077   5.724  17.039  0.00  0.00    +0.000 A 
ATOM     10  C   UNL     1       6.872   4.498  16.408  0.00  0.00    +0.000 A 
ATOM     11  C   UNL     1       5.577   4.019  16.225  0.00  0.00    +0.000 A 
ATOM     12  C   UNL     1       4.487   4.765  16.674  0.00  0.00    +0.000 A 
ENDBRANCH   4   7
BRANCH   5  13
ATOM     13  C   UNL     1       2.147   5.054  19.346  0.00  0.00    +0.000 A 
ATOM     14  C   UNL     1       1.492   4.035  18.634  0.00  0.00    +0.000 A 
ATOM     15  C   UNL     1       1.036   2.882  19.280  0.00  0.00    +0.000 A 
ATOM     16  C   UNL     1       1.269   2.710  20.642  0.00  0.00    +0.000 A 
ATOM     17  C   UNL     1       1.960   3.685  21.354  0.00  0.00    +0.000 A 
ATOM     18  C   UNL     1       2.394   4.849  20.712  0.00  0.00    +0.000 A 
ENDBRANCH   5  13
BRANCH   1  19
ATOM     19  C   UNL     1       2.337  10.770  17.657  0.00  0.00    +0.000 C 
BRANCH  19  20
ATOM     20  C   UNL     1       2.195  12.089  18.436  0.00  0.00    +0.000 C 
BRANCH  20  21
ATOM     21  O   UNL     1       2.305  13.218  17.566  0.00  0.00    +0.000 OA
ATOM     22  H   UNL     1       1.623  13.107  16.880  0.00  0.00    +0.000 HD
ENDBRANCH  20  21
ENDBRANCH  19  20
ENDBRANCH   1  19
BRANCH   1  23
ATOM     23  C   UNL     1       0.704   9.892  19.366  0.00  0.00    +0.000 C 
BRANCH  23  24
ATOM     24  C   UNL     1      -0.624  10.324  18.720  0.00  0.00    +0.000 C 
BRANCH  24  25
ATOM     25  O   UNL     1      -0.773   9.805  17.397  0.00  0.00    +0.000 OA
ATOM     26  H   UNL     1      -0.016   9.206  17.267  0.00  0.00    +0.000 HD
ENDBRANCH  24  25
ENDBRANCH  23  24
ENDBRANCH   1  23
TORSDOF 8
ENDMDL
