MODEL 1
REMARK VINA RESULT:      -6.9      0.000      0.000
REMARK  Name = 
REMARK  10 active torsions:
REMARK  status: ('A' for Active; 'I' for Inactive)
REMARK    1  A    between atoms: C_1  and  C_2
REMARK    2  A    between atoms: C_2  and  N_3
REMARK    3  A    between atoms: N_3  and  C_4
REMARK    4  A    between atoms: N_3  and  S_6
REMARK    5  A    between atoms: C_4  and  C_5
REMARK    6  A    between atoms: S_6  and  C_9
REMARK    7  A    between atoms: C_18  and  O_19
REMARK    8  A    between atoms: O_19  and  C_20
REMARK    9  A    between atoms: C_21  and  O_22
REMARK   10  A    between atoms: O_22  and  C_23
REMARK                            x       y       z     vdW  Elec       q    Type
REMARK                         _______ _______ _______ _____ _____    ______ ____
ROOT
ATOM      1  C   UNL     1       2.507   6.968  19.344  0.00  0.00    +0.000 A 
ATOM      2  C   UNL     1       2.682   7.484  18.065  0.00  0.00    +0.000 A 
ATOM      3  C   UNL     1       2.177   8.752  17.779  0.00  0.00    +0.000 A 
ATOM      4  C   UNL     1       1.516   9.495  18.758  0.00  0.00    +0.000 A 
ATOM      5  N   UNL     1       1.079  10.778  18.433  0.00  0.00    +0.000 N 
ATOM      6  C   UNL     1      -0.095  11.313  19.123  0.00  0.00    +0.000 C 
ATOM      7  C   UNL     1      -0.494  12.678  18.536  0.00  0.00    +0.000 C 
ATOM      8  C   UNL     1       0.667  13.631  18.661  0.00  0.00    +0.000 A 
ATOM      9  C   UNL     1       0.504  14.982  18.983  0.00  0.00    +0.000 A 
ATOM     10  C   UNL     1       1.615  15.836  19.110  0.00  0.00    +0.000 A 
ATOM     11  C   UNL     1       2.910  15.327  18.901  0.00  0.00    +0.000 A 
ATOM     12  C   UNL     1       3.057  13.976  18.548  0.00  0.00    +0.000 A 
ATOM     13  C   UNL     1       1.948  13.124  18.431  0.00  0.00    +0.000 A 
ATOM     14  C   UNL     1       2.125  11.696  17.959  0.00  0.00    +0.000 C 
ATOM     15  N   UNL     1       1.300   8.970  19.990  0.00  0.00    +0.000 NA
ATOM     16  C   UNL     1       1.778   7.722  20.244  0.00  0.00    +0.000 A 
ENDROOT
BRANCH   1  17
ATOM     17  S   UNL     1       3.011   5.315  19.713  0.00  0.00    +0.000 S 
ATOM     18  O   UNL     1       2.235   4.862  20.835  0.00  0.00    +0.000 OA
ATOM     19  O   UNL     1       4.463   5.308  19.764  0.00  0.00    +0.000 OA
BRANCH  17  20
ATOM     20  N   UNL     1       2.552   4.361  18.328  0.00  0.00    +0.000 NA
BRANCH  20  22
ATOM     21  C   UNL     1       4.434   3.963  16.636  0.00  0.00    +0.000 C 
ATOM     22  C   UNL     1       3.686   3.495  17.868  0.00  0.00    +0.000 C 
ENDBRANCH  20  22
BRANCH  20  23
ATOM     23  C   UNL     1       1.250   3.619  18.541  0.00  0.00    +0.000 C 
ATOM     24  C   UNL     1       1.437   2.129  18.779  0.00  0.00    +0.000 C 
ENDBRANCH  20  23
ENDBRANCH  17  20
ENDBRANCH   1  17
BRANCH  10  25
ATOM     25  O   UNL     1       1.246  17.118  19.440  0.00  0.00    +0.000 OA
ATOM     26  C   UNL     1       0.009  17.323  20.108  0.00  0.00    +0.000 C 
ENDBRANCH  10  25
BRANCH  11  27
ATOM     27  O   UNL     1       3.977  16.175  19.036  0.00  0.00    +0.000 OA
ATOM     28  C   UNL     1       5.289  15.653  18.880  0.00  0.00    +0.000 C 
ENDBRANCH  11  27
TORSDOF 6
ENDMDL
MODEL 2
REMARK VINA RESULT:      -6.6      2.532      3.109
REMARK  Name = 
REMARK  10 active torsions:
REMARK  status: ('A' for Active; 'I' for Inactive)
REMARK    1  A    between atoms: C_1  and  C_2
REMARK    2  A    between atoms: C_2  and  N_3
REMARK    3  A    between atoms: N_3  and  C_4
REMARK    4  A    between atoms: N_3  and  S_6
REMARK    5  A    between atoms: C_4  and  C_5
REMARK    6  A    between atoms: S_6  and  C_9
REMARK    7  A    between atoms: C_18  and  O_19
REMARK    8  A    between atoms: O_19  and  C_20
REMARK    9  A    between atoms: C_21  and  O_22
REMARK   10  A    between atoms: O_22  and  C_23
REMARK                            x       y       z     vdW  Elec       q    Type
REMARK                         _______ _______ _______ _____ _____    ______ ____
ROOT
ATOM      1  C   UNL     1       3.257   6.685  18.465  0.00  0.00    +0.000 A 
ATOM      2  C   UNL     1       3.027   7.668  17.510  0.00  0.00    +0.000 A 
ATOM      3  C   UNL     1       2.189   8.734  17.834  0.00  0.00    +0.000 A 
ATOM      4  C   UNL     1       1.598   8.821  19.094  0.00  0.00    +0.000 A 
ATOM      5  N   UNL     1       0.813   9.936  19.383  0.00  0.00    +0.000 N 
ATOM      6  C   UNL     1      -0.278   9.793  20.347  0.00  0.00    +0.000 C 
ATOM      7  C   UNL     1      -1.102  11.089  20.430  0.00  0.00    +0.000 C 
ATOM      8  C   UNL     1      -0.199  12.228  20.826  0.00  0.00    +0.000 A 
ATOM      9  C   UNL     1      -0.601  13.243  21.699  0.00  0.00    +0.000 A 
ATOM     10  C   UNL     1       0.278  14.281  22.061  0.00  0.00    +0.000 A 
ATOM     11  C   UNL     1       1.581  14.303  21.529  0.00  0.00    +0.000 A 
ATOM     12  C   UNL     1       1.962  13.294  20.629  0.00  0.00    +0.000 A 
ATOM     13  C   UNL     1       1.086  12.256  20.277  0.00  0.00    +0.000 A 
ATOM     14  C   UNL     1       1.487  11.234  19.235  0.00  0.00    +0.000 C 
ATOM     15  N   UNL     1       1.780   7.834  20.007  0.00  0.00    +0.000 NA
ATOM     16  C   UNL     1       2.582   6.789  19.666  0.00  0.00    +0.000 A 
ENDROOT
BRANCH   1  17
ATOM     17  S   UNL     1       4.202   5.249  18.054  0.00  0.00    +0.000 S 
ATOM     18  O   UNL     1       3.333   4.338  17.359  0.00  0.00    +0.000 OA
ATOM     19  O   UNL     1       4.900   4.834  19.259  0.00  0.00    +0.000 OA
BRANCH  17  20
ATOM     20  N   UNL     1       5.418   5.790  16.929  0.00  0.00    +0.000 NA
BRANCH  20  22
ATOM     21  C   UNL     1       7.485   7.017  17.813  0.00  0.00    +0.000 C 
ATOM     22  C   UNL     1       6.789   5.701  17.530  0.00  0.00    +0.000 C 
ENDBRANCH  20  22
BRANCH  20  23
ATOM     23  C   UNL     1       5.290   5.127  15.574  0.00  0.00    +0.000 C 
ATOM     24  C   UNL     1       6.470   4.235  15.225  0.00  0.00    +0.000 C 
ENDBRANCH  20  23
ENDBRANCH  17  20
ENDBRANCH   1  17
BRANCH  10  25
ATOM     25  O   UNL     1      -0.302  15.170  22.932  0.00  0.00    +0.000 OA
ATOM     26  C   UNL     1      -1.238  14.683  23.884  0.00  0.00    +0.000 C 
ENDBRANCH  10  25
BRANCH  11  27
ATOM     27  O   UNL     1       2.422  15.318  21.899  0.00  0.00    +0.000 OA
ATOM     28  C   UNL     1       3.821  15.145  21.724  0.00  0.00    +0.000 C 
ENDBRANCH  11  27
TORSDOF 6
ENDMDL
MODEL 3
REMARK VINA RESULT:      -6.6      2.188      2.411
REMARK  Name = 
REMARK  10 active torsions:
REMARK  status: ('A' for Active; 'I' for Inactive)
REMARK    1  A    between atoms: C_1  and  C_2
REMARK    2  A    between atoms: C_2  and  N_3
REMARK    3  A    between atoms: N_3  and  C_4
REMARK    4  A    between atoms: N_3  and  S_6
REMARK    5  A    between atoms: C_4  and  C_5
REMARK    6  A    between atoms: S_6  and  C_9
REMARK    7  A    between atoms: C_18  and  O_19
REMARK    8  A    between atoms: O_19  and  C_20
REMARK    9  A    between atoms: C_21  and  O_22
REMARK   10  A    between atoms: O_22  and  C_23
REMARK                            x       y       z     vdW  Elec       q    Type
REMARK                         _______ _______ _______ _____ _____    ______ ____
ROOT
ATOM      1  C   UNL     1       2.843   6.858  18.843  0.00  0.00    +0.000 A 
ATOM      2  C   UNL     1       2.614   7.803  17.850  0.00  0.00    +0.000 A 
ATOM      3  C   UNL     1       1.855   8.931  18.159  0.00  0.00    +0.000 A 
ATOM      4  C   UNL     1       1.341   9.115  19.443  0.00  0.00    +0.000 A 
ATOM      5  N   UNL     1       0.635  10.286  19.712  0.00  0.00    +0.000 N 
ATOM      6  C   UNL     1      -0.407  10.256  20.739  0.00  0.00    +0.000 C 
ATOM      7  C   UNL     1      -1.154  11.600  20.795  0.00  0.00    +0.000 C 
ATOM      8  C   UNL     1      -0.168  12.703  21.082  0.00  0.00    +0.000 A 
ATOM      9  C   UNL     1      -0.466  13.783  21.918  0.00  0.00    +0.000 A 
ATOM     10  C   UNL     1       0.488  14.785  22.177  0.00  0.00    +0.000 A 
ATOM     11  C   UNL     1       1.758  14.706  21.577  0.00  0.00    +0.000 A 
ATOM     12  C   UNL     1       2.033  13.632  20.714  0.00  0.00    +0.000 A 
ATOM     13  C   UNL     1       1.083  12.630  20.465  0.00  0.00    +0.000 A 
ATOM     14  C   UNL     1       1.370  11.534  19.460  0.00  0.00    +0.000 C 
ATOM     15  N   UNL     1       1.519   8.167  20.397  0.00  0.00    +0.000 NA
ATOM     16  C   UNL     1       2.242   7.062  20.070  0.00  0.00    +0.000 A 
ENDROOT
BRANCH   1  17
ATOM     17  S   UNL     1       3.684   5.351  18.461  0.00  0.00    +0.000 S 
ATOM     18  O   UNL     1       4.729   5.176  19.432  0.00  0.00    +0.000 OA
ATOM     19  O   UNL     1       3.988   5.377  17.040  0.00  0.00    +0.000 OA
BRANCH  17  20
ATOM     20  N   UNL     1       2.513   4.083  18.702  0.00  0.00    +0.000 NA
BRANCH  20  22
ATOM     21  C   UNL     1       3.359   1.769  17.999  0.00  0.00    +0.000 C 
ATOM     22  C   UNL     1       2.618   3.039  17.631  0.00  0.00    +0.000 C 
ENDBRANCH  20  22
BRANCH  20  23
ATOM     23  C   UNL     1       2.538   3.531  20.112  0.00  0.00    +0.000 C 
ATOM     24  C   UNL     1       1.161   3.440  20.749  0.00  0.00    +0.000 C 
ENDBRANCH  20  23
ENDBRANCH  17  20
ENDBRANCH   1  17
BRANCH  10  25
ATOM     25  O   UNL     1       0.007  15.749  23.029  0.00  0.00    +0.000 OA
ATOM     26  C   UNL     1      -1.060  15.416  23.906  0.00  0.00    +0.000 C 
ENDBRANCH  10  25
BRANCH  11  27
ATOM     27  O   UNL     1       2.673  15.688  21.848  0.00  0.00    +0.000 OA
ATOM     28  C   UNL     1       2.803  16.772  20.939  0.00  0.00    +0.000 C 
ENDBRANCH  11  27
TORSDOF 6
ENDMDL
MODEL 4
REMARK VINA RESULT:      -6.6      1.211      1.393
REMARK  Name = 
REMARK  10 active torsions:
REMARK  status: ('A' for Active; 'I' for Inactive)
REMARK    1  A    between atoms: C_1  and  C_2
REMARK    2  A    between atoms: C_2  and  N_3
REMARK    3  A    between atoms: N_3  and  C_4
REMARK    4  A    between atoms: N_3  and  S_6
REMARK    5  A    between atoms: C_4  and  C_5
REMARK    6  A    between atoms: S_6  and  C_9
REMARK    7  A    between atoms: C_18  and  O_19
REMARK    8  A    between atoms: O_19  and  C_20
REMARK    9  A    between atoms: C_21  and  O_22
REMARK   10  A    between atoms: O_22  and  C_23
REMARK                            x       y       z     vdW  Elec       q    Type
REMARK                         _______ _______ _______ _____ _____    ______ ____
ROOT
ATOM      1  C   UNL     1       3.292   6.433  19.066  0.00  0.00    +0.000 A 
ATOM      2  C   UNL     1       3.411   7.075  17.840  0.00  0.00    +0.000 A 
ATOM      3  C   UNL     1       2.672   8.236  17.616  0.00  0.00    +0.000 A 
ATOM      4  C   UNL     1       1.835   8.751  18.605  0.00  0.00    +0.000 A 
ATOM      5  N   UNL     1       1.161   9.943  18.349  0.00  0.00    +0.000 N 
ATOM      6  C   UNL     1      -0.125  10.177  19.006  0.00  0.00    +0.000 C 
ATOM      7  C   UNL     1      -0.768  11.479  18.496  0.00  0.00    +0.000 C 
ATOM      8  C   UNL     1       0.169  12.629  18.755  0.00  0.00    +0.000 A 
ATOM      9  C   UNL     1      -0.277  13.890  19.162  0.00  0.00    +0.000 A 
ATOM     10  C   UNL     1       0.631  14.936  19.413  0.00  0.00    +0.000 A 
ATOM     11  C   UNL     1       2.010  14.713  19.242  0.00  0.00    +0.000 A 
ATOM     12  C   UNL     1       2.442  13.451  18.803  0.00  0.00    +0.000 A 
ATOM     13  C   UNL     1       1.535  12.408  18.562  0.00  0.00    +0.000 A 
ATOM     14  C   UNL     1       2.017  11.087  18.001  0.00  0.00    +0.000 C 
ATOM     15  N   UNL     1       1.678   8.095  19.783  0.00  0.00    +0.000 NA
ATOM     16  C   UNL     1       2.389   6.951  19.974  0.00  0.00    +0.000 A 
ENDROOT
BRANCH   1  17
ATOM     17  S   UNL     1       4.105   4.888  19.345  0.00  0.00    +0.000 S 
ATOM     18  O   UNL     1       3.276   4.111  20.226  0.00  0.00    +0.000 OA
ATOM     19  O   UNL     1       5.484   5.184  19.693  0.00  0.00    +0.000 OA
BRANCH  17  20
ATOM     20  N   UNL     1       4.137   4.086  17.798  0.00  0.00    +0.000 NA
BRANCH  20  22
ATOM     21  C   UNL     1       5.355   4.680  15.623  0.00  0.00    +0.000 C 
ATOM     22  C   UNL     1       5.440   4.322  17.094  0.00  0.00    +0.000 C 
ENDBRANCH  20  22
BRANCH  20  23
ATOM     23  C   UNL     1       3.737   2.629  17.892  0.00  0.00    +0.000 C 
ATOM     24  C   UNL     1       2.256   2.394  17.650  0.00  0.00    +0.000 C 
ENDBRANCH  20  23
ENDBRANCH  17  20
ENDBRANCH   1  17
BRANCH  10  25
ATOM     25  O   UNL     1      -0.003  16.087  19.811  0.00  0.00    +0.000 OA
ATOM     26  C   UNL     1      -0.675  16.100  21.063  0.00  0.00    +0.000 C 
ENDBRANCH  10  25
BRANCH  11  27
ATOM     27  O   UNL     1       2.876  15.742  19.498  0.00  0.00    +0.000 OA
ATOM     28  C   UNL     1       3.507  15.805  20.769  0.00  0.00    +0.000 C 
ENDBRANCH  11  27
TORSDOF 6
ENDMDL
MODEL 5
REMARK VINA RESULT:      -6.6      2.211      2.661
REMARK  Name = 
REMARK  10 active torsions:
REMARK  status: ('A' for Active; 'I' for Inactive)
REMARK    1  A    between atoms: C_1  and  C_2
REMARK    2  A    between atoms: C_2  and  N_3
REMARK    3  A    between atoms: N_3  and  C_4
REMARK    4  A    between atoms: N_3  and  S_6
REMARK    5  A    between atoms: C_4  and  C_5
REMARK    6  A    between atoms: S_6  and  C_9
REMARK    7  A    between atoms: C_18  and  O_19
REMARK    8  A    between atoms: O_19  and  C_20
REMARK    9  A    between atoms: C_21  and  O_22
REMARK   10  A    between atoms: O_22  and  C_23
REMARK                            x       y       z     vdW  Elec       q    Type
REMARK                         _______ _______ _______ _____ _____    ______ ____
ROOT
ATOM      1  C   UNL     1       3.131   6.588  18.799  0.00  0.00    +0.000 A 
ATOM      2  C   UNL     1       2.967   7.538  17.798  0.00  0.00    +0.000 A 
ATOM      3  C   UNL     1       2.159   8.646  18.052  0.00  0.00    +0.000 A 
ATOM      4  C   UNL     1       1.532   8.805  19.288  0.00  0.00    +0.000 A 
ATOM      5  N   UNL     1       0.779   9.957  19.506  0.00  0.00    +0.000 N 
ATOM      6  C   UNL     1      -0.346   9.892  20.439  0.00  0.00    +0.000 C 
ATOM      7  C   UNL     1      -1.126  11.218  20.443  0.00  0.00    +0.000 C 
ATOM      8  C   UNL     1      -0.194  12.340  20.823  0.00  0.00    +0.000 A 
ATOM      9  C   UNL     1      -0.587  13.404  21.640  0.00  0.00    +0.000 A 
ATOM     10  C   UNL     1       0.317  14.424  21.990  0.00  0.00    +0.000 A 
ATOM     11  C   UNL     1       1.636  14.379  21.500  0.00  0.00    +0.000 A 
ATOM     12  C   UNL     1       2.008  13.322  20.655  0.00  0.00    +0.000 A 
ATOM     13  C   UNL     1       1.107  12.301  20.316  0.00  0.00    +0.000 A 
ATOM     14  C   UNL     1       1.503  11.223  19.329  0.00  0.00    +0.000 C 
ATOM     15  N   UNL     1       1.650   7.851  20.245  0.00  0.00    +0.000 NA
ATOM     16  C   UNL     1       2.423   6.765  19.972  0.00  0.00    +0.000 A 
ENDROOT
BRANCH   1  17
ATOM     17  S   UNL     1       4.036   5.104  18.477  0.00  0.00    +0.000 S 
ATOM     18  O   UNL     1       5.344   5.256  19.056  0.00  0.00    +0.000 OA
ATOM     19  O   UNL     1       3.882   4.804  17.064  0.00  0.00    +0.000 OA
BRANCH  17  20
ATOM     20  N   UNL     1       3.208   3.846  19.353  0.00  0.00    +0.000 NA
BRANCH  20  22
ATOM     21  C   UNL     1       0.731   3.396  19.828  0.00  0.00    +0.000 C 
ATOM     22  C   UNL     1       1.828   3.627  18.809  0.00  0.00    +0.000 C 
ENDBRANCH  20  22
BRANCH  20  23
ATOM     23  C   UNL     1       4.034   2.584  19.476  0.00  0.00    +0.000 C 
ATOM     24  C   UNL     1       3.647   1.509  18.475  0.00  0.00    +0.000 C 
ENDBRANCH  20  23
ENDBRANCH  17  20
ENDBRANCH   1  17
BRANCH  10  25
ATOM     25  O   UNL     1      -0.257  15.368  22.806  0.00  0.00    +0.000 OA
ATOM     26  C   UNL     1      -1.096  14.935  23.867  0.00  0.00    +0.000 C 
ENDBRANCH  10  25
BRANCH  11  27
ATOM     27  O   UNL     1       2.501  15.379  21.857  0.00  0.00    +0.000 OA
ATOM     28  C   UNL     1       3.884  15.076  21.976  0.00  0.00    +0.000 C 
ENDBRANCH  11  27
TORSDOF 6
ENDMDL
MODEL 6
REMARK VINA RESULT:      -6.5      0.712      1.481
REMARK  Name = 
REMARK  10 active torsions:
REMARK  status: ('A' for Active; 'I' for Inactive)
REMARK    1  A    between atoms: C_1  and  C_2
REMARK    2  A    between atoms: C_2  and  N_3
REMARK    3  A    between atoms: N_3  and  C_4
REMARK    4  A    between atoms: N_3  and  S_6
REMARK    5  A    between atoms: C_4  and  C_5
REMARK    6  A    between atoms: S_6  and  C_9
REMARK    7  A    between atoms: C_18  and  O_19
REMARK    8  A    between atoms: O_19  and  C_20
REMARK    9  A    between atoms: C_21  and  O_22
REMARK   10  A    between atoms: O_22  and  C_23
REMARK                            x       y       z     vdW  Elec       q    Type
REMARK                         _______ _______ _______ _____ _____    ______ ____
ROOT
ATOM      1  C   UNL     1       2.703   6.759  19.420  0.00  0.00    +0.000 A 
ATOM      2  C   UNL     1       2.931   7.313  18.166  0.00  0.00    +0.000 A 
ATOM      3  C   UNL     1       2.322   8.527  17.849  0.00  0.00    +0.000 A 
ATOM      4  C   UNL     1       1.508   9.180  18.774  0.00  0.00    +0.000 A 
ATOM      5  N   UNL     1       0.969  10.417  18.424  0.00  0.00    +0.000 N 
ATOM      6  C   UNL     1      -0.309  10.817  19.014  0.00  0.00    +0.000 C 
ATOM      7  C   UNL     1      -0.797  12.144  18.408  0.00  0.00    +0.000 C 
ATOM      8  C   UNL     1       0.243  13.208  18.642  0.00  0.00    +0.000 A 
ATOM      9  C   UNL     1      -0.086  14.529  18.960  0.00  0.00    +0.000 A 
ATOM     10  C   UNL     1       0.915  15.491  19.191  0.00  0.00    +0.000 A 
ATOM     11  C   UNL     1       2.269  15.122  19.089  0.00  0.00    +0.000 A 
ATOM     12  C   UNL     1       2.585  13.799  18.739  0.00  0.00    +0.000 A 
ATOM     13  C   UNL     1       1.585  12.840  18.518  0.00  0.00    +0.000 A 
ATOM     14  C   UNL     1       1.949  11.447  18.050  0.00  0.00    +0.000 C 
ATOM     15  N   UNL     1       1.243   8.614  19.977  0.00  0.00    +0.000 NA
ATOM     16  C   UNL     1       1.826   7.418  20.261  0.00  0.00    +0.000 A 
ENDROOT
BRANCH   1  17
ATOM     17  S   UNL     1       3.343   5.160  19.816  0.00  0.00    +0.000 S 
ATOM     18  O   UNL     1       2.625   4.674  20.963  0.00  0.00    +0.000 OA
ATOM     19  O   UNL     1       4.791   5.270  19.841  0.00  0.00    +0.000 OA
BRANCH  17  20
ATOM     20  N   UNL     1       2.938   4.141  18.462  0.00  0.00    +0.000 NA
BRANCH  20  22
ATOM     21  C   UNL     1       0.898   2.605  18.670  0.00  0.00    +0.000 C 
ATOM     22  C   UNL     1       1.453   3.975  18.335  0.00  0.00    +0.000 C 
ENDBRANCH  20  22
BRANCH  20  23
ATOM     23  C   UNL     1       3.626   4.573  17.185  0.00  0.00    +0.000 C 
ATOM     24  C   UNL     1       4.758   3.650  16.767  0.00  0.00    +0.000 C 
ENDBRANCH  20  23
ENDBRANCH  17  20
ENDBRANCH   1  17
BRANCH  10  25
ATOM     25  O   UNL     1       0.388  16.722  19.499  0.00  0.00    +0.000 OA
ATOM     26  C   UNL     1      -0.857  17.096  18.924  0.00  0.00    +0.000 C 
ENDBRANCH  10  25
BRANCH  11  27
ATOM     27  O   UNL     1       3.226  16.072  19.324  0.00  0.00    +0.000 OA
ATOM     28  C   UNL     1       3.936  16.617  18.219  0.00  0.00    +0.000 C 
ENDBRANCH  11  27
TORSDOF 6
ENDMDL
MODEL 7
REMARK VINA RESULT:      -6.5      1.444      1.673
REMARK  Name = 
REMARK  10 active torsions:
REMARK  status: ('A' for Active; 'I' for Inactive)
REMARK    1  A    between atoms: C_1  and  C_2
REMARK    2  A    between atoms: C_2  and  N_3
REMARK    3  A    between atoms: N_3  and  C_4
REMARK    4  A    between atoms: N_3  and  S_6
REMARK    5  A    between atoms: C_4  and  C_5
REMARK    6  A    between atoms: S_6  and  C_9
REMARK    7  A    between atoms: C_18  and  O_19
REMARK    8  A    between atoms: O_19  and  C_20
REMARK    9  A    between atoms: C_21  and  O_22
REMARK   10  A    between atoms: O_22  and  C_23
REMARK                            x       y       z     vdW  Elec       q    Type
REMARK                         _______ _______ _______ _____ _____    ______ ____
ROOT
ATOM      1  C   UNL     1       3.118   6.519  18.825  0.00  0.00    +0.000 A 
ATOM      2  C   UNL     1       3.148   7.307  17.681  0.00  0.00    +0.000 A 
ATOM      3  C   UNL     1       2.405   8.487  17.659  0.00  0.00    +0.000 A 
ATOM      4  C   UNL     1       1.651   8.876  18.767  0.00  0.00    +0.000 A 
ATOM      5  N   UNL     1       0.970  10.091  18.711  0.00  0.00    +0.000 N 
ATOM      6  C   UNL     1      -0.259  10.241  19.491  0.00  0.00    +0.000 C 
ATOM      7  C   UNL     1      -0.927  11.595  19.195  0.00  0.00    +0.000 C 
ATOM      8  C   UNL     1       0.038  12.706  19.520  0.00  0.00    +0.000 A 
ATOM      9  C   UNL     1      -0.364  13.907  20.111  0.00  0.00    +0.000 A 
ATOM     10  C   UNL     1       0.571  14.914  20.417  0.00  0.00    +0.000 A 
ATOM     11  C   UNL     1       1.930  14.715  20.114  0.00  0.00    +0.000 A 
ATOM     12  C   UNL     1       2.316  13.516  19.491  0.00  0.00    +0.000 A 
ATOM     13  C   UNL     1       1.383  12.510  19.196  0.00  0.00    +0.000 A 
ATOM     14  C   UNL     1       1.808  11.268  18.441  0.00  0.00    +0.000 C 
ATOM     15  N   UNL     1       1.580   8.080  19.863  0.00  0.00    +0.000 NA
ATOM     16  C   UNL     1       2.292   6.922  19.858  0.00  0.00    +0.000 A 
ENDROOT
BRANCH   1  17
ATOM     17  S   UNL     1       3.935   4.952  18.848  0.00  0.00    +0.000 S 
ATOM     18  O   UNL     1       4.889   4.973  19.924  0.00  0.00    +0.000 OA
ATOM     19  O   UNL     1       4.358   4.667  17.488  0.00  0.00    +0.000 OA
BRANCH  17  20
ATOM     20  N   UNL     1       2.706   3.784  19.249  0.00  0.00    +0.000 NA
BRANCH  20  22
ATOM     21  C   UNL     1       3.505   1.500  18.408  0.00  0.00    +0.000 C 
ATOM     22  C   UNL     1       2.618   2.712  18.204  0.00  0.00    +0.000 C 
ENDBRANCH  20  22
BRANCH  20  23
ATOM     23  C   UNL     1       2.839   3.263  20.664  0.00  0.00    +0.000 C 
ATOM     24  C   UNL     1       1.509   2.899  21.301  0.00  0.00    +0.000 C 
ENDBRANCH  20  23
ENDBRANCH  17  20
ENDBRANCH   1  17
BRANCH  10  25
ATOM     25  O   UNL     1      -0.020  16.008  21.002  0.00  0.00    +0.000 OA
ATOM     26  C   UNL     1      -1.046  16.691  20.294  0.00  0.00    +0.000 C 
ENDBRANCH  10  25
BRANCH  11  27
ATOM     27  O   UNL     1       2.823  15.705  20.425  0.00  0.00    +0.000 OA
ATOM     28  C   UNL     1       3.699  16.180  19.413  0.00  0.00    +0.000 C 
ENDBRANCH  11  27
TORSDOF 6
ENDMDL
MODEL 8
REMARK VINA RESULT:      -6.4      2.035      2.911
REMARK  Name = 
REMARK  10 active torsions:
REMARK  status: ('A' for Active; 'I' for Inactive)
REMARK    1  A    between atoms: C_1  and  C_2
REMARK    2  A    between atoms: C_2  and  N_3
REMARK    3  A    between atoms: N_3  and  C_4
REMARK    4  A    between atoms: N_3  and  S_6
REMARK    5  A    between atoms: C_4  and  C_5
REMARK    6  A    between atoms: S_6  and  C_9
REMARK    7  A    between atoms: C_18  and  O_19
REMARK    8  A    between atoms: O_19  and  C_20
REMARK    9  A    between atoms: C_21  and  O_22
REMARK   10  A    between atoms: O_22  and  C_23
REMARK                            x       y       z     vdW  Elec       q    Type
REMARK                         _______ _______ _______ _____ _____    ______ ____
ROOT
ATOM      1  C   UNL     1       3.809   5.363  18.468  0.00  0.00    +0.000 A 
ATOM      2  C   UNL     1       3.060   5.843  17.401  0.00  0.00    +0.000 A 
ATOM      3  C   UNL     1       2.259   6.968  17.597  0.00  0.00    +0.000 A 
ATOM      4  C   UNL     1       2.216   7.606  18.836  0.00  0.00    +0.000 A 
ATOM      5  N   UNL     1       1.441   8.758  18.962  0.00  0.00    +0.000 N 
ATOM      6  C   UNL     1       0.866   9.076  20.269  0.00  0.00    +0.000 C 
ATOM      7  C   UNL     1      -0.057  10.304  20.172  0.00  0.00    +0.000 C 
ATOM      8  C   UNL     1       0.731  11.476  19.648  0.00  0.00    +0.000 A 
ATOM      9  C   UNL     1       0.551  12.779  20.120  0.00  0.00    +0.000 A 
ATOM     10  C   UNL     1       1.320  13.846  19.620  0.00  0.00    +0.000 A 
ATOM     11  C   UNL     1       2.279  13.601  18.619  0.00  0.00    +0.000 A 
ATOM     12  C   UNL     1       2.428  12.292  18.131  0.00  0.00    +0.000 A 
ATOM     13  C   UNL     1       1.666  11.229  18.639  0.00  0.00    +0.000 A 
ATOM     14  C   UNL     1       1.778   9.846  18.033  0.00  0.00    +0.000 C 
ATOM     15  N   UNL     1       2.906   7.106  19.891  0.00  0.00    +0.000 NA
ATOM     16  C   UNL     1       3.663   5.993  19.688  0.00  0.00    +0.000 A 
ENDROOT
BRANCH   1  17
ATOM     17  S   UNL     1       4.731   3.864  18.303  0.00  0.00    +0.000 S 
ATOM     18  O   UNL     1       3.965   2.967  17.481  0.00  0.00    +0.000 OA
ATOM     19  O   UNL     1       5.153   3.469  19.636  0.00  0.00    +0.000 OA
BRANCH  17  20
ATOM     20  N   UNL     1       6.175   4.291  17.425  0.00  0.00    +0.000 NA
BRANCH  20  22
ATOM     21  C   UNL     1       5.813   5.193  15.054  0.00  0.00    +0.000 C 
ATOM     22  C   UNL     1       6.024   3.998  15.962  0.00  0.00    +0.000 C 
ENDBRANCH  20  22
BRANCH  20  23
ATOM     23  C   UNL     1       6.644   5.698  17.731  0.00  0.00    +0.000 C 
ATOM     24  C   UNL     1       7.709   5.756  18.813  0.00  0.00    +0.000 C 
ENDBRANCH  20  23
ENDBRANCH  17  20
ENDBRANCH   1  17
BRANCH  10  25
ATOM     25  O   UNL     1       1.000  15.040  20.218  0.00  0.00    +0.000 OA
ATOM     26  C   UNL     1      -0.054  15.820  19.670  0.00  0.00    +0.000 C 
ENDBRANCH  10  25
BRANCH  11  27
ATOM     27  O   UNL     1       3.021  14.652  18.150  0.00  0.00    +0.000 OA
ATOM     28  C   UNL     1       4.438  14.571  18.212  0.00  0.00    +0.000 C 
ENDBRANCH  11  27
TORSDOF 6
ENDMDL
MODEL 9
REMARK VINA RESULT:      -6.4      1.539      2.042
REMARK  Name = 
REMARK  10 active torsions:
REMARK  status: ('A' for Active; 'I' for Inactive)
REMARK    1  A    between atoms: C_1  and  C_2
REMARK    2  A    between atoms: C_2  and  N_3
REMARK    3  A    between atoms: N_3  and  C_4
REMARK    4  A    between atoms: N_3  and  S_6
REMARK    5  A    between atoms: C_4  and  C_5
REMARK    6  A    between atoms: S_6  and  C_9
REMARK    7  A    between atoms: C_18  and  O_19
REMARK    8  A    between atoms: O_19  and  C_20
REMARK    9  A    between atoms: C_21  and  O_22
REMARK   10  A    between atoms: O_22  and  C_23
REMARK                            x       y       z     vdW  Elec       q    Type
REMARK                         _______ _______ _______ _____ _____    ______ ____
ROOT
ATOM      1  C   UNL     1       3.423   5.766  18.748  0.00  0.00    +0.000 A 
ATOM      2  C   UNL     1       3.064   6.345  17.537  0.00  0.00    +0.000 A 
ATOM      3  C   UNL     1       2.322   7.526  17.552  0.00  0.00    +0.000 A 
ATOM      4  C   UNL     1       1.954   8.122  18.759  0.00  0.00    +0.000 A 
ATOM      5  N   UNL     1       1.260   9.330  18.716  0.00  0.00    +0.000 N 
ATOM      6  C   UNL     1       0.344   9.650  19.810  0.00  0.00    +0.000 C 
ATOM      7  C   UNL     1      -0.419  10.954  19.516  0.00  0.00    +0.000 C 
ATOM      8  C   UNL     1       0.570  12.073  19.317  0.00  0.00    +0.000 A 
ATOM      9  C   UNL     1       0.348  13.370  19.790  0.00  0.00    +0.000 A 
ATOM     10  C   UNL     1       1.304  14.385  19.602  0.00  0.00    +0.000 A 
ATOM     11  C   UNL     1       2.499  14.094  18.918  0.00  0.00    +0.000 A 
ATOM     12  C   UNL     1       2.695  12.795  18.421  0.00  0.00    +0.000 A 
ATOM     13  C   UNL     1       1.744  11.783  18.618  0.00  0.00    +0.000 A 
ATOM     14  C   UNL     1       1.935  10.417  17.993  0.00  0.00    +0.000 C 
ATOM     15  N   UNL     1       2.260   7.529  19.940  0.00  0.00    +0.000 NA
ATOM     16  C   UNL     1       2.963   6.365  19.905  0.00  0.00    +0.000 A 
ENDROOT
BRANCH   1  17
ATOM     17  S   UNL     1       4.246   4.202  18.777  0.00  0.00    +0.000 S 
ATOM     18  O   UNL     1       5.278   4.270  19.775  0.00  0.00    +0.000 OA
ATOM     19  O   UNL     1       4.565   3.858  17.402  0.00  0.00    +0.000 OA
BRANCH  17  20
ATOM     20  N   UNL     1       3.053   3.052  19.320  0.00  0.00    +0.000 NA
BRANCH  20  22
ATOM     21  C   UNL     1       2.138   3.310  21.698  0.00  0.00    +0.000 C 
ATOM     22  C   UNL     1       3.211   2.758  20.781  0.00  0.00    +0.000 C 
ENDBRANCH  20  22
BRANCH  20  23
ATOM     23  C   UNL     1       1.648   3.438  18.913  0.00  0.00    +0.000 C 
ATOM     24  C   UNL     1       0.738   2.244  18.676  0.00  0.00    +0.000 C 
ENDBRANCH  20  23
ENDBRANCH  17  20
ENDBRANCH   1  17
BRANCH  10  25
ATOM     25  O   UNL     1       0.904  15.580  20.148  0.00  0.00    +0.000 OA
ATOM     26  C   UNL     1      -0.265  16.207  19.638  0.00  0.00    +0.000 C 
ENDBRANCH  10  25
BRANCH  11  27
ATOM     27  O   UNL     1       3.419  15.095  18.751  0.00  0.00    +0.000 OA
ATOM     28  C   UNL     1       3.584  15.664  17.460  0.00  0.00    +0.000 C 
ENDBRANCH  11  27
TORSDOF 6
ENDMDL
