MODEL 1
REMARK VINA RESULT:      -7.9      0.000      0.000
REMARK  Name = 
REMARK  8 active torsions:
REMARK  status: ('A' for Active; 'I' for Inactive)
REMARK    1  A    between atoms: C_2  and  C_3
REMARK    2  A    between atoms: C_6  and  N_7
REMARK    3  A    between atoms: C_11  and  C_13
REMARK    4  A    between atoms: C_13  and  O_14
REMARK    5  A    between atoms: O_14  and  C_15
REMARK    6  A    between atoms: C_21  and  C_22
REMARK    7  A    between atoms: C_22  and  C_23
REMARK    8  A    between atoms: C_23  and  N_24
REMARK                            x       y       z     vdW  Elec       q    Type
REMARK                         _______ _______ _______ _____ _____    ______ ____
ROOT
ATOM      1  C   UNL     1       2.451   4.850  18.422  0.00  0.00    +0.000 C 
ENDROOT
BRANCH   1   6
ATOM      2  N   UNL     1       1.365   9.733  19.076  0.00  0.00    +0.000 N 
ATOM      3  C   UNL     1       1.663   8.852  17.944  0.00  0.00    +0.000 C 
ATOM      4  C   UNL     1       2.615   7.748  18.417  0.00  0.00    +0.000 C 
ATOM      5  N   UNL     1       2.094   7.033  19.583  0.00  0.00    +0.000 N 
ATOM      6  C   UNL     1       1.978   5.654  19.655  0.00  0.00    +0.000 C 
ATOM      7  O   UNL     1       1.531   5.081  20.643  0.00  0.00    +0.000 OA
ATOM      8  C   UNL     1       1.732   7.909  20.710  0.00  0.00    +0.000 C 
ATOM      9  C   UNL     1       0.799   9.051  20.256  0.00  0.00    +0.000 C 
BRANCH   2  13
ATOM     10  C   UNL     1       1.567  13.922  18.886  0.00  0.00    +0.000 A 
ATOM     11  C   UNL     1       2.320  13.147  18.002  0.00  0.00    +0.000 A 
ATOM     12  C   UNL     1       2.265  11.754  18.070  0.00  0.00    +0.000 A 
ATOM     13  C   UNL     1       1.439  11.103  18.995  0.00  0.00    +0.000 A 
ATOM     14  C   UNL     1       0.695  11.903  19.873  0.00  0.00    +0.000 A 
ATOM     15  C   UNL     1       0.750  13.295  19.827  0.00  0.00    +0.000 A 
BRANCH  10  17
ATOM     16  N   UNL     1       1.641  16.508  18.746  0.00  0.00    +0.000 NA
ATOM     17  C   UNL     1       1.611  15.355  18.807  0.00  0.00    +0.000 C 
ENDBRANCH  10  17
ENDBRANCH   2  13
ENDBRANCH   1   6
BRANCH   1  18
ATOM     18  O   UNL     1       3.692   4.196  18.672  0.00  0.00    +0.000 OA
BRANCH  18  19
ATOM     19  C   UNL     1       4.766   4.625  17.926  0.00  0.00    +0.000 A 
ATOM     20  C   UNL     1       5.861   5.321  18.429  0.00  0.00    +0.000 A 
ATOM     21  C   UNL     1       6.923   5.694  17.598  0.00  0.00    +0.000 A 
ATOM     22  C   UNL     1       6.854   5.336  16.245  0.00  0.00    +0.000 A 
ATOM     23  N   UNL     1       7.761   5.548  15.234  0.00  0.00    +0.000 N 
ATOM     24  C   UNL     1       7.300   5.008  14.066  0.00  0.00    +0.000 A 
ATOM     25  C   UNL     1       6.065   4.428  14.298  0.00  0.00    +0.000 A 
ATOM     26  C   UNL     1       5.776   4.640  15.693  0.00  0.00    +0.000 A 
ATOM     27  C   UNL     1       4.708   4.299  16.558  0.00  0.00    +0.000 A 
ATOM     28  H   UNL     1       8.645   6.027  15.346  0.00  0.00    +0.000 HD
BRANCH  25  29
ATOM     29  C   UNL     1       5.226   3.742  13.253  0.00  0.00    +0.000 C 
BRANCH  29  30
ATOM     30  C   UNL     1       6.046   3.253  12.049  0.00  0.00    +0.000 C 
BRANCH  30  31
ATOM     31  N   UNL     1       5.838   1.835  11.739  0.00  0.00    +0.000 NA
ATOM     32  H   UNL     1       6.728   1.339  11.781  0.00  0.00    +0.000 HD
ATOM     33  H   UNL     1       5.528   1.759  10.770  0.00  0.00    +0.000 HD
ENDBRANCH  30  31
ENDBRANCH  29  30
ENDBRANCH  25  29
ENDBRANCH  18  19
ENDBRANCH   1  18
TORSDOF 8
ENDMDL
MODEL 2
REMARK VINA RESULT:      -7.6      2.080      2.812
REMARK  Name = 
REMARK  8 active torsions:
REMARK  status: ('A' for Active; 'I' for Inactive)
REMARK    1  A    between atoms: C_2  and  C_3
REMARK    2  A    between atoms: C_6  and  N_7
REMARK    3  A    between atoms: C_11  and  C_13
REMARK    4  A    between atoms: C_13  and  O_14
REMARK    5  A    between atoms: O_14  and  C_15
REMARK    6  A    between atoms: C_21  and  C_22
REMARK    7  A    between atoms: C_22  and  C_23
REMARK    8  A    between atoms: C_23  and  N_24
REMARK                            x       y       z     vdW  Elec       q    Type
REMARK                         _______ _______ _______ _____ _____    ______ ____
ROOT
ATOM      1  C   UNL     1       4.809   3.037  18.747  0.00  0.00    +0.000 C 
ENDROOT
BRANCH   1   6
ATOM      2  N   UNL     1       1.840   6.911  20.021  0.00  0.00    +0.000 N 
ATOM      3  C   UNL     1       2.845   6.635  18.992  0.00  0.00    +0.000 C 
ATOM      4  C   UNL     1       3.883   5.663  19.564  0.00  0.00    +0.000 C 
ATOM      5  N   UNL     1       3.264   4.453  20.106  0.00  0.00    +0.000 N 
ATOM      6  C   UNL     1       3.646   3.167  19.757  0.00  0.00    +0.000 C 
ATOM      7  O   UNL     1       3.105   2.169  20.222  0.00  0.00    +0.000 OA
ATOM      8  C   UNL     1       2.208   4.712  21.099  0.00  0.00    +0.000 C 
ATOM      9  C   UNL     1       1.165   5.715  20.560  0.00  0.00    +0.000 C 
BRANCH   2  13
ATOM     10  C   UNL     1       0.595  10.785  21.053  0.00  0.00    +0.000 A 
ATOM     11  C   UNL     1       0.899  10.482  19.725  0.00  0.00    +0.000 A 
ATOM     12  C   UNL     1       1.325   9.198  19.380  0.00  0.00    +0.000 A 
ATOM     13  C   UNL     1       1.428   8.183  20.340  0.00  0.00    +0.000 A 
ATOM     14  C   UNL     1       1.119   8.514  21.666  0.00  0.00    +0.000 A 
ATOM     15  C   UNL     1       0.706   9.795  22.028  0.00  0.00    +0.000 A 
BRANCH  10  17
ATOM     16  N   UNL     1      -0.220  13.159  21.697  0.00  0.00    +0.000 NA
ATOM     17  C   UNL     1       0.142  12.101  21.407  0.00  0.00    +0.000 C 
ENDBRANCH  10  17
ENDBRANCH   2  13
ENDBRANCH   1   6
BRANCH   1  18
ATOM     18  O   UNL     1       4.369   3.283  17.414  0.00  0.00    +0.000 OA
BRANCH  18  19
ATOM     19  C   UNL     1       5.265   3.919  16.586  0.00  0.00    +0.000 A 
ATOM     20  C   UNL     1       6.175   4.892  16.991  0.00  0.00    +0.000 A 
ATOM     21  C   UNL     1       7.070   5.467  16.081  0.00  0.00    +0.000 A 
ATOM     22  C   UNL     1       7.028   5.026  14.752  0.00  0.00    +0.000 A 
ATOM     23  N   UNL     1       7.805   5.396  13.681  0.00  0.00    +0.000 N 
ATOM     24  C   UNL     1       7.438   4.693  12.567  0.00  0.00    +0.000 A 
ATOM     25  C   UNL     1       6.399   3.840  12.899  0.00  0.00    +0.000 A 
ATOM     26  C   UNL     1       6.133   4.054  14.298  0.00  0.00    +0.000 A 
ATOM     27  C   UNL     1       5.226   3.511  15.240  0.00  0.00    +0.000 A 
ATOM     28  H   UNL     1       8.545   6.084  13.717  0.00  0.00    +0.000 HD
BRANCH  25  29
ATOM     29  C   UNL     1       5.710   2.909  11.937  0.00  0.00    +0.000 C 
BRANCH  29  30
ATOM     30  C   UNL     1       6.671   1.910  11.274  0.00  0.00    +0.000 C 
BRANCH  30  31
ATOM     31  N   UNL     1       6.231   0.515  11.386  0.00  0.00    +0.000 NA
ATOM     32  H   UNL     1       6.213   0.238  12.368  0.00  0.00    +0.000 HD
ATOM     33  H   UNL     1       6.933  -0.080  10.947  0.00  0.00    +0.000 HD
ENDBRANCH  30  31
ENDBRANCH  29  30
ENDBRANCH  25  29
ENDBRANCH  18  19
ENDBRANCH   1  18
TORSDOF 8
ENDMDL
MODEL 3
REMARK VINA RESULT:      -7.5      3.306      4.895
REMARK  Name = 
REMARK  8 active torsions:
REMARK  status: ('A' for Active; 'I' for Inactive)
REMARK    1  A    between atoms: C_2  and  C_3
REMARK    2  A    between atoms: C_6  and  N_7
REMARK    3  A    between atoms: C_11  and  C_13
REMARK    4  A    between atoms: C_13  and  O_14
REMARK    5  A    between atoms: O_14  and  C_15
REMARK    6  A    between atoms: C_21  and  C_22
REMARK    7  A    between atoms: C_22  and  C_23
REMARK    8  A    between atoms: C_23  and  N_24
REMARK                            x       y       z     vdW  Elec       q    Type
REMARK                         _______ _______ _______ _____ _____    ______ ____
ROOT
ATOM      1  C   UNL     1       2.542   7.579  19.406  0.00  0.00    +0.000 C 
ENDROOT
BRANCH   1   6
ATOM      2  N   UNL     1      -0.597  11.278  20.790  0.00  0.00    +0.000 N 
ATOM      3  C   UNL     1       0.240  10.285  21.467  0.00  0.00    +0.000 C 
ATOM      4  C   UNL     1       0.324   9.031  20.589  0.00  0.00    +0.000 C 
ATOM      5  N   UNL     1       0.777   9.338  19.232  0.00  0.00    +0.000 N 
ATOM      6  C   UNL     1       1.832   8.694  18.605  0.00  0.00    +0.000 C 
ATOM      7  O   UNL     1       2.195   8.977  17.468  0.00  0.00    +0.000 OA
ATOM      8  C   UNL     1      -0.016  10.379  18.556  0.00  0.00    +0.000 C 
ATOM      9  C   UNL     1      -0.145  11.643  19.433  0.00  0.00    +0.000 C 
BRANCH   2  13
ATOM     10  C   UNL     1      -3.742  13.332  22.664  0.00  0.00    +0.000 A 
ATOM     11  C   UNL     1      -2.842  12.588  23.429  0.00  0.00    +0.000 A 
ATOM     12  C   UNL     1      -1.802  11.894  22.808  0.00  0.00    +0.000 A 
ATOM     13  C   UNL     1      -1.617  11.949  21.421  0.00  0.00    +0.000 A 
ATOM     14  C   UNL     1      -2.535  12.700  20.675  0.00  0.00    +0.000 A 
ATOM     15  C   UNL     1      -3.587  13.387  21.279  0.00  0.00    +0.000 A 
BRANCH  10  17
ATOM     16  N   UNL     1      -5.658  14.639  23.818  0.00  0.00    +0.000 NA
ATOM     17  C   UNL     1      -4.803  14.059  23.302  0.00  0.00    +0.000 C 
ENDBRANCH  10  17
ENDBRANCH   2  13
ENDBRANCH   1   6
BRANCH   1  18
ATOM     18  O   UNL     1       2.136   6.285  18.968  0.00  0.00    +0.000 OA
BRANCH  18  19
ATOM     19  C   UNL     1       3.094   5.533  18.326  0.00  0.00    +0.000 A 
ATOM     20  C   UNL     1       2.843   4.382  17.585  0.00  0.00    +0.000 A 
ATOM     21  C   UNL     1       3.879   3.696  16.943  0.00  0.00    +0.000 A 
ATOM     22  C   UNL     1       5.178   4.210  17.061  0.00  0.00    +0.000 A 
ATOM     23  N   UNL     1       6.353   3.756  16.513  0.00  0.00    +0.000 N 
ATOM     24  C   UNL     1       7.387   4.577  16.868  0.00  0.00    +0.000 A 
ATOM     25  C   UNL     1       6.895   5.595  17.667  0.00  0.00    +0.000 A 
ATOM     26  C   UNL     1       5.480   5.360  17.794  0.00  0.00    +0.000 A 
ATOM     27  C   UNL     1       4.410   6.016  18.450  0.00  0.00    +0.000 A 
ATOM     28  H   UNL     1       6.436   2.936  15.926  0.00  0.00    +0.000 HD
BRANCH  25  29
ATOM     29  C   UNL     1       7.728   6.694  18.272  0.00  0.00    +0.000 C 
BRANCH  29  30
ATOM     30  C   UNL     1       7.535   8.049  17.573  0.00  0.00    +0.000 C 
BRANCH  30  31
ATOM     31  N   UNL     1       8.408   9.105  18.098  0.00  0.00    +0.000 NA
ATOM     32  H   UNL     1       8.752   9.680  17.329  0.00  0.00    +0.000 HD
ATOM     33  H   UNL     1       9.234   8.668  18.504  0.00  0.00    +0.000 HD
ENDBRANCH  30  31
ENDBRANCH  29  30
ENDBRANCH  25  29
ENDBRANCH  18  19
ENDBRANCH   1  18
TORSDOF 8
ENDMDL
MODEL 4
REMARK VINA RESULT:      -7.5      3.065      4.616
REMARK  Name = 
REMARK  8 active torsions:
REMARK  status: ('A' for Active; 'I' for Inactive)
REMARK    1  A    between atoms: C_2  and  C_3
REMARK    2  A    between atoms: C_6  and  N_7
REMARK    3  A    between atoms: C_11  and  C_13
REMARK    4  A    between atoms: C_13  and  O_14
REMARK    5  A    between atoms: O_14  and  C_15
REMARK    6  A    between atoms: C_21  and  C_22
REMARK    7  A    between atoms: C_22  and  C_23
REMARK    8  A    between atoms: C_23  and  N_24
REMARK                            x       y       z     vdW  Elec       q    Type
REMARK                         _______ _______ _______ _____ _____    ______ ____
ROOT
ATOM      1  C   UNL     1       2.392   7.119  19.527  0.00  0.00    +0.000 C 
ENDROOT
BRANCH   1   6
ATOM      2  N   UNL     1       0.243  11.293  21.373  0.00  0.00    +0.000 N 
ATOM      3  C   UNL     1       0.826  10.066  21.920  0.00  0.00    +0.000 C 
ATOM      4  C   UNL     1       0.599   8.925  20.923  0.00  0.00    +0.000 C 
ATOM      5  N   UNL     1       1.096   9.253  19.586  0.00  0.00    +0.000 N 
ATOM      6  C   UNL     1       1.960   8.446  18.863  0.00  0.00    +0.000 C 
ATOM      7  O   UNL     1       2.366   8.750  17.746  0.00  0.00    +0.000 OA
ATOM      8  C   UNL     1       0.565  10.515  19.043  0.00  0.00    +0.000 C 
ATOM      9  C   UNL     1       0.752  11.678  20.042  0.00  0.00    +0.000 C 
BRANCH   2  13
ATOM     10  C   UNL     1      -2.250  13.860  23.568  0.00  0.00    +0.000 A 
ATOM     11  C   UNL     1      -2.536  12.495  23.508  0.00  0.00    +0.000 A 
ATOM     12  C   UNL     1      -1.716  11.641  22.769  0.00  0.00    +0.000 A 
ATOM     13  C   UNL     1      -0.581  12.118  22.102  0.00  0.00    +0.000 A 
ATOM     14  C   UNL     1      -0.317  13.492  22.176  0.00  0.00    +0.000 A 
ATOM     15  C   UNL     1      -1.134  14.360  22.898  0.00  0.00    +0.000 A 
BRANCH  10  17
ATOM     16  N   UNL     1      -3.748  15.448  24.963  0.00  0.00    +0.000 NA
ATOM     17  C   UNL     1      -3.082  14.738  24.341  0.00  0.00    +0.000 C 
ENDBRANCH  10  17
ENDBRANCH   2  13
ENDBRANCH   1   6
BRANCH   1  18
ATOM     18  O   UNL     1       1.880   5.993  18.820  0.00  0.00    +0.000 OA
BRANCH  18  19
ATOM     19  C   UNL     1       2.805   5.229  18.145  0.00  0.00    +0.000 A 
ATOM     20  C   UNL     1       2.536   4.010  17.527  0.00  0.00    +0.000 A 
ATOM     21  C   UNL     1       3.536   3.315  16.838  0.00  0.00    +0.000 A 
ATOM     22  C   UNL     1       4.813   3.888  16.780  0.00  0.00    +0.000 A 
ATOM     23  N   UNL     1       5.949   3.437  16.152  0.00  0.00    +0.000 N 
ATOM     24  C   UNL     1       6.972   4.325  16.332  0.00  0.00    +0.000 A 
ATOM     25  C   UNL     1       6.514   5.386  17.094  0.00  0.00    +0.000 A 
ATOM     26  C   UNL     1       5.131   5.106  17.384  0.00  0.00    +0.000 A 
ATOM     27  C   UNL     1       4.102   5.772  18.093  0.00  0.00    +0.000 A 
ATOM     28  H   UNL     1       6.012   2.574  15.626  0.00  0.00    +0.000 HD
BRANCH  25  29
ATOM     29  C   UNL     1       7.349   6.564  17.520  0.00  0.00    +0.000 C 
BRANCH  29  30
ATOM     30  C   UNL     1       8.046   6.350  18.873  0.00  0.00    +0.000 C 
BRANCH  30  31
ATOM     31  N   UNL     1       7.305   5.462  19.776  0.00  0.00    +0.000 NA
ATOM     32  H   UNL     1       7.598   5.630  20.738  0.00  0.00    +0.000 HD
ATOM     33  H   UNL     1       7.572   4.500  19.572  0.00  0.00    +0.000 HD
ENDBRANCH  30  31
ENDBRANCH  29  30
ENDBRANCH  25  29
ENDBRANCH  18  19
ENDBRANCH   1  18
TORSDOF 8
ENDMDL
MODEL 5
REMARK VINA RESULT:      -7.5      3.966      5.856
REMARK  Name = 
REMARK  8 active torsions:
REMARK  status: ('A' for Active; 'I' for Inactive)
REMARK    1  A    between atoms: C_2  and  C_3
REMARK    2  A    between atoms: C_6  and  N_7
REMARK    3  A    between atoms: C_11  and  C_13
REMARK    4  A    between atoms: C_13  and  O_14
REMARK    5  A    between atoms: O_14  and  C_15
REMARK    6  A    between atoms: C_21  and  C_22
REMARK    7  A    between atoms: C_22  and  C_23
REMARK    8  A    between atoms: C_23  and  N_24
REMARK                            x       y       z     vdW  Elec       q    Type
REMARK                         _______ _______ _______ _____ _____    ______ ____
ROOT
ATOM      1  C   UNL     1       2.016   8.510  18.754  0.00  0.00    +0.000 C 
ENDROOT
BRANCH   1   6
ATOM      2  N   UNL     1      -1.170  11.775  20.906  0.00  0.00    +0.000 N 
ATOM      3  C   UNL     1      -0.607  10.465  21.237  0.00  0.00    +0.000 C 
ATOM      4  C   UNL     1      -0.356   9.694  19.936  0.00  0.00    +0.000 C 
ATOM      5  N   UNL     1       0.466  10.454  18.994  0.00  0.00    +0.000 N 
ATOM      6  C   UNL     1       1.615   9.960  18.397  0.00  0.00    +0.000 C 
ATOM      7  O   UNL     1       2.289  10.623  17.616  0.00  0.00    +0.000 OA
ATOM      8  C   UNL     1      -0.054  11.800  18.696  0.00  0.00    +0.000 C 
ATOM      9  C   UNL     1      -0.347  12.587  19.991  0.00  0.00    +0.000 C 
BRANCH   2  13
ATOM     10  C   UNL     1      -4.546  13.334  22.856  0.00  0.00    +0.000 A 
ATOM     11  C   UNL     1      -4.411  13.479  21.474  0.00  0.00    +0.000 A 
ATOM     12  C   UNL     1      -3.284  12.972  20.825  0.00  0.00    +0.000 A 
ATOM     13  C   UNL     1      -2.285  12.286  21.527  0.00  0.00    +0.000 A 
ATOM     14  C   UNL     1      -2.443  12.157  22.914  0.00  0.00    +0.000 A 
ATOM     15  C   UNL     1      -3.556  12.669  23.579  0.00  0.00    +0.000 A 
BRANCH  10  17
ATOM     16  N   UNL     1      -6.649  14.244  24.065  0.00  0.00    +0.000 NA
ATOM     17  C   UNL     1      -5.711  13.841  23.524  0.00  0.00    +0.000 C 
ENDBRANCH  10  17
ENDBRANCH   2  13
ENDBRANCH   1   6
BRANCH   1  18
ATOM     18  O   UNL     1       2.529   7.818  17.618  0.00  0.00    +0.000 OA
BRANCH  18  19
ATOM     19  C   UNL     1       3.342   6.740  17.880  0.00  0.00    +0.000 A 
ATOM     20  C   UNL     1       4.721   6.715  17.697  0.00  0.00    +0.000 A 
ATOM     21  C   UNL     1       5.472   5.579  18.018  0.00  0.00    +0.000 A 
ATOM     22  C   UNL     1       4.793   4.469  18.538  0.00  0.00    +0.000 A 
ATOM     23  N   UNL     1       5.286   3.257  18.959  0.00  0.00    +0.000 N 
ATOM     24  C   UNL     1       4.269   2.470  19.421  0.00  0.00    +0.000 A 
ATOM     25  C   UNL     1       3.078   3.165  19.307  0.00  0.00    +0.000 A 
ATOM     26  C   UNL     1       3.411   4.445  18.739  0.00  0.00    +0.000 A 
ATOM     27  C   UNL     1       2.679   5.604  18.382  0.00  0.00    +0.000 A 
ATOM     28  H   UNL     1       6.263   2.994  18.935  0.00  0.00    +0.000 HD
BRANCH  25  29
ATOM     29  C   UNL     1       1.727   2.627  19.699  0.00  0.00    +0.000 C 
BRANCH  29  30
ATOM     30  C   UNL     1       1.192   3.236  21.005  0.00  0.00    +0.000 C 
BRANCH  30  31
ATOM     31  N   UNL     1       2.041   2.957  22.168  0.00  0.00    +0.000 NA
ATOM     32  H   UNL     1       1.951   1.976  22.432  0.00  0.00    +0.000 HD
ATOM     33  H   UNL     1       1.683   3.488  22.962  0.00  0.00    +0.000 HD
ENDBRANCH  30  31
ENDBRANCH  29  30
ENDBRANCH  25  29
ENDBRANCH  18  19
ENDBRANCH   1  18
TORSDOF 8
ENDMDL
MODEL 6
REMARK VINA RESULT:      -7.5      4.638     10.532
REMARK  Name = 
REMARK  8 active torsions:
REMARK  status: ('A' for Active; 'I' for Inactive)
REMARK    1  A    between atoms: C_2  and  C_3
REMARK    2  A    between atoms: C_6  and  N_7
REMARK    3  A    between atoms: C_11  and  C_13
REMARK    4  A    between atoms: C_13  and  O_14
REMARK    5  A    between atoms: O_14  and  C_15
REMARK    6  A    between atoms: C_21  and  C_22
REMARK    7  A    between atoms: C_22  and  C_23
REMARK    8  A    between atoms: C_23  and  N_24
REMARK                            x       y       z     vdW  Elec       q    Type
REMARK                         _______ _______ _______ _____ _____    ______ ____
ROOT
ATOM      1  C   UNL     1      -0.971  12.690  20.801  0.00  0.00    +0.000 C 
ENDROOT
BRANCH   1   6
ATOM      2  N   UNL     1       1.533   8.339  20.304  0.00  0.00    +0.000 N 
ATOM      3  C   UNL     1       1.242   9.500  19.460  0.00  0.00    +0.000 C 
ATOM      4  C   UNL     1      -0.119  10.076  19.869  0.00  0.00    +0.000 C 
ATOM      5  N   UNL     1      -0.184  10.372  21.301  0.00  0.00    +0.000 N 
ATOM      6  C   UNL     1      -0.573  11.598  21.820  0.00  0.00    +0.000 C 
ATOM      7  O   UNL     1      -0.612  11.820  23.026  0.00  0.00    +0.000 OA
ATOM      8  C   UNL     1       0.165   9.232  22.165  0.00  0.00    +0.000 C 
ATOM      9  C   UNL     1       1.517   8.611  21.754  0.00  0.00    +0.000 C 
BRANCH   2  13
ATOM     10  C   UNL     1       2.801   4.634  18.792  0.00  0.00    +0.000 A 
ATOM     11  C   UNL     1       2.956   5.789  18.024  0.00  0.00    +0.000 A 
ATOM     12  C   UNL     1       2.524   7.021  18.519  0.00  0.00    +0.000 A 
ATOM     13  C   UNL     1       1.960   7.136  19.795  0.00  0.00    +0.000 A 
ATOM     14  C   UNL     1       1.813   5.960  20.545  0.00  0.00    +0.000 A 
ATOM     15  C   UNL     1       2.226   4.721  20.059  0.00  0.00    +0.000 A 
BRANCH  10  17
ATOM     16  N   UNL     1       3.624   2.348  17.893  0.00  0.00    +0.000 NA
ATOM     17  C   UNL     1       3.258   3.368  18.291  0.00  0.00    +0.000 C 
ENDBRANCH  10  17
ENDBRANCH   2  13
ENDBRANCH   1   6
BRANCH   1  18
ATOM     18  O   UNL     1      -2.046  13.488  21.288  0.00  0.00    +0.000 OA
BRANCH  18  19
ATOM     19  C   UNL     1      -3.315  13.034  21.009  0.00  0.00    +0.000 A 
ATOM     20  C   UNL     1      -4.372  13.009  21.914  0.00  0.00    +0.000 A 
ATOM     21  C   UNL     1      -5.639  12.554  21.532  0.00  0.00    +0.000 A 
ATOM     22  C   UNL     1      -5.813  12.133  20.207  0.00  0.00    +0.000 A 
ATOM     23  N   UNL     1      -6.943  11.677  19.573  0.00  0.00    +0.000 N 
ATOM     24  C   UNL     1      -6.669  11.398  18.263  0.00  0.00    +0.000 A 
ATOM     25  C   UNL     1      -5.334  11.669  18.018  0.00  0.00    +0.000 A 
ATOM     26  C   UNL     1      -4.783  12.138  19.263  0.00  0.00    +0.000 A 
ATOM     27  C   UNL     1      -3.508  12.583  19.690  0.00  0.00    +0.000 A 
ATOM     28  H   UNL     1      -7.848  11.573  20.014  0.00  0.00    +0.000 HD
BRANCH  25  29
ATOM     29  C   UNL     1      -4.645  11.474  16.693  0.00  0.00    +0.000 C 
BRANCH  29  30
ATOM     30  C   UNL     1      -3.367  10.627  16.799  0.00  0.00    +0.000 C 
BRANCH  30  31
ATOM     31  N   UNL     1      -2.149  11.362  16.442  0.00  0.00    +0.000 NA
ATOM     32  H   UNL     1      -1.678  11.678  17.290  0.00  0.00    +0.000 HD
ATOM     33  H   UNL     1      -2.419  12.211  15.946  0.00  0.00    +0.000 HD
ENDBRANCH  30  31
ENDBRANCH  29  30
ENDBRANCH  25  29
ENDBRANCH  18  19
ENDBRANCH   1  18
TORSDOF 8
ENDMDL
MODEL 7
REMARK VINA RESULT:      -7.4      3.434      5.367
REMARK  Name = 
REMARK  8 active torsions:
REMARK  status: ('A' for Active; 'I' for Inactive)
REMARK    1  A    between atoms: C_2  and  C_3
REMARK    2  A    between atoms: C_6  and  N_7
REMARK    3  A    between atoms: C_11  and  C_13
REMARK    4  A    between atoms: C_13  and  O_14
REMARK    5  A    between atoms: O_14  and  C_15
REMARK    6  A    between atoms: C_21  and  C_22
REMARK    7  A    between atoms: C_22  and  C_23
REMARK    8  A    between atoms: C_23  and  N_24
REMARK                            x       y       z     vdW  Elec       q    Type
REMARK                         _______ _______ _______ _____ _____    ______ ____
ROOT
ATOM      1  C   UNL     1       2.387   7.670  18.792  0.00  0.00    +0.000 C 
ENDROOT
BRANCH   1   6
ATOM      2  N   UNL     1       0.312  11.671  21.057  0.00  0.00    +0.000 N 
ATOM      3  C   UNL     1       0.961  10.428  21.480  0.00  0.00    +0.000 C 
ATOM      4  C   UNL     1       0.676   9.344  20.434  0.00  0.00    +0.000 C 
ATOM      5  N   UNL     1       1.059   9.765  19.086  0.00  0.00    +0.000 N 
ATOM      6  C   UNL     1       1.877   9.024  18.248  0.00  0.00    +0.000 C 
ATOM      7  O   UNL     1       2.187   9.405  17.124  0.00  0.00    +0.000 OA
ATOM      8  C   UNL     1       0.462  11.044  18.666  0.00  0.00    +0.000 C 
ATOM      9  C   UNL     1       0.706  12.148  19.717  0.00  0.00    +0.000 C 
BRANCH   2  13
ATOM     10  C   UNL     1      -2.089  13.939  23.649  0.00  0.00    +0.000 A 
ATOM     11  C   UNL     1      -0.966  14.517  23.055  0.00  0.00    +0.000 A 
ATOM     12  C   UNL     1      -0.159  13.762  22.202  0.00  0.00    +0.000 A 
ATOM     13  C   UNL     1      -0.466  12.430  21.898  0.00  0.00    +0.000 A 
ATOM     14  C   UNL     1      -1.597  11.872  22.510  0.00  0.00    +0.000 A 
ATOM     15  C   UNL     1      -2.405  12.608  23.375  0.00  0.00    +0.000 A 
BRANCH  10  17
ATOM     16  N   UNL     1      -3.608  15.344  25.207  0.00  0.00    +0.000 NA
ATOM     17  C   UNL     1      -2.929  14.717  24.515  0.00  0.00    +0.000 C 
ENDBRANCH  10  17
ENDBRANCH   2  13
ENDBRANCH   1   6
BRANCH   1  18
ATOM     18  O   UNL     1       3.614   7.290  18.175  0.00  0.00    +0.000 OA
BRANCH  18  19
ATOM     19  C   UNL     1       3.789   5.944  17.950  0.00  0.00    +0.000 A 
ATOM     20  C   UNL     1       4.339   5.391  16.796  0.00  0.00    +0.000 A 
ATOM     21  C   UNL     1       4.504   4.008  16.666  0.00  0.00    +0.000 A 
ATOM     22  C   UNL     1       4.107   3.196  17.737  0.00  0.00    +0.000 A 
ATOM     23  N   UNL     1       4.187   1.832  17.880  0.00  0.00    +0.000 N 
ATOM     24  C   UNL     1       3.705   1.457  19.103  0.00  0.00    +0.000 A 
ATOM     25  C   UNL     1       3.295   2.588  19.788  0.00  0.00    +0.000 A 
ATOM     26  C   UNL     1       3.550   3.703  18.913  0.00  0.00    +0.000 A 
ATOM     27  C   UNL     1       3.375   5.106  19.002  0.00  0.00    +0.000 A 
ATOM     28  H   UNL     1       4.557   1.201  17.181  0.00  0.00    +0.000 HD
BRANCH  25  29
ATOM     29  C   UNL     1       2.691   2.587  21.167  0.00  0.00    +0.000 C 
BRANCH  29  30
ATOM     30  C   UNL     1       1.297   3.232  21.214  0.00  0.00    +0.000 C 
BRANCH  30  31
ATOM     31  N   UNL     1       0.468   2.915  20.046  0.00  0.00    +0.000 NA
ATOM     32  H   UNL     1       0.929   3.244  19.198  0.00  0.00    +0.000 HD
ATOM     33  H   UNL     1      -0.398   3.450  20.111  0.00  0.00    +0.000 HD
ENDBRANCH  30  31
ENDBRANCH  29  30
ENDBRANCH  25  29
ENDBRANCH  18  19
ENDBRANCH   1  18
TORSDOF 8
ENDMDL
MODEL 8
REMARK VINA RESULT:      -7.4      0.988      1.124
REMARK  Name = 
REMARK  8 active torsions:
REMARK  status: ('A' for Active; 'I' for Inactive)
REMARK    1  A    between atoms: C_2  and  C_3
REMARK    2  A    between atoms: C_6  and  N_7
REMARK    3  A    between atoms: C_11  and  C_13
REMARK    4  A    between atoms: C_13  and  O_14
REMARK    5  A    between atoms: O_14  and  C_15
REMARK    6  A    between atoms: C_21  and  C_22
REMARK    7  A    between atoms: C_22  and  C_23
REMARK    8  A    between atoms: C_23  and  N_24
REMARK                            x       y       z     vdW  Elec       q    Type
REMARK                         _______ _______ _______ _____ _____    ______ ____
ROOT
ATOM      1  C   UNL     1       2.763   5.426  18.612  0.00  0.00    +0.000 C 
ENDROOT
BRANCH   1   6
ATOM      2  N   UNL     1       0.769  10.011  19.280  0.00  0.00    +0.000 N 
ATOM      3  C   UNL     1       1.180   9.186  18.142  0.00  0.00    +0.000 C 
ATOM      4  C   UNL     1       2.353   8.299  18.575  0.00  0.00    +0.000 C 
ATOM      5  N   UNL     1       2.040   7.516  19.772  0.00  0.00    +0.000 N 
ATOM      6  C   UNL     1       2.202   6.143  19.861  0.00  0.00    +0.000 C 
ATOM      7  O   UNL     1       1.925   5.511  20.876  0.00  0.00    +0.000 OA
ATOM      8  C   UNL     1       1.568   8.324  20.909  0.00  0.00    +0.000 C 
ATOM      9  C   UNL     1       0.406   9.252  20.493  0.00  0.00    +0.000 C 
BRANCH   2  13
ATOM     10  C   UNL     1       0.095  14.142  18.967  0.00  0.00    +0.000 A 
ATOM     11  C   UNL     1       1.125  13.664  19.779  0.00  0.00    +0.000 A 
ATOM     12  C   UNL     1       1.344  12.291  19.895  0.00  0.00    +0.000 A 
ATOM     13  C   UNL     1       0.567  11.367  19.185  0.00  0.00    +0.000 A 
ATOM     14  C   UNL     1      -0.462  11.872  18.378  0.00  0.00    +0.000 A 
ATOM     15  C   UNL     1      -0.702  13.241  18.262  0.00  0.00    +0.000 A 
BRANCH  10  17
ATOM     16  N   UNL     1      -0.302  16.691  18.725  0.00  0.00    +0.000 NA
ATOM     17  C   UNL     1      -0.122  15.555  18.834  0.00  0.00    +0.000 C 
ENDBRANCH  10  17
ENDBRANCH   2  13
ENDBRANCH   1   6
BRANCH   1  18
ATOM     18  O   UNL     1       4.038   4.845  18.875  0.00  0.00    +0.000 OA
BRANCH  18  19
ATOM     19  C   UNL     1       5.025   5.103  17.952  0.00  0.00    +0.000 A 
ATOM     20  C   UNL     1       6.195   5.812  18.209  0.00  0.00    +0.000 A 
ATOM     21  C   UNL     1       7.158   6.002  17.212  0.00  0.00    +0.000 A 
ATOM     22  C   UNL     1       6.912   5.450  15.948  0.00  0.00    +0.000 A 
ATOM     23  N   UNL     1       7.695   5.462  14.819  0.00  0.00    +0.000 N 
ATOM     24  C   UNL     1       7.077   4.776  13.810  0.00  0.00    +0.000 A 
ATOM     25  C   UNL     1       5.863   4.300  14.272  0.00  0.00    +0.000 A 
ATOM     26  C   UNL     1       5.754   4.733  15.641  0.00  0.00    +0.000 A 
ATOM     27  C   UNL     1       4.790   4.579  16.667  0.00  0.00    +0.000 A 
ATOM     28  H   UNL     1       8.600   5.908  14.751  0.00  0.00    +0.000 HD
BRANCH  25  29
ATOM     29  C   UNL     1       4.881   3.507  13.451  0.00  0.00    +0.000 C 
BRANCH  29  30
ATOM     30  C   UNL     1       5.382   3.218  12.027  0.00  0.00    +0.000 C 
BRANCH  30  31
ATOM     31  N   UNL     1       4.303   3.105  11.040  0.00  0.00    +0.000 NA
ATOM     32  H   UNL     1       3.426   2.886  11.513  0.00  0.00    +0.000 HD
ATOM     33  H   UNL     1       4.498   2.303  10.441  0.00  0.00    +0.000 HD
ENDBRANCH  30  31
ENDBRANCH  29  30
ENDBRANCH  25  29
ENDBRANCH  18  19
ENDBRANCH   1  18
TORSDOF 8
ENDMDL
MODEL 9
REMARK VINA RESULT:      -7.2      3.511      5.521
REMARK  Name = 
REMARK  8 active torsions:
REMARK  status: ('A' for Active; 'I' for Inactive)
REMARK    1  A    between atoms: C_2  and  C_3
REMARK    2  A    between atoms: C_6  and  N_7
REMARK    3  A    between atoms: C_11  and  C_13
REMARK    4  A    between atoms: C_13  and  O_14
REMARK    5  A    between atoms: O_14  and  C_15
REMARK    6  A    between atoms: C_21  and  C_22
REMARK    7  A    between atoms: C_22  and  C_23
REMARK    8  A    between atoms: C_23  and  N_24
REMARK                            x       y       z     vdW  Elec       q    Type
REMARK                         _______ _______ _______ _____ _____    ______ ____
ROOT
ATOM      1  C   UNL     1       1.976   8.335  18.349  0.00  0.00    +0.000 C 
ENDROOT
BRANCH   1   6
ATOM      2  N   UNL     1       0.313  12.132  21.222  0.00  0.00    +0.000 N 
ATOM      3  C   UNL     1       0.501  10.688  21.374  0.00  0.00    +0.000 C 
ATOM      4  C   UNL     1       0.294  10.019  20.010  0.00  0.00    +0.000 C 
ATOM      5  N   UNL     1       1.145  10.606  18.974  0.00  0.00    +0.000 N 
ATOM      6  C   UNL     1       1.979   9.868  18.149  0.00  0.00    +0.000 C 
ATOM      7  O   UNL     1       2.687  10.387  17.293  0.00  0.00    +0.000 OA
ATOM      8  C   UNL     1       1.014  12.067  18.848  0.00  0.00    +0.000 C 
ATOM      9  C   UNL     1       1.185  12.765  20.214  0.00  0.00    +0.000 C 
BRANCH   2  13
ATOM     10  C   UNL     1      -2.086  14.450  23.771  0.00  0.00    +0.000 A 
ATOM     11  C   UNL     1      -2.409  13.113  23.536  0.00  0.00    +0.000 A 
ATOM     12  C   UNL     1      -1.621  12.343  22.679  0.00  0.00    +0.000 A 
ATOM     13  C   UNL     1      -0.480  12.875  22.065  0.00  0.00    +0.000 A 
ATOM     14  C   UNL     1      -0.179  14.220  22.315  0.00  0.00    +0.000 A 
ATOM     15  C   UNL     1      -0.965  15.006  23.157  0.00  0.00    +0.000 A 
BRANCH  10  17
ATOM     16  N   UNL     1      -3.531  15.871  25.386  0.00  0.00    +0.000 NA
ATOM     17  C   UNL     1      -2.887  15.239  24.664  0.00  0.00    +0.000 C 
ENDBRANCH  10  17
ENDBRANCH   2  13
ENDBRANCH   1   6
BRANCH   1  18
ATOM     18  O   UNL     1       2.708   7.675  17.320  0.00  0.00    +0.000 OA
BRANCH  18  19
ATOM     19  C   UNL     1       3.491   6.615  17.716  0.00  0.00    +0.000 A 
ATOM     20  C   UNL     1       4.880   6.577  17.647  0.00  0.00    +0.000 A 
ATOM     21  C   UNL     1       5.596   5.463  18.100  0.00  0.00    +0.000 A 
ATOM     22  C   UNL     1       4.870   4.390  18.633  0.00  0.00    +0.000 A 
ATOM     23  N   UNL     1       5.321   3.207  19.169  0.00  0.00    +0.000 N 
ATOM     24  C   UNL     1       4.265   2.452  19.597  0.00  0.00    +0.000 A 
ATOM     25  C   UNL     1       3.091   3.139  19.342  0.00  0.00    +0.000 A 
ATOM     26  C   UNL     1       3.477   4.380  18.722  0.00  0.00    +0.000 A 
ATOM     27  C   UNL     1       2.783   5.514  18.233  0.00  0.00    +0.000 A 
ATOM     28  H   UNL     1       6.295   2.942  19.242  0.00  0.00    +0.000 HD
BRANCH  25  29
ATOM     29  C   UNL     1       1.709   2.628  19.657  0.00  0.00    +0.000 C 
BRANCH  29  30
ATOM     30  C   UNL     1       1.142   3.196  20.967  0.00  0.00    +0.000 C 
BRANCH  30  31
ATOM     31  N   UNL     1       1.664   2.531  22.166  0.00  0.00    +0.000 NA
ATOM     32  H   UNL     1       2.470   3.046  22.521  0.00  0.00    +0.000 HD
ATOM     33  H   UNL     1       2.021   1.615  21.896  0.00  0.00    +0.000 HD
ENDBRANCH  30  31
ENDBRANCH  29  30
ENDBRANCH  25  29
ENDBRANCH  18  19
ENDBRANCH   1  18
TORSDOF 8
ENDMDL
