MODEL 1
REMARK VINA RESULT:      -8.7      0.000      0.000
REMARK  Name = 
REMARK  8 active torsions:
REMARK  status: ('A' for Active; 'I' for Inactive)
REMARK    1  A    between atoms: C_2  and  C_15
REMARK    2  A    between atoms: N_3  and  C_4
REMARK    3  A    between atoms: C_4  and  C_5
REMARK    4  A    between atoms: C_10  and  C_11
REMARK    5  A    between atoms: N_20  and  C_21
REMARK    6  A    between atoms: C_21  and  C_22
REMARK    7  A    between atoms: C_22  and  C_23
REMARK    8  A    between atoms: C_23  and  C_24
REMARK                            x       y       z     vdW  Elec       q    Type
REMARK                         _______ _______ _______ _____ _____    ______ ____
ROOT
ATOM      1  C   UNL     1       1.787   5.219  19.397  0.00  0.00    +0.000 C 
ATOM      2  C   UNL     1       1.391   4.208  20.468  0.00  0.00    +0.000 C 
ATOM      3  C   UNL     1       2.552   3.315  20.851  0.00  0.00    +0.000 C 
ATOM      4  C   UNL     1       3.420   2.834  19.708  0.00  0.00    +0.000 C 
ATOM      5  O   UNL     1       4.289   1.993  19.936  0.00  0.00    +0.000 OA
ATOM      6  N   UNL     1       3.214   3.385  18.455  0.00  0.00    +0.000 N 
ATOM      7  C   UNL     1       2.224   4.421  18.173  0.00  0.00    +0.000 C 
ENDROOT
BRANCH   1   9
ATOM      8  O   UNL     1       4.062   6.054  19.610  0.00  0.00    +0.000 OA
ATOM      9  C   UNL     1       2.864   6.230  19.815  0.00  0.00    +0.000 C 
ATOM     10  N   UNL     1       2.477   7.401  20.402  0.00  0.00    +0.000 N 
ATOM     11  H   UNL     1       3.259   7.978  20.697  0.00  0.00    +0.000 HD
BRANCH  10  12
ATOM     12  C   UNL     1       1.155   7.751  20.848  0.00  0.00    +0.000 C 
BRANCH  12  13
ATOM     13  C   UNL     1       0.774   9.157  20.487  0.00  0.00    +0.000 A 
ATOM     14  C   UNL     1       1.116   9.610  19.199  0.00  0.00    +0.000 A 
ATOM     15  C   UNL     1       0.904  10.935  18.826  0.00  0.00    +0.000 A 
ATOM     16  C   UNL     1       0.341  11.824  19.732  0.00  0.00    +0.000 A 
ATOM     17  C   UNL     1      -0.048  11.379  20.995  0.00  0.00    +0.000 A 
ATOM     18  C   UNL     1       0.141  10.039  21.390  0.00  0.00    +0.000 A 
BRANCH  18  19
ATOM     19  C   UNL     1      -0.336   9.659  22.779  0.00  0.00    +0.000 C 
ATOM     20  F   UNL     1      -1.067   8.514  22.858  0.00  0.00    +0.000 F 
ATOM     21  F   UNL     1       0.705   9.480  23.642  0.00  0.00    +0.000 F 
ATOM     22  F   UNL     1      -1.116  10.626  23.339  0.00  0.00    +0.000 F 
ENDBRANCH  18  19
ENDBRANCH  12  13
ENDBRANCH  10  12
ENDBRANCH   1   9
BRANCH   6  23
ATOM     23  C   UNL     1       4.033   2.932  17.338  0.00  0.00    +0.000 C 
BRANCH  23  24
ATOM     24  C   UNL     1       4.498   4.044  16.398  0.00  0.00    +0.000 C 
BRANCH  24  25
ATOM     25  C   UNL     1       5.992   3.996  16.074  0.00  0.00    +0.000 C 
BRANCH  25  26
ATOM     26  C   UNL     1       6.731   5.012  16.911  0.00  0.00    +0.000 A 
ATOM     27  C   UNL     1       7.345   4.628  18.111  0.00  0.00    +0.000 A 
ATOM     28  C   UNL     1       7.948   5.582  18.932  0.00  0.00    +0.000 A 
ATOM     29  C   UNL     1       7.938   6.925  18.563  0.00  0.00    +0.000 A 
ATOM     30  C   UNL     1       7.332   7.317  17.370  0.00  0.00    +0.000 A 
ATOM     31  C   UNL     1       6.732   6.364  16.546  0.00  0.00    +0.000 A 
ENDBRANCH  25  26
ENDBRANCH  24  25
ENDBRANCH  23  24
ENDBRANCH   6  23
TORSDOF 8
ENDMDL
MODEL 2
REMARK VINA RESULT:      -8.5      2.611      3.567
REMARK  Name = 
REMARK  8 active torsions:
REMARK  status: ('A' for Active; 'I' for Inactive)
REMARK    1  A    between atoms: C_2  and  C_15
REMARK    2  A    between atoms: N_3  and  C_4
REMARK    3  A    between atoms: C_4  and  C_5
REMARK    4  A    between atoms: C_10  and  C_11
REMARK    5  A    between atoms: N_20  and  C_21
REMARK    6  A    between atoms: C_21  and  C_22
REMARK    7  A    between atoms: C_22  and  C_23
REMARK    8  A    between atoms: C_23  and  C_24
REMARK                            x       y       z     vdW  Elec       q    Type
REMARK                         _______ _______ _______ _____ _____    ______ ____
ROOT
ATOM      1  C   UNL     1       1.341   4.369  19.276  0.00  0.00    +0.000 C 
ATOM      2  C   UNL     1       0.750   2.964  19.237  0.00  0.00    +0.000 C 
ATOM      3  C   UNL     1       1.797   1.907  19.517  0.00  0.00    +0.000 C 
ATOM      4  C   UNL     1       3.147   2.128  18.866  0.00  0.00    +0.000 C 
ATOM      5  O   UNL     1       3.992   1.236  18.937  0.00  0.00    +0.000 OA
ATOM      6  N   UNL     1       3.379   3.340  18.241  0.00  0.00    +0.000 N 
ATOM      7  C   UNL     1       2.410   4.431  18.190  0.00  0.00    +0.000 C 
ENDROOT
BRANCH   1   9
ATOM      8  O   UNL     1       2.025   4.040  21.587  0.00  0.00    +0.000 OA
ATOM      9  C   UNL     1       1.904   4.807  20.636  0.00  0.00    +0.000 C 
ATOM     10  N   UNL     1       2.331   6.095  20.789  0.00  0.00    +0.000 N 
ATOM     11  H   UNL     1       2.630   6.308  21.736  0.00  0.00    +0.000 HD
BRANCH  10  12
ATOM     12  C   UNL     1       2.163   7.180  19.859  0.00  0.00    +0.000 C 
BRANCH  12  13
ATOM     13  C   UNL     1       1.444   8.352  20.460  0.00  0.00    +0.000 A 
ATOM     14  C   UNL     1       1.235   8.341  21.852  0.00  0.00    +0.000 A 
ATOM     15  C   UNL     1       0.476   9.330  22.470  0.00  0.00    +0.000 A 
ATOM     16  C   UNL     1      -0.080  10.349  21.709  0.00  0.00    +0.000 A 
ATOM     17  C   UNL     1       0.158  10.402  20.335  0.00  0.00    +0.000 A 
ATOM     18  C   UNL     1       0.937   9.421  19.689  0.00  0.00    +0.000 A 
BRANCH  18  19
ATOM     19  C   UNL     1       1.147   9.586  18.196  0.00  0.00    +0.000 C 
ATOM     20  F   UNL     1       1.839   8.587  17.584  0.00  0.00    +0.000 F 
ATOM     21  F   UNL     1      -0.036   9.667  17.522  0.00  0.00    +0.000 F 
ATOM     22  F   UNL     1       1.821  10.732  17.893  0.00  0.00    +0.000 F 
ENDBRANCH  18  19
ENDBRANCH  12  13
ENDBRANCH  10  12
ENDBRANCH   1   9
BRANCH   6  23
ATOM     23  C   UNL     1       4.669   3.571  17.601  0.00  0.00    +0.000 C 
BRANCH  23  24
ATOM     24  C   UNL     1       4.589   4.265  16.241  0.00  0.00    +0.000 C 
BRANCH  24  25
ATOM     25  C   UNL     1       5.864   5.015  15.854  0.00  0.00    +0.000 C 
BRANCH  25  26
ATOM     26  C   UNL     1       6.233   4.697  14.425  0.00  0.00    +0.000 A 
ATOM     27  C   UNL     1       5.495   3.754  13.698  0.00  0.00    +0.000 A 
ATOM     28  C   UNL     1       5.891   3.389  12.410  0.00  0.00    +0.000 A 
ATOM     29  C   UNL     1       7.027   3.962  11.841  0.00  0.00    +0.000 A 
ATOM     30  C   UNL     1       7.766   4.904  12.556  0.00  0.00    +0.000 A 
ATOM     31  C   UNL     1       7.370   5.272  13.843  0.00  0.00    +0.000 A 
ENDBRANCH  25  26
ENDBRANCH  24  25
ENDBRANCH  23  24
ENDBRANCH   6  23
TORSDOF 8
ENDMDL
MODEL 3
REMARK VINA RESULT:      -8.5      2.049      2.508
REMARK  Name = 
REMARK  8 active torsions:
REMARK  status: ('A' for Active; 'I' for Inactive)
REMARK    1  A    between atoms: C_2  and  C_15
REMARK    2  A    between atoms: N_3  and  C_4
REMARK    3  A    between atoms: C_4  and  C_5
REMARK    4  A    between atoms: C_10  and  C_11
REMARK    5  A    between atoms: N_20  and  C_21
REMARK    6  A    between atoms: C_21  and  C_22
REMARK    7  A    between atoms: C_22  and  C_23
REMARK    8  A    between atoms: C_23  and  C_24
REMARK                            x       y       z     vdW  Elec       q    Type
REMARK                         _______ _______ _______ _____ _____    ______ ____
ROOT
ATOM      1  C   UNL     1       1.383   4.654  19.192  0.00  0.00    +0.000 C 
ATOM      2  C   UNL     1       0.732   3.308  19.492  0.00  0.00    +0.000 C 
ATOM      3  C   UNL     1       1.760   2.204  19.616  0.00  0.00    +0.000 C 
ATOM      4  C   UNL     1       2.888   2.237  18.607  0.00  0.00    +0.000 C 
ATOM      5  O   UNL     1       3.673   1.289  18.564  0.00  0.00    +0.000 OA
ATOM      6  N   UNL     1       3.002   3.350  17.791  0.00  0.00    +0.000 N 
ATOM      7  C   UNL     1       2.114   4.507  17.861  0.00  0.00    +0.000 C 
ENDROOT
BRANCH   1   9
ATOM      8  O   UNL     1       2.861   4.464  21.114  0.00  0.00    +0.000 OA
ATOM      9  C   UNL     1       2.319   5.189  20.285  0.00  0.00    +0.000 C 
ATOM     10  N   UNL     1       2.602   6.525  20.316  0.00  0.00    +0.000 N 
ATOM     11  H   UNL     1       3.180   6.794  21.106  0.00  0.00    +0.000 HD
BRANCH  10  12
ATOM     12  C   UNL     1       1.983   7.560  19.531  0.00  0.00    +0.000 C 
BRANCH  12  13
ATOM     13  C   UNL     1       1.289   8.590  20.374  0.00  0.00    +0.000 A 
ATOM     14  C   UNL     1       1.233   8.360  21.762  0.00  0.00    +0.000 A 
ATOM     15  C   UNL     1       0.509   9.205  22.598  0.00  0.00    +0.000 A 
ATOM     16  C   UNL     1      -0.164  10.295  22.062  0.00  0.00    +0.000 A 
ATOM     17  C   UNL     1      -0.078  10.564  20.696  0.00  0.00    +0.000 A 
ATOM     18  C   UNL     1       0.662   9.733  19.831  0.00  0.00    +0.000 A 
BRANCH  18  19
ATOM     19  C   UNL     1       0.703  10.129  18.368  0.00  0.00    +0.000 C 
ATOM     20  F   UNL     1       0.114   9.257  17.505  0.00  0.00    +0.000 F 
ATOM     21  F   UNL     1       0.085  11.324  18.148  0.00  0.00    +0.000 F 
ATOM     22  F   UNL     1       1.978  10.284  17.911  0.00  0.00    +0.000 F 
ENDBRANCH  18  19
ENDBRANCH  12  13
ENDBRANCH  10  12
ENDBRANCH   1   9
BRANCH   6  23
ATOM     23  C   UNL     1       4.077   3.399  16.807  0.00  0.00    +0.000 C 
BRANCH  23  24
ATOM     24  C   UNL     1       4.620   4.801  16.530  0.00  0.00    +0.000 C 
BRANCH  24  25
ATOM     25  C   UNL     1       6.077   4.818  16.064  0.00  0.00    +0.000 C 
BRANCH  25  26
ATOM     26  C   UNL     1       6.906   5.662  17.002  0.00  0.00    +0.000 A 
ATOM     27  C   UNL     1       7.405   5.115  18.192  0.00  0.00    +0.000 A 
ATOM     28  C   UNL     1       8.091   5.918  19.105  0.00  0.00    +0.000 A 
ATOM     29  C   UNL     1       8.280   7.272  18.837  0.00  0.00    +0.000 A 
ATOM     30  C   UNL     1       7.790   7.825  17.654  0.00  0.00    +0.000 A 
ATOM     31  C   UNL     1       7.107   7.023  16.739  0.00  0.00    +0.000 A 
ENDBRANCH  25  26
ENDBRANCH  24  25
ENDBRANCH  23  24
ENDBRANCH   6  23
TORSDOF 8
ENDMDL
MODEL 4
REMARK VINA RESULT:      -8.5      0.529      1.219
REMARK  Name = 
REMARK  8 active torsions:
REMARK  status: ('A' for Active; 'I' for Inactive)
REMARK    1  A    between atoms: C_2  and  C_15
REMARK    2  A    between atoms: N_3  and  C_4
REMARK    3  A    between atoms: C_4  and  C_5
REMARK    4  A    between atoms: C_10  and  C_11
REMARK    5  A    between atoms: N_20  and  C_21
REMARK    6  A    between atoms: C_21  and  C_22
REMARK    7  A    between atoms: C_22  and  C_23
REMARK    8  A    between atoms: C_23  and  C_24
REMARK                            x       y       z     vdW  Elec       q    Type
REMARK                         _______ _______ _______ _____ _____    ______ ____
ROOT
ATOM      1  C   UNL     1       1.511   5.050  19.667  0.00  0.00    +0.000 C 
ATOM      2  C   UNL     1       1.260   3.931  20.672  0.00  0.00    +0.000 C 
ATOM      3  C   UNL     1       2.448   2.998  20.780  0.00  0.00    +0.000 C 
ATOM      4  C   UNL     1       3.127   2.641  19.474  0.00  0.00    +0.000 C 
ATOM      5  O   UNL     1       4.004   1.778  19.479  0.00  0.00    +0.000 OA
ATOM      6  N   UNL     1       2.746   3.324  18.332  0.00  0.00    +0.000 N 
ATOM      7  C   UNL     1       1.744   4.388  18.314  0.00  0.00    +0.000 C 
ENDROOT
BRANCH   1   9
ATOM      8  O   UNL     1       3.839   5.740  19.822  0.00  0.00    +0.000 OA
ATOM      9  C   UNL     1       2.658   6.008  20.023  0.00  0.00    +0.000 C 
ATOM     10  N   UNL     1       2.356   7.232  20.547  0.00  0.00    +0.000 N 
ATOM     11  H   UNL     1       3.177   7.771  20.805  0.00  0.00    +0.000 HD
BRANCH  10  12
ATOM     12  C   UNL     1       1.064   7.695  20.980  0.00  0.00    +0.000 C 
BRANCH  12  13
ATOM     13  C   UNL     1       0.797   9.119  20.590  0.00  0.00    +0.000 A 
ATOM     14  C   UNL     1       1.169   9.516  19.292  0.00  0.00    +0.000 A 
ATOM     15  C   UNL     1       1.064  10.845  18.892  0.00  0.00    +0.000 A 
ATOM     16  C   UNL     1       0.579  11.796  19.780  0.00  0.00    +0.000 A 
ATOM     17  C   UNL     1       0.161  11.411  21.054  0.00  0.00    +0.000 A 
ATOM     18  C   UNL     1       0.243  10.069  21.476  0.00  0.00    +0.000 A 
BRANCH  18  19
ATOM     19  C   UNL     1      -0.257   9.758  22.874  0.00  0.00    +0.000 C 
ATOM     20  F   UNL     1       0.702   9.450  23.788  0.00  0.00    +0.000 F 
ATOM     21  F   UNL     1      -0.942  10.806  23.413  0.00  0.00    +0.000 F 
ATOM     22  F   UNL     1      -1.124   8.706  22.891  0.00  0.00    +0.000 F 
ENDBRANCH  18  19
ENDBRANCH  12  13
ENDBRANCH  10  12
ENDBRANCH   1   9
BRANCH   6  23
ATOM     23  C   UNL     1       3.381   2.991  17.063  0.00  0.00    +0.000 C 
BRANCH  23  24
ATOM     24  C   UNL     1       4.805   3.524  16.906  0.00  0.00    +0.000 C 
BRANCH  24  25
ATOM     25  C   UNL     1       4.872   4.989  16.471  0.00  0.00    +0.000 C 
BRANCH  25  26
ATOM     26  C   UNL     1       5.961   5.702  17.237  0.00  0.00    +0.000 A 
ATOM     27  C   UNL     1       6.288   7.029  16.930  0.00  0.00    +0.000 A 
ATOM     28  C   UNL     1       7.356   7.659  17.572  0.00  0.00    +0.000 A 
ATOM     29  C   UNL     1       8.106   6.967  18.521  0.00  0.00    +0.000 A 
ATOM     30  C   UNL     1       7.785   5.647  18.835  0.00  0.00    +0.000 A 
ATOM     31  C   UNL     1       6.716   5.017  18.197  0.00  0.00    +0.000 A 
ENDBRANCH  25  26
ENDBRANCH  24  25
ENDBRANCH  23  24
ENDBRANCH   6  23
TORSDOF 8
ENDMDL
MODEL 5
REMARK VINA RESULT:      -8.3      0.891      1.281
REMARK  Name = 
REMARK  8 active torsions:
REMARK  status: ('A' for Active; 'I' for Inactive)
REMARK    1  A    between atoms: C_2  and  C_15
REMARK    2  A    between atoms: N_3  and  C_4
REMARK    3  A    between atoms: C_4  and  C_5
REMARK    4  A    between atoms: C_10  and  C_11
REMARK    5  A    between atoms: N_20  and  C_21
REMARK    6  A    between atoms: C_21  and  C_22
REMARK    7  A    between atoms: C_22  and  C_23
REMARK    8  A    between atoms: C_23  and  C_24
REMARK                            x       y       z     vdW  Elec       q    Type
REMARK                         _______ _______ _______ _____ _____    ______ ____
ROOT
ATOM      1  C   UNL     1       2.239   5.236  18.532  0.00  0.00    +0.000 C 
ATOM      2  C   UNL     1       1.299   4.116  18.965  0.00  0.00    +0.000 C 
ATOM      3  C   UNL     1       2.060   2.879  19.391  0.00  0.00    +0.000 C 
ATOM      4  C   UNL     1       3.254   2.512  18.535  0.00  0.00    +0.000 C 
ATOM      5  O   UNL     1       3.826   1.442  18.742  0.00  0.00    +0.000 OA
ATOM      6  N   UNL     1       3.668   3.414  17.570  0.00  0.00    +0.000 N 
ATOM      7  C   UNL     1       3.036   4.712  17.342  0.00  0.00    +0.000 C 
ENDROOT
BRANCH   1   9
ATOM      8  O   UNL     1       4.327   5.397  19.769  0.00  0.00    +0.000 OA
ATOM      9  C   UNL     1       3.167   5.776  19.629  0.00  0.00    +0.000 C 
ATOM     10  N   UNL     1       2.704   6.752  20.464  0.00  0.00    +0.000 N 
ATOM     11  H   UNL     1       3.365   7.003  21.192  0.00  0.00    +0.000 HD
BRANCH  10  12
ATOM     12  C   UNL     1       1.354   7.242  20.560  0.00  0.00    +0.000 C 
BRANCH  12  13
ATOM     13  C   UNL     1       1.210   8.649  20.059  0.00  0.00    +0.000 A 
ATOM     14  C   UNL     1       1.602   8.908  18.732  0.00  0.00    +0.000 A 
ATOM     15  C   UNL     1       1.610  10.205  18.228  0.00  0.00    +0.000 A 
ATOM     16  C   UNL     1       1.221  11.262  19.040  0.00  0.00    +0.000 A 
ATOM     17  C   UNL     1       0.783  11.017  20.341  0.00  0.00    +0.000 A 
ATOM     18  C   UNL     1       0.751   9.711  20.869  0.00  0.00    +0.000 A 
BRANCH  18  19
ATOM     19  C   UNL     1       0.240   9.557  22.289  0.00  0.00    +0.000 C 
ATOM     20  F   UNL     1      -0.748   8.637  22.463  0.00  0.00    +0.000 F 
ATOM     21  F   UNL     1       1.231   9.185  23.147  0.00  0.00    +0.000 F 
ATOM     22  F   UNL     1      -0.260  10.723  22.787  0.00  0.00    +0.000 F 
ENDBRANCH  18  19
ENDBRANCH  12  13
ENDBRANCH  10  12
ENDBRANCH   1   9
BRANCH   6  23
ATOM     23  C   UNL     1       4.810   3.078  16.729  0.00  0.00    +0.000 C 
BRANCH  23  24
ATOM     24  C   UNL     1       5.179   4.148  15.700  0.00  0.00    +0.000 C 
BRANCH  24  25
ATOM     25  C   UNL     1       6.679   4.430  15.614  0.00  0.00    +0.000 C 
BRANCH  25  26
ATOM     26  C   UNL     1       7.099   5.324  16.756  0.00  0.00    +0.000 A 
ATOM     27  C   UNL     1       7.136   6.715  16.590  0.00  0.00    +0.000 A 
ATOM     28  C   UNL     1       7.613   7.536  17.612  0.00  0.00    +0.000 A 
ATOM     29  C   UNL     1       8.060   6.974  18.807  0.00  0.00    +0.000 A 
ATOM     30  C   UNL     1       8.024   5.591  18.983  0.00  0.00    +0.000 A 
ATOM     31  C   UNL     1       7.544   4.769  17.963  0.00  0.00    +0.000 A 
ENDBRANCH  25  26
ENDBRANCH  24  25
ENDBRANCH  23  24
ENDBRANCH   6  23
TORSDOF 8
ENDMDL
MODEL 6
REMARK VINA RESULT:      -8.3      2.440      3.454
REMARK  Name = 
REMARK  8 active torsions:
REMARK  status: ('A' for Active; 'I' for Inactive)
REMARK    1  A    between atoms: C_2  and  C_15
REMARK    2  A    between atoms: N_3  and  C_4
REMARK    3  A    between atoms: C_4  and  C_5
REMARK    4  A    between atoms: C_10  and  C_11
REMARK    5  A    between atoms: N_20  and  C_21
REMARK    6  A    between atoms: C_21  and  C_22
REMARK    7  A    between atoms: C_22  and  C_23
REMARK    8  A    between atoms: C_23  and  C_24
REMARK                            x       y       z     vdW  Elec       q    Type
REMARK                         _______ _______ _______ _____ _____    ______ ____
ROOT
ATOM      1  C   UNL     1       1.943   5.055  19.002  0.00  0.00    +0.000 C 
ATOM      2  C   UNL     1       1.549   3.627  18.642  0.00  0.00    +0.000 C 
ATOM      3  C   UNL     1       2.557   2.621  19.158  0.00  0.00    +0.000 C 
ATOM      4  C   UNL     1       4.012   3.013  19.015  0.00  0.00    +0.000 C 
ATOM      5  O   UNL     1       4.879   2.181  19.281  0.00  0.00    +0.000 OA
ATOM      6  N   UNL     1       4.304   4.306  18.614  0.00  0.00    +0.000 N 
ATOM      7  C   UNL     1       3.292   5.324  18.342  0.00  0.00    +0.000 C 
ENDROOT
BRANCH   1   9
ATOM      8  O   UNL     1       2.042   4.492  21.366  0.00  0.00    +0.000 OA
ATOM      9  C   UNL     1       1.987   5.366  20.505  0.00  0.00    +0.000 C 
ATOM     10  N   UNL     1       2.011   6.670  20.908  0.00  0.00    +0.000 N 
ATOM     11  H   UNL     1       1.979   6.777  21.918  0.00  0.00    +0.000 HD
BRANCH  10  12
ATOM     12  C   UNL     1       1.825   7.835  20.086  0.00  0.00    +0.000 C 
BRANCH  12  13
ATOM     13  C   UNL     1       1.037   8.912  20.773  0.00  0.00    +0.000 A 
ATOM     14  C   UNL     1       0.823   8.773  22.158  0.00  0.00    +0.000 A 
ATOM     15  C   UNL     1       0.006   9.664  22.848  0.00  0.00    +0.000 A 
ATOM     16  C   UNL     1      -0.604  10.710  22.167  0.00  0.00    +0.000 A 
ATOM     17  C   UNL     1      -0.362  10.889  20.806  0.00  0.00    +0.000 A 
ATOM     18  C   UNL     1       0.474  10.010  20.088  0.00  0.00    +0.000 A 
BRANCH  18  19
ATOM     19  C   UNL     1       0.682  10.310  18.616  0.00  0.00    +0.000 C 
ATOM     20  F   UNL     1       1.973  10.291  18.187  0.00  0.00    +0.000 F 
ATOM     21  F   UNL     1       0.027   9.418  17.819  0.00  0.00    +0.000 F 
ATOM     22  F   UNL     1       0.202  11.537  18.266  0.00  0.00    +0.000 F 
ENDBRANCH  18  19
ENDBRANCH  12  13
ENDBRANCH  10  12
ENDBRANCH   1   9
BRANCH   6  23
ATOM     23  C   UNL     1       5.698   4.703  18.462  0.00  0.00    +0.000 C 
BRANCH  23  24
ATOM     24  C   UNL     1       6.286   4.443  17.075  0.00  0.00    +0.000 C 
BRANCH  24  25
ATOM     25  C   UNL     1       5.270   4.573  15.940  0.00  0.00    +0.000 C 
BRANCH  25  26
ATOM     26  C   UNL     1       5.963   4.405  14.609  0.00  0.00    +0.000 A 
ATOM     27  C   UNL     1       7.131   5.125  14.324  0.00  0.00    +0.000 A 
ATOM     28  C   UNL     1       7.720   5.043  13.061  0.00  0.00    +0.000 A 
ATOM     29  C   UNL     1       7.145   4.245  12.074  0.00  0.00    +0.000 A 
ATOM     30  C   UNL     1       5.985   3.522  12.349  0.00  0.00    +0.000 A 
ATOM     31  C   UNL     1       5.396   3.601  13.612  0.00  0.00    +0.000 A 
ENDBRANCH  25  26
ENDBRANCH  24  25
ENDBRANCH  23  24
ENDBRANCH   6  23
TORSDOF 8
ENDMDL
MODEL 7
REMARK VINA RESULT:      -8.2      1.531      2.502
REMARK  Name = 
REMARK  8 active torsions:
REMARK  status: ('A' for Active; 'I' for Inactive)
REMARK    1  A    between atoms: C_2  and  C_15
REMARK    2  A    between atoms: N_3  and  C_4
REMARK    3  A    between atoms: C_4  and  C_5
REMARK    4  A    between atoms: C_10  and  C_11
REMARK    5  A    between atoms: N_20  and  C_21
REMARK    6  A    between atoms: C_21  and  C_22
REMARK    7  A    between atoms: C_22  and  C_23
REMARK    8  A    between atoms: C_23  and  C_24
REMARK                            x       y       z     vdW  Elec       q    Type
REMARK                         _______ _______ _______ _____ _____    ______ ____
ROOT
ATOM      1  C   UNL     1       1.615   5.205  19.230  0.00  0.00    +0.000 C 
ATOM      2  C   UNL     1       1.184   4.052  20.130  0.00  0.00    +0.000 C 
ATOM      3  C   UNL     1       2.293   3.036  20.306  0.00  0.00    +0.000 C 
ATOM      4  C   UNL     1       3.089   2.706  19.061  0.00  0.00    +0.000 C 
ATOM      5  O   UNL     1       3.904   1.785  19.106  0.00  0.00    +0.000 OA
ATOM      6  N   UNL     1       2.881   3.476  17.930  0.00  0.00    +0.000 N 
ATOM      7  C   UNL     1       1.956   4.605  17.870  0.00  0.00    +0.000 C 
ENDROOT
BRANCH   1   9
ATOM      8  O   UNL     1       3.953   5.784  19.574  0.00  0.00    +0.000 OA
ATOM      9  C   UNL     1       2.772   6.061  19.766  0.00  0.00    +0.000 C 
ATOM     10  N   UNL     1       2.483   7.206  20.452  0.00  0.00    +0.000 N 
ATOM     11  H   UNL     1       3.307   7.673  20.818  0.00  0.00    +0.000 HD
BRANCH  10  12
ATOM     12  C   UNL     1       1.187   7.646  20.898  0.00  0.00    +0.000 C 
BRANCH  12  13
ATOM     13  C   UNL     1       0.880   9.056  20.488  0.00  0.00    +0.000 A 
ATOM     14  C   UNL     1       1.238   9.444  19.183  0.00  0.00    +0.000 A 
ATOM     15  C   UNL     1       1.095  10.764  18.764  0.00  0.00    +0.000 A 
ATOM     16  C   UNL     1       0.587  11.714  19.640  0.00  0.00    +0.000 A 
ATOM     17  C   UNL     1       0.182  11.336  20.920  0.00  0.00    +0.000 A 
ATOM     18  C   UNL     1       0.302  10.003  21.362  0.00  0.00    +0.000 A 
BRANCH  18  19
ATOM     19  C   UNL     1      -0.186   9.699  22.765  0.00  0.00    +0.000 C 
ATOM     20  F   UNL     1       0.782   9.403  23.674  0.00  0.00    +0.000 F 
ATOM     21  F   UNL     1      -0.874  10.746  23.302  0.00  0.00    +0.000 F 
ATOM     22  F   UNL     1      -1.046   8.641  22.795  0.00  0.00    +0.000 F 
ENDBRANCH  18  19
ENDBRANCH  12  13
ENDBRANCH  10  12
ENDBRANCH   1   9
BRANCH   6  23
ATOM     23  C   UNL     1       3.631   3.171  16.718  0.00  0.00    +0.000 C 
BRANCH  23  24
ATOM     24  C   UNL     1       5.052   3.736  16.691  0.00  0.00    +0.000 C 
BRANCH  24  25
ATOM     25  C   UNL     1       5.208   4.972  15.803  0.00  0.00    +0.000 C 
BRANCH  25  26
ATOM     26  C   UNL     1       5.923   4.599  14.527  0.00  0.00    +0.000 A 
ATOM     27  C   UNL     1       7.134   5.219  14.188  0.00  0.00    +0.000 A 
ATOM     28  C   UNL     1       7.749   4.945  12.965  0.00  0.00    +0.000 A 
ATOM     29  C   UNL     1       7.157   4.054  12.071  0.00  0.00    +0.000 A 
ATOM     30  C   UNL     1       5.955   3.431  12.401  0.00  0.00    +0.000 A 
ATOM     31  C   UNL     1       5.340   3.701  13.624  0.00  0.00    +0.000 A 
ENDBRANCH  25  26
ENDBRANCH  24  25
ENDBRANCH  23  24
ENDBRANCH   6  23
TORSDOF 8
ENDMDL
MODEL 8
REMARK VINA RESULT:      -8.2      2.181      2.760
REMARK  Name = 
REMARK  8 active torsions:
REMARK  status: ('A' for Active; 'I' for Inactive)
REMARK    1  A    between atoms: C_2  and  C_15
REMARK    2  A    between atoms: N_3  and  C_4
REMARK    3  A    between atoms: C_4  and  C_5
REMARK    4  A    between atoms: C_10  and  C_11
REMARK    5  A    between atoms: N_20  and  C_21
REMARK    6  A    between atoms: C_21  and  C_22
REMARK    7  A    between atoms: C_22  and  C_23
REMARK    8  A    between atoms: C_23  and  C_24
REMARK                            x       y       z     vdW  Elec       q    Type
REMARK                         _______ _______ _______ _____ _____    ______ ____
ROOT
ATOM      1  C   UNL     1       2.363   5.183  18.298  0.00  0.00    +0.000 C 
ATOM      2  C   UNL     1       1.342   4.072  18.521  0.00  0.00    +0.000 C 
ATOM      3  C   UNL     1       2.006   2.776  18.933  0.00  0.00    +0.000 C 
ATOM      4  C   UNL     1       3.285   2.428  18.200  0.00  0.00    +0.000 C 
ATOM      5  O   UNL     1       3.792   1.322  18.387  0.00  0.00    +0.000 OA
ATOM      6  N   UNL     1       3.842   3.384  17.369  0.00  0.00    +0.000 N 
ATOM      7  C   UNL     1       3.284   4.720  17.174  0.00  0.00    +0.000 C 
ENDROOT
BRANCH   1   9
ATOM      8  O   UNL     1       4.323   5.240  19.737  0.00  0.00    +0.000 OA
ATOM      9  C   UNL     1       3.164   5.597  19.540  0.00  0.00    +0.000 C 
ATOM     10  N   UNL     1       2.586   6.437  20.448  0.00  0.00    +0.000 N 
ATOM     11  H   UNL     1       3.168   6.607  21.263  0.00  0.00    +0.000 HD
BRANCH  10  12
ATOM     12  C   UNL     1       1.213   6.866  20.480  0.00  0.00    +0.000 C 
BRANCH  12  13
ATOM     13  C   UNL     1       1.073   8.347  20.682  0.00  0.00    +0.000 A 
ATOM     14  C   UNL     1       0.665   8.792  21.953  0.00  0.00    +0.000 A 
ATOM     15  C   UNL     1       0.398  10.137  22.189  0.00  0.00    +0.000 A 
ATOM     16  C   UNL     1       0.542  11.059  21.161  0.00  0.00    +0.000 A 
ATOM     17  C   UNL     1       0.994  10.642  19.909  0.00  0.00    +0.000 A 
ATOM     18  C   UNL     1       1.285   9.287  19.650  0.00  0.00    +0.000 A 
BRANCH  18  19
ATOM     19  C   UNL     1       1.787   8.947  18.259  0.00  0.00    +0.000 C 
ATOM     20  F   UNL     1       3.054   8.456  18.194  0.00  0.00    +0.000 F 
ATOM     21  F   UNL     1       1.007   8.006  17.655  0.00  0.00    +0.000 F 
ATOM     22  F   UNL     1       1.773  10.026  17.427  0.00  0.00    +0.000 F 
ENDBRANCH  18  19
ENDBRANCH  12  13
ENDBRANCH  10  12
ENDBRANCH   1   9
BRANCH   6  23
ATOM     23  C   UNL     1       5.069   3.068  16.649  0.00  0.00    +0.000 C 
BRANCH  23  24
ATOM     24  C   UNL     1       5.388   4.014  15.491  0.00  0.00    +0.000 C 
BRANCH  24  25
ATOM     25  C   UNL     1       6.855   4.444  15.431  0.00  0.00    +0.000 C 
BRANCH  25  26
ATOM     26  C   UNL     1       7.189   5.293  16.634  0.00  0.00    +0.000 A 
ATOM     27  C   UNL     1       7.164   6.692  16.541  0.00  0.00    +0.000 A 
ATOM     28  C   UNL     1       7.564   7.478  17.623  0.00  0.00    +0.000 A 
ATOM     29  C   UNL     1       7.995   6.874  18.802  0.00  0.00    +0.000 A 
ATOM     30  C   UNL     1       8.020   5.484  18.905  0.00  0.00    +0.000 A 
ATOM     31  C   UNL     1       7.618   4.696  17.826  0.00  0.00    +0.000 A 
ENDBRANCH  25  26
ENDBRANCH  24  25
ENDBRANCH  23  24
ENDBRANCH   6  23
TORSDOF 8
ENDMDL
MODEL 9
REMARK VINA RESULT:      -8.2      4.501      6.662
REMARK  Name = 
REMARK  8 active torsions:
REMARK  status: ('A' for Active; 'I' for Inactive)
REMARK    1  A    between atoms: C_2  and  C_15
REMARK    2  A    between atoms: N_3  and  C_4
REMARK    3  A    between atoms: C_4  and  C_5
REMARK    4  A    between atoms: C_10  and  C_11
REMARK    5  A    between atoms: N_20  and  C_21
REMARK    6  A    between atoms: C_21  and  C_22
REMARK    7  A    between atoms: C_22  and  C_23
REMARK    8  A    between atoms: C_23  and  C_24
REMARK                            x       y       z     vdW  Elec       q    Type
REMARK                         _______ _______ _______ _____ _____    ______ ____
ROOT
ATOM      1  C   UNL     1       5.125   5.577  18.151  0.00  0.00    +0.000 C 
ATOM      2  C   UNL     1       4.631   5.075  16.799  0.00  0.00    +0.000 C 
ATOM      3  C   UNL     1       5.779   4.805  15.849  0.00  0.00    +0.000 C 
ATOM      4  C   UNL     1       6.899   5.824  15.862  0.00  0.00    +0.000 C 
ATOM      5  O   UNL     1       7.787   5.738  15.014  0.00  0.00    +0.000 OA
ATOM      6  N   UNL     1       6.887   6.794  16.849  0.00  0.00    +0.000 N 
ATOM      7  C   UNL     1       5.871   6.882  17.895  0.00  0.00    +0.000 C 
ENDROOT
BRANCH   1   9
ATOM      8  O   UNL     1       7.106   4.869  19.372  0.00  0.00    +0.000 OA
ATOM      9  C   UNL     1       5.990   4.588  18.945  0.00  0.00    +0.000 C 
ATOM     10  N   UNL     1       5.485   3.351  19.230  0.00  0.00    +0.000 N 
ATOM     11  H   UNL     1       6.149   2.747  19.704  0.00  0.00    +0.000 HD
BRANCH  10  12
ATOM     12  C   UNL     1       4.269   2.773  18.722  0.00  0.00    +0.000 C 
BRANCH  12  13
ATOM     13  C   UNL     1       3.120   2.908  19.677  0.00  0.00    +0.000 A 
ATOM     14  C   UNL     1       3.333   2.504  21.009  0.00  0.00    +0.000 A 
ATOM     15  C   UNL     1       2.287   2.487  21.927  0.00  0.00    +0.000 A 
ATOM     16  C   UNL     1       1.016   2.880  21.532  0.00  0.00    +0.000 A 
ATOM     17  C   UNL     1       0.799   3.330  20.230  0.00  0.00    +0.000 A 
ATOM     18  C   UNL     1       1.845   3.372  19.285  0.00  0.00    +0.000 A 
BRANCH  18  19
ATOM     19  C   UNL     1       1.501   3.896  17.904  0.00  0.00    +0.000 C 
ATOM     20  F   UNL     1       1.733   5.221  17.703  0.00  0.00    +0.000 F 
ATOM     21  F   UNL     1       2.207   3.256  16.929  0.00  0.00    +0.000 F 
ATOM     22  F   UNL     1       0.188   3.706  17.592  0.00  0.00    +0.000 F 
ENDBRANCH  18  19
ENDBRANCH  12  13
ENDBRANCH  10  12
ENDBRANCH   1   9
BRANCH   6  23
ATOM     23  C   UNL     1       7.952   7.790  16.875  0.00  0.00    +0.000 C 
BRANCH  23  24
ATOM     24  C   UNL     1       7.773   8.884  17.928  0.00  0.00    +0.000 C 
BRANCH  24  25
ATOM     25  C   UNL     1       8.916   8.958  18.942  0.00  0.00    +0.000 C 
BRANCH  25  26
ATOM     26  C   UNL     1       9.366  10.390  19.103  0.00  0.00    +0.000 A 
ATOM     27  C   UNL     1       9.385  10.987  20.371  0.00  0.00    +0.000 A 
ATOM     28  C   UNL     1       9.710  12.337  20.511  0.00  0.00    +0.000 A 
ATOM     29  C   UNL     1      10.015  13.101  19.385  0.00  0.00    +0.000 A 
ATOM     30  C   UNL     1      10.002  12.515  18.120  0.00  0.00    +0.000 A 
ATOM     31  C   UNL     1       9.680  11.164  17.979  0.00  0.00    +0.000 A 
ENDBRANCH  25  26
ENDBRANCH  24  25
ENDBRANCH  23  24
ENDBRANCH   6  23
TORSDOF 8
ENDMDL
