MODEL 1
REMARK VINA RESULT:      -7.4      0.000      0.000
REMARK  Name = 
REMARK  4 active torsions:
REMARK  status: ('A' for Active; 'I' for Inactive)
REMARK    1  A    between atoms: C_1  and  O_2
REMARK    2  A    between atoms: O_2  and  C_3
REMARK    3  A    between atoms: C_6  and  C_7
REMARK    4  A    between atoms: N_23  and  C_24
REMARK                            x       y       z     vdW  Elec       q    Type
REMARK                         _______ _______ _______ _____ _____    ______ ____
ROOT
ATOM      1  C   UNL     1       0.080  10.235  19.616  0.00  0.00    +0.000 C 
ATOM      2  N   UNL     1      -0.402  10.462  20.804  0.00  0.00    +0.000 NA
ATOM      3  N   UNL     1      -1.077  11.686  20.719  0.00  0.00    +0.000 N 
ATOM      4  C   UNL     1      -0.739  12.360  19.445  0.00  0.00    +0.000 C 
ATOM      5  C   UNL     1      -0.432  11.172  18.563  0.00  0.00    +0.000 C 
ATOM      6  C   UNL     1       0.424  13.315  19.606  0.00  0.00    +0.000 A 
ATOM      7  C   UNL     1       0.542  14.444  18.787  0.00  0.00    +0.000 A 
ATOM      8  C   UNL     1       1.531  15.385  19.064  0.00  0.00    +0.000 A 
ATOM      9 BR   UNL     1       1.433  17.094  18.259  0.00  0.00    +0.000 Br
ATOM     10  C   UNL     1       2.504  15.134  20.034  0.00  0.00    +0.000 A 
ATOM     11  C   UNL     1       2.343  14.058  20.908  0.00  0.00    +0.000 A 
ATOM     12  C   UNL     1       1.203  13.276  20.781  0.00  0.00    +0.000 A 
ATOM     13  O   UNL     1       0.654  12.760  21.965  0.00  0.00    +0.000 OA
ATOM     14  C   UNL     1      -0.800  12.659  21.825  0.00  0.00    +0.000 C 
ATOM     15  C   UNL     1      -1.386  14.102  21.660  0.00  0.00    +0.000 C 
ATOM     16  C   UNL     1      -2.832  14.007  21.226  0.00  0.00    +0.000 C 
ATOM     17  N   UNL     1      -3.654  13.543  22.322  0.00  0.00    +0.000 NA
ATOM     18  C   UNL     1      -4.065  14.668  23.144  0.00  0.00    +0.000 C 
ATOM     19  C   UNL     1      -3.075  12.375  23.028  0.00  0.00    +0.000 C 
ATOM     20  C   UNL     1      -1.520  12.213  23.124  0.00  0.00    +0.000 C 
ENDROOT
BRANCH   1  24
ATOM     21  C   UNL     1       2.858   7.126  18.662  0.00  0.00    +0.000 A 
ATOM     22  C   UNL     1       2.540   8.099  17.705  0.00  0.00    +0.000 A 
ATOM     23  C   UNL     1       1.645   9.138  18.003  0.00  0.00    +0.000 A 
ATOM     24  C   UNL     1       1.062   9.203  19.274  0.00  0.00    +0.000 A 
ATOM     25  C   UNL     1       1.355   8.205  20.216  0.00  0.00    +0.000 A 
ATOM     26  C   UNL     1       2.262   7.187  19.922  0.00  0.00    +0.000 A 
BRANCH  21  28
ATOM     27  C   UNL     1       4.415   5.427  19.251  0.00  0.00    +0.000 C 
ATOM     28  O   UNL     1       3.723   6.150  18.239  0.00  0.00    +0.000 OA
ENDBRANCH  21  28
ENDBRANCH   1  24
TORSDOF 2
ENDMDL
MODEL 2
REMARK VINA RESULT:      -7.2      0.439      1.013
REMARK  Name = 
REMARK  4 active torsions:
REMARK  status: ('A' for Active; 'I' for Inactive)
REMARK    1  A    between atoms: C_1  and  O_2
REMARK    2  A    between atoms: O_2  and  C_3
REMARK    3  A    between atoms: C_6  and  C_7
REMARK    4  A    between atoms: N_23  and  C_24
REMARK                            x       y       z     vdW  Elec       q    Type
REMARK                         _______ _______ _______ _____ _____    ______ ____
ROOT
ATOM      1  C   UNL     1       0.135  10.083  19.589  0.00  0.00    +0.000 C 
ATOM      2  N   UNL     1      -0.371  10.348  20.759  0.00  0.00    +0.000 NA
ATOM      3  N   UNL     1      -0.989  11.599  20.638  0.00  0.00    +0.000 N 
ATOM      4  C   UNL     1      -0.585  12.239  19.366  0.00  0.00    +0.000 C 
ATOM      5  C   UNL     1      -0.306  11.026  18.509  0.00  0.00    +0.000 C 
ATOM      6  C   UNL     1       0.613  13.145  19.547  0.00  0.00    +0.000 A 
ATOM      7  C   UNL     1       0.803  14.255  18.717  0.00  0.00    +0.000 A 
ATOM      8  C   UNL     1       1.824  15.157  19.009  0.00  0.00    +0.000 A 
ATOM      9 BR   UNL     1       1.824  16.857  18.179  0.00  0.00    +0.000 Br
ATOM     10  C   UNL     1       2.757  14.879  20.011  0.00  0.00    +0.000 A 
ATOM     11  C   UNL     1       2.524  13.824  20.894  0.00  0.00    +0.000 A 
ATOM     12  C   UNL     1       1.355  13.090  20.745  0.00  0.00    +0.000 A 
ATOM     13  O   UNL     1       0.751  12.616  21.919  0.00  0.00    +0.000 OA
ATOM     14  C   UNL     1      -0.701  12.576  21.738  0.00  0.00    +0.000 C 
ATOM     15  C   UNL     1      -1.220  14.040  21.536  0.00  0.00    +0.000 C 
ATOM     16  C   UNL     1      -2.655  14.001  21.062  0.00  0.00    +0.000 C 
ATOM     17  N   UNL     1      -3.528  13.589  22.139  0.00  0.00    +0.000 NA
ATOM     18  C   UNL     1      -3.912  14.743  22.933  0.00  0.00    +0.000 C 
ATOM     19  C   UNL     1      -3.021  12.407  22.878  0.00  0.00    +0.000 C 
ATOM     20  C   UNL     1      -1.477  12.180  23.021  0.00  0.00    +0.000 C 
ENDROOT
BRANCH   1  24
ATOM     21  C   UNL     1       2.986   7.028  18.677  0.00  0.00    +0.000 A 
ATOM     22  C   UNL     1       2.361   7.051  19.931  0.00  0.00    +0.000 A 
ATOM     23  C   UNL     1       1.409   8.034  20.243  0.00  0.00    +0.000 A 
ATOM     24  C   UNL     1       1.080   9.005  19.290  0.00  0.00    +0.000 A 
ATOM     25  C   UNL     1       1.736   8.999  18.051  0.00  0.00    +0.000 A 
ATOM     26  C   UNL     1       2.666   8.008  17.736  0.00  0.00    +0.000 A 
BRANCH  21  28
ATOM     27  C   UNL     1       3.637   5.067  17.500  0.00  0.00    +0.000 C 
ATOM     28  O   UNL     1       3.915   6.036  18.504  0.00  0.00    +0.000 OA
ENDBRANCH  21  28
ENDBRANCH   1  24
TORSDOF 2
ENDMDL
MODEL 3
REMARK VINA RESULT:      -6.8      3.384      7.049
REMARK  Name = 
REMARK  4 active torsions:
REMARK  status: ('A' for Active; 'I' for Inactive)
REMARK    1  A    between atoms: C_1  and  O_2
REMARK    2  A    between atoms: O_2  and  C_3
REMARK    3  A    between atoms: C_6  and  C_7
REMARK    4  A    between atoms: N_23  and  C_24
REMARK                            x       y       z     vdW  Elec       q    Type
REMARK                         _______ _______ _______ _____ _____    ______ ____
ROOT
ATOM      1  C   UNL     1      -2.484  12.872  19.707  0.00  0.00    +0.000 C 
ATOM      2  N   UNL     1      -1.632  13.739  20.176  0.00  0.00    +0.000 NA
ATOM      3  N   UNL     1      -0.384  13.370  19.662  0.00  0.00    +0.000 N 
ATOM      4  C   UNL     1      -0.467  12.023  19.055  0.00  0.00    +0.000 C 
ATOM      5  C   UNL     1      -1.919  11.983  18.640  0.00  0.00    +0.000 C 
ATOM      6  C   UNL     1      -0.086  10.938  20.038  0.00  0.00    +0.000 A 
ATOM      7  C   UNL     1       0.475   9.735  19.595  0.00  0.00    +0.000 A 
ATOM      8  C   UNL     1       0.962   8.825  20.532  0.00  0.00    +0.000 A 
ATOM      9 BR   UNL     1       2.094   7.422  19.957  0.00  0.00    +0.000 Br
ATOM     10  C   UNL     1       0.745   9.021  21.897  0.00  0.00    +0.000 A 
ATOM     11  C   UNL     1       0.268  10.252  22.348  0.00  0.00    +0.000 A 
ATOM     12  C   UNL     1       0.032  11.248  21.409  0.00  0.00    +0.000 A 
ATOM     13  O   UNL     1       0.296  12.567  21.806  0.00  0.00    +0.000 OA
ATOM     14  C   UNL     1       0.744  13.344  20.648  0.00  0.00    +0.000 C 
ATOM     15  C   UNL     1       2.107  12.754  20.149  0.00  0.00    +0.000 C 
ATOM     16  C   UNL     1       2.441  13.344  18.797  0.00  0.00    +0.000 C 
ATOM     17  N   UNL     1       2.822  14.731  18.935  0.00  0.00    +0.000 NA
ATOM     18  C   UNL     1       4.242  14.827  19.232  0.00  0.00    +0.000 C 
ATOM     19  C   UNL     1       1.904  15.502  19.808  0.00  0.00    +0.000 C 
ATOM     20  C   UNL     1       1.180  14.790  21.001  0.00  0.00    +0.000 C 
ENDROOT
BRANCH   1  24
ATOM     21  C   UNL     1      -6.522  12.248  20.972  0.00  0.00    +0.000 A 
ATOM     22  C   UNL     1      -5.561  12.689  21.891  0.00  0.00    +0.000 A 
ATOM     23  C   UNL     1      -4.234  12.918  21.492  0.00  0.00    +0.000 A 
ATOM     24  C   UNL     1      -3.867  12.701  20.159  0.00  0.00    +0.000 A 
ATOM     25  C   UNL     1      -4.825  12.224  19.252  0.00  0.00    +0.000 A 
ATOM     26  C   UNL     1      -6.147  12.019  19.647  0.00  0.00    +0.000 A 
BRANCH  21  28
ATOM     27  C   UNL     1      -7.896  12.094  22.906  0.00  0.00    +0.000 C 
ATOM     28  O   UNL     1      -7.773  12.036  21.490  0.00  0.00    +0.000 OA
ENDBRANCH  21  28
ENDBRANCH   1  24
TORSDOF 2
ENDMDL
MODEL 4
REMARK VINA RESULT:      -6.8      3.272      6.985
REMARK  Name = 
REMARK  4 active torsions:
REMARK  status: ('A' for Active; 'I' for Inactive)
REMARK    1  A    between atoms: C_1  and  O_2
REMARK    2  A    between atoms: O_2  and  C_3
REMARK    3  A    between atoms: C_6  and  C_7
REMARK    4  A    between atoms: N_23  and  C_24
REMARK                            x       y       z     vdW  Elec       q    Type
REMARK                         _______ _______ _______ _____ _____    ______ ____
ROOT
ATOM      1  C   UNL     1      -2.339  12.868  19.629  0.00  0.00    +0.000 C 
ATOM      2  N   UNL     1      -1.459  13.704  20.100  0.00  0.00    +0.000 NA
ATOM      3  N   UNL     1      -0.263  13.423  19.429  0.00  0.00    +0.000 N 
ATOM      4  C   UNL     1      -0.386  12.144  18.696  0.00  0.00    +0.000 C 
ATOM      5  C   UNL     1      -1.871  12.108  18.425  0.00  0.00    +0.000 C 
ATOM      6  C   UNL     1       0.111  10.974  19.518  0.00  0.00    +0.000 A 
ATOM      7  C   UNL     1       0.644   9.838  18.898  0.00  0.00    +0.000 A 
ATOM      8  C   UNL     1       1.238   8.850  19.681  0.00  0.00    +0.000 A 
ATOM      9 BR   UNL     1       2.329   7.545  18.854  0.00  0.00    +0.000 Br
ATOM     10  C   UNL     1       1.157   8.901  21.074  0.00  0.00    +0.000 A 
ATOM     11  C   UNL     1       0.707  10.066  21.697  0.00  0.00    +0.000 A 
ATOM     12  C   UNL     1       0.362  11.146  20.895  0.00  0.00    +0.000 A 
ATOM     13  O   UNL     1       0.643  12.424  21.400  0.00  0.00    +0.000 OA
ATOM     14  C   UNL     1       0.959  13.327  20.291  0.00  0.00    +0.000 C 
ATOM     15  C   UNL     1       2.274  12.828  19.601  0.00  0.00    +0.000 C 
ATOM     16  C   UNL     1       2.460  13.561  18.291  0.00  0.00    +0.000 C 
ATOM     17  N   UNL     1       2.831  14.937  18.536  0.00  0.00    +0.000 NA
ATOM     18  C   UNL     1       4.271  15.040  18.699  0.00  0.00    +0.000 C 
ATOM     19  C   UNL     1       1.992  15.590  19.571  0.00  0.00    +0.000 C 
ATOM     20  C   UNL     1       1.404  14.740  20.749  0.00  0.00    +0.000 C 
ENDROOT
BRANCH   1  24
ATOM     21  C   UNL     1      -6.213  12.255  21.335  0.00  0.00    +0.000 A 
ATOM     22  C   UNL     1      -5.999  11.996  19.976  0.00  0.00    +0.000 A 
ATOM     23  C   UNL     1      -4.731  12.173  19.400  0.00  0.00    +0.000 A 
ATOM     24  C   UNL     1      -3.667  12.615  20.195  0.00  0.00    +0.000 A 
ATOM     25  C   UNL     1      -3.897  12.908  21.548  0.00  0.00    +0.000 A 
ATOM     26  C   UNL     1      -5.153  12.710  22.120  0.00  0.00    +0.000 A 
BRANCH  21  28
ATOM     27  C   UNL     1      -7.797  12.506  23.092  0.00  0.00    +0.000 C 
ATOM     28  O   UNL     1      -7.500  12.070  21.770  0.00  0.00    +0.000 OA
ENDBRANCH  21  28
ENDBRANCH   1  24
TORSDOF 2
ENDMDL
MODEL 5
REMARK VINA RESULT:      -6.7      3.511      6.731
REMARK  Name = 
REMARK  4 active torsions:
REMARK  status: ('A' for Active; 'I' for Inactive)
REMARK    1  A    between atoms: C_1  and  O_2
REMARK    2  A    between atoms: O_2  and  C_3
REMARK    3  A    between atoms: C_6  and  C_7
REMARK    4  A    between atoms: N_23  and  C_24
REMARK                            x       y       z     vdW  Elec       q    Type
REMARK                         _______ _______ _______ _____ _____    ______ ____
ROOT
ATOM      1  C   UNL     1      -2.282  12.612  19.286  0.00  0.00    +0.000 C 
ATOM      2  N   UNL     1      -1.578  13.362  20.085  0.00  0.00    +0.000 NA
ATOM      3  N   UNL     1      -0.242  13.179  19.708  0.00  0.00    +0.000 N 
ATOM      4  C   UNL     1      -0.133  12.026  18.786  0.00  0.00    +0.000 C 
ATOM      5  C   UNL     1      -1.499  12.041  18.142  0.00  0.00    +0.000 C 
ATOM      6  C   UNL     1       0.178  10.742  19.525  0.00  0.00    +0.000 A 
ATOM      7  C   UNL     1       0.887   9.710  18.901  0.00  0.00    +0.000 A 
ATOM      8  C   UNL     1       1.295   8.611  19.654  0.00  0.00    +0.000 A 
ATOM      9 BR   UNL     1       2.602   7.440  18.950  0.00  0.00    +0.000 Br
ATOM     10  C   UNL     1       0.862   8.450  20.972  0.00  0.00    +0.000 A 
ATOM     11  C   UNL     1       0.231   9.510  21.624  0.00  0.00    +0.000 A 
ATOM     12  C   UNL     1       0.065  10.701  20.930  0.00  0.00    +0.000 A 
ATOM     13  O   UNL     1       0.166  11.886  21.674  0.00  0.00    +0.000 OA
ATOM     14  C   UNL     1       0.724  12.944  20.830  0.00  0.00    +0.000 C 
ATOM     15  C   UNL     1       2.186  12.548  20.432  0.00  0.00    +0.000 C 
ATOM     16  C   UNL     1       2.674  13.471  19.338  0.00  0.00    +0.000 C 
ATOM     17  N   UNL     1       2.925  14.791  19.870  0.00  0.00    +0.000 NA
ATOM     18  C   UNL     1       4.273  14.859  20.410  0.00  0.00    +0.000 C 
ATOM     19  C   UNL     1       1.831  15.284  20.741  0.00  0.00    +0.000 C 
ATOM     20  C   UNL     1       0.992  14.270  21.590  0.00  0.00    +0.000 C 
ENDROOT
BRANCH   1  24
ATOM     21  C   UNL     1      -6.394  11.525  19.735  0.00  0.00    +0.000 A 
ATOM     22  C   UNL     1      -5.750  12.256  20.741  0.00  0.00    +0.000 A 
ATOM     23  C   UNL     1      -4.406  12.640  20.605  0.00  0.00    +0.000 A 
ATOM     24  C   UNL     1      -3.701  12.284  19.450  0.00  0.00    +0.000 A 
ATOM     25  C   UNL     1      -4.341  11.520  18.463  0.00  0.00    +0.000 A 
ATOM     26  C   UNL     1      -5.682  11.160  18.592  0.00  0.00    +0.000 A 
BRANCH  21  28
ATOM     27  C   UNL     1      -7.915  10.244  21.041  0.00  0.00    +0.000 C 
ATOM     28  O   UNL     1      -7.697  11.189  19.999  0.00  0.00    +0.000 OA
ENDBRANCH  21  28
ENDBRANCH   1  24
TORSDOF 2
ENDMDL
MODEL 6
REMARK VINA RESULT:      -6.7      1.119      1.542
REMARK  Name = 
REMARK  4 active torsions:
REMARK  status: ('A' for Active; 'I' for Inactive)
REMARK    1  A    between atoms: C_1  and  O_2
REMARK    2  A    between atoms: O_2  and  C_3
REMARK    3  A    between atoms: C_6  and  C_7
REMARK    4  A    between atoms: N_23  and  C_24
REMARK                            x       y       z     vdW  Elec       q    Type
REMARK                         _______ _______ _______ _____ _____    ______ ____
ROOT
ATOM      1  C   UNL     1      -0.420  11.193  20.154  0.00  0.00    +0.000 C 
ATOM      2  N   UNL     1      -0.701  11.579  21.366  0.00  0.00    +0.000 NA
ATOM      3  N   UNL     1      -1.292  12.842  21.240  0.00  0.00    +0.000 N 
ATOM      4  C   UNL     1      -1.101  13.353  19.864  0.00  0.00    +0.000 C 
ATOM      5  C   UNL     1      -1.016  12.061  19.086  0.00  0.00    +0.000 C 
ATOM      6  C   UNL     1       0.138  14.214  19.750  0.00  0.00    +0.000 A 
ATOM      7  C   UNL     1       0.212  15.241  18.802  0.00  0.00    +0.000 A 
ATOM      8  C   UNL     1       1.296  16.116  18.829  0.00  0.00    +0.000 A 
ATOM      9 BR   UNL     1       1.200  17.738  17.859  0.00  0.00    +0.000 Br
ATOM     10  C   UNL     1       2.382  15.880  19.674  0.00  0.00    +0.000 A 
ATOM     11  C   UNL     1       2.277  14.916  20.677  0.00  0.00    +0.000 A 
ATOM     12  C   UNL     1       1.079  14.226  20.801  0.00  0.00    +0.000 A 
ATOM     13  O   UNL     1       0.678  13.882  22.100  0.00  0.00    +0.000 OA
ATOM     14  C   UNL     1      -0.784  13.895  22.179  0.00  0.00    +0.000 C 
ATOM     15  C   UNL     1      -1.285  15.359  21.938  0.00  0.00    +0.000 C 
ATOM     16  C   UNL     1      -2.782  15.347  21.726  0.00  0.00    +0.000 C 
ATOM     17  N   UNL     1      -3.462  15.068  22.971  0.00  0.00    +0.000 NA
ATOM     18  C   UNL     1      -3.664  16.302  23.712  0.00  0.00    +0.000 C 
ATOM     19  C   UNL     1      -2.869  13.931  23.716  0.00  0.00    +0.000 C 
ATOM     20  C   UNL     1      -1.332  13.645  23.608  0.00  0.00    +0.000 C 
ENDROOT
BRANCH   1  24
ATOM     21  C   UNL     1       2.136   7.944  19.058  0.00  0.00    +0.000 A 
ATOM     22  C   UNL     1       1.628   8.025  20.360  0.00  0.00    +0.000 A 
ATOM     23  C   UNL     1       0.772   9.073  20.736  0.00  0.00    +0.000 A 
ATOM     24  C   UNL     1       0.424  10.050  19.796  0.00  0.00    +0.000 A 
ATOM     25  C   UNL     1       0.967   9.984  18.504  0.00  0.00    +0.000 A 
ATOM     26  C   UNL     1       1.799   8.930  18.129  0.00  0.00    +0.000 A 
BRANCH  21  28
ATOM     27  C   UNL     1       2.775   5.720  19.607  0.00  0.00    +0.000 C 
ATOM     28  O   UNL     1       2.981   6.890  18.824  0.00  0.00    +0.000 OA
ENDBRANCH  21  28
ENDBRANCH   1  24
TORSDOF 2
ENDMDL
MODEL 7
REMARK VINA RESULT:      -6.5      3.530      6.744
REMARK  Name = 
REMARK  4 active torsions:
REMARK  status: ('A' for Active; 'I' for Inactive)
REMARK    1  A    between atoms: C_1  and  O_2
REMARK    2  A    between atoms: O_2  and  C_3
REMARK    3  A    between atoms: C_6  and  C_7
REMARK    4  A    between atoms: N_23  and  C_24
REMARK                            x       y       z     vdW  Elec       q    Type
REMARK                         _______ _______ _______ _____ _____    ______ ____
ROOT
ATOM      1  C   UNL     1      -2.369  12.607  18.960  0.00  0.00    +0.000 C 
ATOM      2  N   UNL     1      -1.614  13.437  19.621  0.00  0.00    +0.000 NA
ATOM      3  N   UNL     1      -0.329  13.301  19.081  0.00  0.00    +0.000 N 
ATOM      4  C   UNL     1      -0.271  12.104  18.213  0.00  0.00    +0.000 C 
ATOM      5  C   UNL     1      -1.707  12.011  17.754  0.00  0.00    +0.000 C 
ATOM      6  C   UNL     1       0.206  10.883  18.970  0.00  0.00    +0.000 A 
ATOM      7  C   UNL     1       0.889   9.854  18.312  0.00  0.00    +0.000 A 
ATOM      8  C   UNL     1       1.454   8.823  19.060  0.00  0.00    +0.000 A 
ATOM      9 BR   UNL     1       2.726   7.681  18.251  0.00  0.00    +0.000 Br
ATOM     10  C   UNL     1       1.203   8.717  20.430  0.00  0.00    +0.000 A 
ATOM     11  C   UNL     1       0.600   9.779  21.104  0.00  0.00    +0.000 A 
ATOM     12  C   UNL     1       0.277  10.918  20.378  0.00  0.00    +0.000 A 
ATOM     13  O   UNL     1       0.403  12.148  21.040  0.00  0.00    +0.000 OA
ATOM     14  C   UNL     1       0.785  13.183  20.078  0.00  0.00    +0.000 C 
ATOM     15  C   UNL     1       2.205  12.840  19.513  0.00  0.00    +0.000 C 
ATOM     16  C   UNL     1       2.494  13.721  18.318  0.00  0.00    +0.000 C 
ATOM     17  N   UNL     1       2.734  15.081  18.745  0.00  0.00    +0.000 NA
ATOM     18  C   UNL     1       4.133  15.250  19.099  0.00  0.00    +0.000 C 
ATOM     19  C   UNL     1       1.733  15.567  19.726  0.00  0.00    +0.000 C 
ATOM     20  C   UNL     1       1.070  14.562  20.728  0.00  0.00    +0.000 C 
ENDROOT
BRANCH   1  24
ATOM     21  C   UNL     1      -6.385  11.600  20.032  0.00  0.00    +0.000 A 
ATOM     22  C   UNL     1      -5.795  11.016  18.904  0.00  0.00    +0.000 A 
ATOM     23  C   UNL     1      -4.472  11.318  18.546  0.00  0.00    +0.000 A 
ATOM     24  C   UNL     1      -3.733  12.217  19.325  0.00  0.00    +0.000 A 
ATOM     25  C   UNL     1      -4.343  12.827  20.431  0.00  0.00    +0.000 A 
ATOM     26  C   UNL     1      -5.650  12.508  20.796  0.00  0.00    +0.000 A 
BRANCH  21  28
ATOM     27  C   UNL     1      -7.917   9.930  20.755  0.00  0.00    +0.000 C 
ATOM     28  O   UNL     1      -7.689  11.245  20.260  0.00  0.00    +0.000 OA
ENDBRANCH  21  28
ENDBRANCH   1  24
TORSDOF 2
ENDMDL
MODEL 8
REMARK VINA RESULT:      -6.4      2.610      4.120
REMARK  Name = 
REMARK  4 active torsions:
REMARK  status: ('A' for Active; 'I' for Inactive)
REMARK    1  A    between atoms: C_1  and  O_2
REMARK    2  A    between atoms: O_2  and  C_3
REMARK    3  A    between atoms: C_6  and  C_7
REMARK    4  A    between atoms: N_23  and  C_24
REMARK                            x       y       z     vdW  Elec       q    Type
REMARK                         _______ _______ _______ _____ _____    ______ ____
ROOT
ATOM      1  C   UNL     1       0.942  10.368  20.193  0.00  0.00    +0.000 C 
ATOM      2  N   UNL     1       1.419  11.490  19.737  0.00  0.00    +0.000 NA
ATOM      3  N   UNL     1       0.514  12.483  20.133  0.00  0.00    +0.000 N 
ATOM      4  C   UNL     1      -0.730  11.859  20.634  0.00  0.00    +0.000 C 
ATOM      5  C   UNL     1      -0.205  10.537  21.144  0.00  0.00    +0.000 C 
ATOM      6  C   UNL     1      -1.770  11.720  19.543  0.00  0.00    +0.000 A 
ATOM      7  C   UNL     1      -3.135  11.737  19.849  0.00  0.00    +0.000 A 
ATOM      8  C   UNL     1      -4.065  11.768  18.811  0.00  0.00    +0.000 A 
ATOM      9 BR   UNL     1      -5.861  12.222  19.192  0.00  0.00    +0.000 Br
ATOM     10  C   UNL     1      -3.658  11.615  17.484  0.00  0.00    +0.000 A 
ATOM     11  C   UNL     1      -2.301  11.686  17.167  0.00  0.00    +0.000 A 
ATOM     12  C   UNL     1      -1.399  11.918  18.197  0.00  0.00    +0.000 A 
ATOM     13  O   UNL     1      -0.276  12.700  17.890  0.00  0.00    +0.000 OA
ATOM     14  C   UNL     1       0.122  13.466  19.072  0.00  0.00    +0.000 C 
ATOM     15  C   UNL     1      -1.027  14.469  19.427  0.00  0.00    +0.000 C 
ATOM     16  C   UNL     1      -0.771  15.059  20.796  0.00  0.00    +0.000 C 
ATOM     17  N   UNL     1       0.339  15.984  20.743  0.00  0.00    +0.000 NA
ATOM     18  C   UNL     1      -0.134  17.303  20.358  0.00  0.00    +0.000 C 
ATOM     19  C   UNL     1       1.506  15.449  20.000  0.00  0.00    +0.000 C 
ATOM     20  C   UNL     1       1.285  14.459  18.807  0.00  0.00    +0.000 C 
ENDROOT
BRANCH   1  24
ATOM     21  C   UNL     1       2.418   6.513  19.071  0.00  0.00    +0.000 A 
ATOM     22  C   UNL     1       1.949   6.732  20.373  0.00  0.00    +0.000 A 
ATOM     23  C   UNL     1       1.443   7.983  20.756  0.00  0.00    +0.000 A 
ATOM     24  C   UNL     1       1.408   9.028  19.825  0.00  0.00    +0.000 A 
ATOM     25  C   UNL     1       1.914   8.815  18.535  0.00  0.00    +0.000 A 
ATOM     26  C   UNL     1       2.396   7.563  18.151  0.00  0.00    +0.000 A 
BRANCH  21  28
ATOM     27  C   UNL     1       4.229   4.989  19.293  0.00  0.00    +0.000 C 
ATOM     28  O   UNL     1       2.911   5.258  18.829  0.00  0.00    +0.000 OA
ENDBRANCH  21  28
ENDBRANCH   1  24
TORSDOF 2
ENDMDL
MODEL 9
REMARK VINA RESULT:      -6.4      2.680      4.012
REMARK  Name = 
REMARK  4 active torsions:
REMARK  status: ('A' for Active; 'I' for Inactive)
REMARK    1  A    between atoms: C_1  and  O_2
REMARK    2  A    between atoms: O_2  and  C_3
REMARK    3  A    between atoms: C_6  and  C_7
REMARK    4  A    between atoms: N_23  and  C_24
REMARK                            x       y       z     vdW  Elec       q    Type
REMARK                         _______ _______ _______ _____ _____    ______ ____
ROOT
ATOM      1  C   UNL     1       0.873  10.378  20.219  0.00  0.00    +0.000 C 
ATOM      2  N   UNL     1       1.331  11.536  19.835  0.00  0.00    +0.000 NA
ATOM      3  N   UNL     1       0.369  12.477  20.221  0.00  0.00    +0.000 N 
ATOM      4  C   UNL     1      -0.876  11.789  20.628  0.00  0.00    +0.000 C 
ATOM      5  C   UNL     1      -0.328  10.466  21.112  0.00  0.00    +0.000 C 
ATOM      6  C   UNL     1      -1.850  11.659  19.477  0.00  0.00    +0.000 A 
ATOM      7  C   UNL     1      -3.229  11.613  19.708  0.00  0.00    +0.000 A 
ATOM      8  C   UNL     1      -4.103  11.655  18.624  0.00  0.00    +0.000 A 
ATOM      9 BR   UNL     1      -5.933  12.028  18.924  0.00  0.00    +0.000 Br
ATOM     10  C   UNL     1      -3.621  11.572  17.316  0.00  0.00    +0.000 A 
ATOM     11  C   UNL     1      -2.253  11.705  17.076  0.00  0.00    +0.000 A 
ATOM     12  C   UNL     1      -1.416  11.926  18.162  0.00  0.00    +0.000 A 
ATOM     13  O   UNL     1      -0.309  12.760  17.948  0.00  0.00    +0.000 OA
ATOM     14  C   UNL     1      -0.003  13.490  19.180  0.00  0.00    +0.000 C 
ATOM     15  C   UNL     1      -1.207  14.435  19.512  0.00  0.00    +0.000 C 
ATOM     16  C   UNL     1      -1.047  14.976  20.915  0.00  0.00    +0.000 C 
ATOM     17  N   UNL     1       0.029  15.941  20.959  0.00  0.00    +0.000 NA
ATOM     18  C   UNL     1      -0.473  17.258  20.602  0.00  0.00    +0.000 C 
ATOM     19  C   UNL     1       1.253  15.480  20.261  0.00  0.00    +0.000 C 
ATOM     20  C   UNL     1       1.133  14.534  19.018  0.00  0.00    +0.000 C 
ENDROOT
BRANCH   1  24
ATOM     21  C   UNL     1       2.325   6.509  19.118  0.00  0.00    +0.000 A 
ATOM     22  C   UNL     1       2.281   7.537  18.168  0.00  0.00    +0.000 A 
ATOM     23  C   UNL     1       1.826   8.819  18.513  0.00  0.00    +0.000 A 
ATOM     24  C   UNL     1       1.409   9.073  19.824  0.00  0.00    +0.000 A 
ATOM     25  C   UNL     1       1.420   8.030  20.762  0.00  0.00    +0.000 A 
ATOM     26  C   UNL     1       1.893   6.764  20.421  0.00  0.00    +0.000 A 
BRANCH  21  28
ATOM     27  C   UNL     1       1.835   4.532  17.891  0.00  0.00    +0.000 C 
ATOM     28  O   UNL     1       2.764   5.297  18.651  0.00  0.00    +0.000 OA
ENDBRANCH  21  28
ENDBRANCH   1  24
TORSDOF 2
ENDMDL
