MODEL 1
REMARK VINA RESULT:      -7.6      0.000      0.000
REMARK  Name = 
REMARK  6 active torsions:
REMARK  status: ('A' for Active; 'I' for Inactive)
REMARK    1  A    between atoms: C_1  and  C_2
REMARK    2  A    between atoms: C_5  and  S_6
REMARK    3  A    between atoms: S_6  and  N_9
REMARK    4  A    between atoms: C_13  and  C_15
REMARK    5  A    between atoms: C_15  and  O_16
REMARK    6  A    between atoms: O_16  and  C_17
REMARK                            x       y       z     vdW  Elec       q    Type
REMARK                         _______ _______ _______ _____ _____    ______ ____
ROOT
ATOM      1  N   UNL     1       5.691   5.998  17.866  0.00  0.00    +0.000 NA
ATOM      2  C   UNL     1       5.132   7.285  17.407  0.00  0.00    +0.000 C 
ATOM      3  C   UNL     1       3.627   7.069  17.307  0.00  0.00    +0.000 C 
ATOM      4  N   UNL     1       3.098   6.841  18.654  0.00  0.00    +0.000 N 
ATOM      5  C   UNL     1       2.095   7.691  19.089  0.00  0.00    +0.000 C 
ATOM      6  O   UNL     1       1.704   8.635  18.392  0.00  0.00    +0.000 OA
ATOM      7  C   UNL     1       3.716   5.697  19.370  0.00  0.00    +0.000 C 
ATOM      8  C   UNL     1       5.277   5.678  19.258  0.00  0.00    +0.000 C 
ENDROOT
BRANCH   1   9
ATOM      9  S   UNL     1       7.157   5.507  17.220  0.00  0.00    +0.000 S 
ATOM     10  O   UNL     1       7.691   4.461  18.064  0.00  0.00    +0.000 OA
ATOM     11  O   UNL     1       7.932   6.699  16.936  0.00  0.00    +0.000 OA
BRANCH   9  16
ATOM     12  C   UNL     1       5.357   3.216  11.895  0.00  0.00    +0.000 C 
ATOM     13  C   UNL     1       5.844   3.744  13.213  0.00  0.00    +0.000 A 
ATOM     14  C   UNL     1       5.068   3.575  14.366  0.00  0.00    +0.000 A 
ATOM     15  C   UNL     1       5.493   4.085  15.587  0.00  0.00    +0.000 A 
ATOM     16  C   UNL     1       6.713   4.765  15.668  0.00  0.00    +0.000 A 
ATOM     17  C   UNL     1       7.494   4.957  14.524  0.00  0.00    +0.000 A 
ATOM     18  C   UNL     1       7.061   4.438  13.300  0.00  0.00    +0.000 A 
ENDBRANCH   9  16
ENDBRANCH   1   9
BRANCH   5  19
ATOM     19  C   UNL     1       1.472   7.482  20.455  0.00  0.00    +0.000 C 
BRANCH  19  20
ATOM     20  O   UNL     1       1.849   8.572  21.285  0.00  0.00    +0.000 OA
BRANCH  20  21
ATOM     21  C   UNL     1       0.863   9.461  21.601  0.00  0.00    +0.000 A 
ATOM     22  C   UNL     1       0.416  10.503  20.780  0.00  0.00    +0.000 A 
ATOM     23  C   UNL     1      -0.583  11.372  21.229  0.00  0.00    +0.000 A 
ATOM     24  C   UNL     1      -1.133  11.201  22.496  0.00  0.00    +0.000 A 
ATOM     25 BR   UNL     1      -2.469  12.390  23.102  0.00  0.00    +0.000 Br
ATOM     26  C   UNL     1      -0.703  10.163  23.316  0.00  0.00    +0.000 A 
ATOM     27  C   UNL     1       0.293   9.294  22.864  0.00  0.00    +0.000 A 
ENDBRANCH  20  21
ENDBRANCH  19  20
ENDBRANCH   5  19
TORSDOF 5
ENDMDL
MODEL 2
REMARK VINA RESULT:      -7.5      4.220      8.931
REMARK  Name = 
REMARK  6 active torsions:
REMARK  status: ('A' for Active; 'I' for Inactive)
REMARK    1  A    between atoms: C_1  and  C_2
REMARK    2  A    between atoms: C_5  and  S_6
REMARK    3  A    between atoms: S_6  and  N_9
REMARK    4  A    between atoms: C_13  and  C_15
REMARK    5  A    between atoms: C_15  and  O_16
REMARK    6  A    between atoms: O_16  and  C_17
REMARK                            x       y       z     vdW  Elec       q    Type
REMARK                         _______ _______ _______ _____ _____    ______ ____
ROOT
ATOM      1  N   UNL     1       1.519   8.969  19.416  0.00  0.00    +0.000 NA
ATOM      2  C   UNL     1       1.698   8.393  20.765  0.00  0.00    +0.000 C 
ATOM      3  C   UNL     1       1.097   6.994  20.698  0.00  0.00    +0.000 C 
ATOM      4  N   UNL     1       1.908   6.182  19.786  0.00  0.00    +0.000 N 
ATOM      5  C   UNL     1       2.443   5.011  20.295  0.00  0.00    +0.000 C 
ATOM      6  O   UNL     1       2.291   4.695  21.481  0.00  0.00    +0.000 OA
ATOM      7  C   UNL     1       2.027   6.735  18.414  0.00  0.00    +0.000 C 
ATOM      8  C   UNL     1       2.347   8.267  18.399  0.00  0.00    +0.000 C 
ENDROOT
BRANCH   1   9
ATOM      9  S   UNL     1       1.133  10.596  19.306  0.00  0.00    +0.000 S 
ATOM     10  O   UNL     1       1.972  11.188  18.287  0.00  0.00    +0.000 OA
ATOM     11  O   UNL     1       1.109  11.133  20.652  0.00  0.00    +0.000 OA
BRANCH   9  16
ATOM     12  C   UNL     1      -4.497  10.942  17.064  0.00  0.00    +0.000 C 
ATOM     13  C   UNL     1      -3.117  10.805  17.637  0.00  0.00    +0.000 A 
ATOM     14  C   UNL     1      -2.726  11.601  18.721  0.00  0.00    +0.000 A 
ATOM     15  C   UNL     1      -1.442  11.505  19.243  0.00  0.00    +0.000 A 
ATOM     16  C   UNL     1      -0.533  10.597  18.689  0.00  0.00    +0.000 A 
ATOM     17  C   UNL     1      -0.901   9.805  17.596  0.00  0.00    +0.000 A 
ATOM     18  C   UNL     1      -2.196   9.905  17.078  0.00  0.00    +0.000 A 
ENDBRANCH   9  16
ENDBRANCH   1   9
BRANCH   5  19
ATOM     19  C   UNL     1       3.254   4.101  19.393  0.00  0.00    +0.000 C 
BRANCH  19  20
ATOM     20  O   UNL     1       4.607   4.532  19.430  0.00  0.00    +0.000 OA
BRANCH  20  21
ATOM     21  C   UNL     1       5.263   4.566  18.233  0.00  0.00    +0.000 A 
ATOM     22  C   UNL     1       6.604   4.925  18.053  0.00  0.00    +0.000 A 
ATOM     23  C   UNL     1       7.158   4.953  16.769  0.00  0.00    +0.000 A 
ATOM     24  C   UNL     1       6.373   4.624  15.668  0.00  0.00    +0.000 A 
ATOM     25 BR   UNL     1       7.123   4.681  13.936  0.00  0.00    +0.000 Br
ATOM     26  C   UNL     1       5.042   4.256  15.837  0.00  0.00    +0.000 A 
ATOM     27  C   UNL     1       4.492   4.227  17.121  0.00  0.00    +0.000 A 
ENDBRANCH  20  21
ENDBRANCH  19  20
ENDBRANCH   5  19
TORSDOF 5
ENDMDL
MODEL 3
REMARK VINA RESULT:      -7.3      1.571      2.122
REMARK  Name = 
REMARK  6 active torsions:
REMARK  status: ('A' for Active; 'I' for Inactive)
REMARK    1  A    between atoms: C_1  and  C_2
REMARK    2  A    between atoms: C_5  and  S_6
REMARK    3  A    between atoms: S_6  and  N_9
REMARK    4  A    between atoms: C_13  and  C_15
REMARK    5  A    between atoms: C_15  and  O_16
REMARK    6  A    between atoms: O_16  and  C_17
REMARK                            x       y       z     vdW  Elec       q    Type
REMARK                         _______ _______ _______ _____ _____    ______ ____
ROOT
ATOM      1  N   UNL     1       4.158   5.622  18.698  0.00  0.00    +0.000 NA
ATOM      2  C   UNL     1       4.434   6.909  18.027  0.00  0.00    +0.000 C 
ATOM      3  C   UNL     1       3.081   7.421  17.547  0.00  0.00    +0.000 C 
ATOM      4  N   UNL     1       2.256   7.728  18.717  0.00  0.00    +0.000 N 
ATOM      5  C   UNL     1       1.760   9.017  18.816  0.00  0.00    +0.000 C 
ATOM      6  O   UNL     1       2.049   9.884  17.983  0.00  0.00    +0.000 OA
ATOM      7  C   UNL     1       2.052   6.584  19.641  0.00  0.00    +0.000 C 
ATOM      8  C   UNL     1       3.374   5.804  19.949  0.00  0.00    +0.000 C 
ENDROOT
BRANCH   1   9
ATOM      9  S   UNL     1       5.267   4.382  18.496  0.00  0.00    +0.000 S 
ATOM     10  O   UNL     1       4.570   3.126  18.662  0.00  0.00    +0.000 OA
ATOM     11  O   UNL     1       6.430   4.697  19.302  0.00  0.00    +0.000 OA
BRANCH   9  16
ATOM     12  C   UNL     1       7.101   4.512  12.711  0.00  0.00    +0.000 C 
ATOM     13  C   UNL     1       6.615   4.525  14.131  0.00  0.00    +0.000 A 
ATOM     14  C   UNL     1       7.493   4.856  15.170  0.00  0.00    +0.000 A 
ATOM     15  C   UNL     1       7.064   4.843  16.491  0.00  0.00    +0.000 A 
ATOM     16  C   UNL     1       5.739   4.507  16.788  0.00  0.00    +0.000 A 
ATOM     17  C   UNL     1       4.851   4.158  15.764  0.00  0.00    +0.000 A 
ATOM     18  C   UNL     1       5.290   4.176  14.437  0.00  0.00    +0.000 A 
ENDBRANCH   9  16
ENDBRANCH   1   9
BRANCH   5  19
ATOM     19  C   UNL     1       0.861   9.390  19.979  0.00  0.00    +0.000 C 
BRANCH  19  20
ATOM     20  O   UNL     1       0.506  10.759  19.842  0.00  0.00    +0.000 OA
BRANCH  20  21
ATOM     21  C   UNL     1      -0.459  11.220  20.690  0.00  0.00    +0.000 A 
ATOM     22  C   UNL     1      -1.459  12.141  20.357  0.00  0.00    +0.000 A 
ATOM     23  C   UNL     1      -2.376  12.564  21.325  0.00  0.00    +0.000 A 
ATOM     24  C   UNL     1      -2.292  12.069  22.623  0.00  0.00    +0.000 A 
ATOM     25 BR   UNL     1      -3.522  12.658  23.928  0.00  0.00    +0.000 Br
ATOM     26  C   UNL     1      -1.308  11.146  22.962  0.00  0.00    +0.000 A 
ATOM     27  C   UNL     1      -0.395  10.724  21.993  0.00  0.00    +0.000 A 
ENDBRANCH  20  21
ENDBRANCH  19  20
ENDBRANCH   5  19
TORSDOF 5
ENDMDL
MODEL 4
REMARK VINA RESULT:      -7.3      3.186      4.408
REMARK  Name = 
REMARK  6 active torsions:
REMARK  status: ('A' for Active; 'I' for Inactive)
REMARK    1  A    between atoms: C_1  and  C_2
REMARK    2  A    between atoms: C_5  and  S_6
REMARK    3  A    between atoms: S_6  and  N_9
REMARK    4  A    between atoms: C_13  and  C_15
REMARK    5  A    between atoms: C_15  and  O_16
REMARK    6  A    between atoms: O_16  and  C_17
REMARK                            x       y       z     vdW  Elec       q    Type
REMARK                         _______ _______ _______ _____ _____    ______ ____
ROOT
ATOM      1  N   UNL     1       2.416   5.764  19.367  0.00  0.00    +0.000 NA
ATOM      2  C   UNL     1       1.400   6.073  20.394  0.00  0.00    +0.000 C 
ATOM      3  C   UNL     1       1.753   7.459  20.919  0.00  0.00    +0.000 C 
ATOM      4  N   UNL     1       1.564   8.430  19.839  0.00  0.00    +0.000 N 
ATOM      5  C   UNL     1       0.699   9.483  20.084  0.00  0.00    +0.000 C 
ATOM      6  O   UNL     1       0.072   9.567  21.147  0.00  0.00    +0.000 OA
ATOM      7  C   UNL     1       2.356   8.148  18.616  0.00  0.00    +0.000 C 
ATOM      8  C   UNL     1       2.289   6.647  18.177  0.00  0.00    +0.000 C 
ENDROOT
BRANCH   1   9
ATOM      9  S   UNL     1       2.977   4.188  19.271  0.00  0.00    +0.000 S 
ATOM     10  O   UNL     1       1.936   3.377  18.680  0.00  0.00    +0.000 OA
ATOM     11  O   UNL     1       3.543   3.844  20.561  0.00  0.00    +0.000 OA
BRANCH   9  16
ATOM     12  C   UNL     1       7.337   4.768  15.088  0.00  0.00    +0.000 C 
ATOM     13  C   UNL     1       6.290   4.585  16.147  0.00  0.00    +0.000 A 
ATOM     14  C   UNL     1       5.049   4.025  15.818  0.00  0.00    +0.000 A 
ATOM     15  C   UNL     1       4.061   3.877  16.783  0.00  0.00    +0.000 A 
ATOM     16  C   UNL     1       4.309   4.280  18.099  0.00  0.00    +0.000 A 
ATOM     17  C   UNL     1       5.537   4.856  18.443  0.00  0.00    +0.000 A 
ATOM     18  C   UNL     1       6.528   4.999  17.467  0.00  0.00    +0.000 A 
ENDBRANCH   9  16
ENDBRANCH   1   9
BRANCH   5  19
ATOM     19  C   UNL     1       0.493  10.549  19.026  0.00  0.00    +0.000 C 
BRANCH  19  20
ATOM     20  O   UNL     1      -0.381  10.026  18.035  0.00  0.00    +0.000 OA
BRANCH  20  21
ATOM     21  C   UNL     1      -1.635  10.561  17.992  0.00  0.00    +0.000 A 
ATOM     22  C   UNL     1      -2.168  11.458  18.924  0.00  0.00    +0.000 A 
ATOM     23  C   UNL     1      -3.483  11.914  18.790  0.00  0.00    +0.000 A 
ATOM     24  C   UNL     1      -4.264  11.473  17.726  0.00  0.00    +0.000 A 
ATOM     25 BR   UNL     1      -6.045  12.080  17.560  0.00  0.00    +0.000 Br
ATOM     26  C   UNL     1      -3.742  10.589  16.787  0.00  0.00    +0.000 A 
ATOM     27  C   UNL     1      -2.427  10.137  16.923  0.00  0.00    +0.000 A 
ENDBRANCH  20  21
ENDBRANCH  19  20
ENDBRANCH   5  19
TORSDOF 5
ENDMDL
MODEL 5
REMARK VINA RESULT:      -7.2      2.638      3.503
REMARK  Name = 
REMARK  6 active torsions:
REMARK  status: ('A' for Active; 'I' for Inactive)
REMARK    1  A    between atoms: C_1  and  C_2
REMARK    2  A    between atoms: C_5  and  S_6
REMARK    3  A    between atoms: S_6  and  N_9
REMARK    4  A    between atoms: C_13  and  C_15
REMARK    5  A    between atoms: C_15  and  O_16
REMARK    6  A    between atoms: O_16  and  C_17
REMARK                            x       y       z     vdW  Elec       q    Type
REMARK                         _______ _______ _______ _____ _____    ______ ____
ROOT
ATOM      1  N   UNL     1       3.564   5.254  18.566  0.00  0.00    +0.000 NA
ATOM      2  C   UNL     1       2.495   5.296  19.585  0.00  0.00    +0.000 C 
ATOM      3  C   UNL     1       2.644   6.643  20.283  0.00  0.00    +0.000 C 
ATOM      4  N   UNL     1       2.344   7.704  19.318  0.00  0.00    +0.000 N 
ATOM      5  C   UNL     1       1.337   8.593  19.655  0.00  0.00    +0.000 C 
ATOM      6  O   UNL     1       0.684   8.463  20.697  0.00  0.00    +0.000 OA
ATOM      7  C   UNL     1       3.190   7.682  18.099  0.00  0.00    +0.000 C 
ATOM      8  C   UNL     1       3.339   6.251  17.485  0.00  0.00    +0.000 C 
ENDROOT
BRANCH   1   9
ATOM      9  S   UNL     1       4.338   3.791  18.305  0.00  0.00    +0.000 S 
ATOM     10  O   UNL     1       3.344   2.824  17.896  0.00  0.00    +0.000 OA
ATOM     11  O   UNL     1       5.194   3.538  19.448  0.00  0.00    +0.000 OA
BRANCH   9  16
ATOM     12  C   UNL     1       7.672   5.140  13.415  0.00  0.00    +0.000 C 
ATOM     13  C   UNL     1       6.885   4.766  14.637  0.00  0.00    +0.000 A 
ATOM     14  C   UNL     1       5.620   4.180  14.504  0.00  0.00    +0.000 A 
ATOM     15  C   UNL     1       4.868   3.855  15.627  0.00  0.00    +0.000 A 
ATOM     16  C   UNL     1       5.383   4.106  16.903  0.00  0.00    +0.000 A 
ATOM     17  C   UNL     1       6.637   4.706  17.056  0.00  0.00    +0.000 A 
ATOM     18  C   UNL     1       7.390   5.027  15.921  0.00  0.00    +0.000 A 
ENDBRANCH   9  16
ENDBRANCH   1   9
BRANCH   5  19
ATOM     19  C   UNL     1       1.006   9.743  18.722  0.00  0.00    +0.000 C 
BRANCH  19  20
ATOM     20  O   UNL     1       0.302  10.727  19.466  0.00  0.00    +0.000 OA
BRANCH  20  21
ATOM     21  C   UNL     1      -0.969  11.002  19.052  0.00  0.00    +0.000 A 
ATOM     22  C   UNL     1      -1.859  11.874  19.691  0.00  0.00    +0.000 A 
ATOM     23  C   UNL     1      -3.153  12.051  19.187  0.00  0.00    +0.000 A 
ATOM     24  C   UNL     1      -3.554  11.357  18.050  0.00  0.00    +0.000 A 
ATOM     25 BR   UNL     1      -5.307  11.587  17.386  0.00  0.00    +0.000 Br
ATOM     26  C   UNL     1      -2.674  10.496  17.402  0.00  0.00    +0.000 A 
ATOM     27  C   UNL     1      -1.383  10.323  17.906  0.00  0.00    +0.000 A 
ENDBRANCH  20  21
ENDBRANCH  19  20
ENDBRANCH   5  19
TORSDOF 5
ENDMDL
MODEL 6
REMARK VINA RESULT:      -7.2      3.324      4.409
REMARK  Name = 
REMARK  6 active torsions:
REMARK  status: ('A' for Active; 'I' for Inactive)
REMARK    1  A    between atoms: C_1  and  C_2
REMARK    2  A    between atoms: C_5  and  S_6
REMARK    3  A    between atoms: S_6  and  N_9
REMARK    4  A    between atoms: C_13  and  C_15
REMARK    5  A    between atoms: C_15  and  O_16
REMARK    6  A    between atoms: O_16  and  C_17
REMARK                            x       y       z     vdW  Elec       q    Type
REMARK                         _______ _______ _______ _____ _____    ______ ____
ROOT
ATOM      1  N   UNL     1       2.698   6.304  19.196  0.00  0.00    +0.000 NA
ATOM      2  C   UNL     1       1.685   6.520  20.249  0.00  0.00    +0.000 C 
ATOM      3  C   UNL     1       1.816   7.983  20.654  0.00  0.00    +0.000 C 
ATOM      4  N   UNL     1       1.421   8.819  19.517  0.00  0.00    +0.000 N 
ATOM      5  C   UNL     1       0.399   9.728  19.731  0.00  0.00    +0.000 C 
ATOM      6  O   UNL     1      -0.191   9.791  20.815  0.00  0.00    +0.000 OA
ATOM      7  C   UNL     1       2.202   8.577  18.278  0.00  0.00    +0.000 C 
ATOM      8  C   UNL     1       2.376   7.056  17.953  0.00  0.00    +0.000 C 
ENDROOT
BRANCH   1   9
ATOM      9  S   UNL     1       3.516   4.842  19.185  0.00  0.00    +0.000 S 
ATOM     10  O   UNL     1       2.540   3.784  19.048  0.00  0.00    +0.000 OA
ATOM     11  O   UNL     1       4.449   4.853  20.294  0.00  0.00    +0.000 OA
BRANCH   9  16
ATOM     12  C   UNL     1       7.038   4.911  14.242  0.00  0.00    +0.000 C 
ATOM     13  C   UNL     1       6.124   4.910  15.431  0.00  0.00    +0.000 A 
ATOM     14  C   UNL     1       6.288   5.864  16.444  0.00  0.00    +0.000 A 
ATOM     15  C   UNL     1       5.467   5.855  17.565  0.00  0.00    +0.000 A 
ATOM     16  C   UNL     1       4.459   4.893  17.680  0.00  0.00    +0.000 A 
ATOM     17  C   UNL     1       4.290   3.922  16.687  0.00  0.00    +0.000 A 
ATOM     18  C   UNL     1       5.118   3.939  15.560  0.00  0.00    +0.000 A 
ENDBRANCH   9  16
ENDBRANCH   1   9
BRANCH   5  19
ATOM     19  C   UNL     1      -0.027  10.657  18.610  0.00  0.00    +0.000 C 
BRANCH  19  20
ATOM     20  O   UNL     1      -0.893   9.937  17.744  0.00  0.00    +0.000 OA
BRANCH  20  21
ATOM     21  C   UNL     1      -2.131  10.475  17.542  0.00  0.00    +0.000 A 
ATOM     22  C   UNL     1      -2.864  10.399  16.352  0.00  0.00    +0.000 A 
ATOM     23  C   UNL     1      -4.114  11.021  16.255  0.00  0.00    +0.000 A 
ATOM     24  C   UNL     1      -4.627  11.718  17.345  0.00  0.00    +0.000 A 
ATOM     25 BR   UNL     1      -6.306  12.571  17.201  0.00  0.00    +0.000 Br
ATOM     26  C   UNL     1      -3.910  11.792  18.535  0.00  0.00    +0.000 A 
ATOM     27  C   UNL     1      -2.664  11.168  18.629  0.00  0.00    +0.000 A 
ENDBRANCH  20  21
ENDBRANCH  19  20
ENDBRANCH   5  19
TORSDOF 5
ENDMDL
MODEL 7
REMARK VINA RESULT:      -7.2      1.475      2.024
REMARK  Name = 
REMARK  6 active torsions:
REMARK  status: ('A' for Active; 'I' for Inactive)
REMARK    1  A    between atoms: C_1  and  C_2
REMARK    2  A    between atoms: C_5  and  S_6
REMARK    3  A    between atoms: S_6  and  N_9
REMARK    4  A    between atoms: C_13  and  C_15
REMARK    5  A    between atoms: C_15  and  O_16
REMARK    6  A    between atoms: O_16  and  C_17
REMARK                            x       y       z     vdW  Elec       q    Type
REMARK                         _______ _______ _______ _____ _____    ______ ____
ROOT
ATOM      1  N   UNL     1       4.494   5.687  18.714  0.00  0.00    +0.000 NA
ATOM      2  C   UNL     1       4.717   6.973  18.022  0.00  0.00    +0.000 C 
ATOM      3  C   UNL     1       3.375   7.347  17.404  0.00  0.00    +0.000 C 
ATOM      4  N   UNL     1       2.421   7.613  18.484  0.00  0.00    +0.000 N 
ATOM      5  C   UNL     1       1.809   8.855  18.489  0.00  0.00    +0.000 C 
ATOM      6  O   UNL     1       2.096   9.718  17.652  0.00  0.00    +0.000 OA
ATOM      7  C   UNL     1       2.234   6.484  19.428  0.00  0.00    +0.000 C 
ATOM      8  C   UNL     1       3.584   5.836  19.882  0.00  0.00    +0.000 C 
ENDROOT
BRANCH   1   9
ATOM      9  S   UNL     1       5.720   4.547  18.658  0.00  0.00    +0.000 S 
ATOM     10  O   UNL     1       5.192   3.296  19.156  0.00  0.00    +0.000 OA
ATOM     11  O   UNL     1       6.901   5.143  19.252  0.00  0.00    +0.000 OA
BRANCH   9  16
ATOM     12  C   UNL     1       6.519   4.095  12.658  0.00  0.00    +0.000 C 
ATOM     13  C   UNL     1       6.362   4.168  14.149  0.00  0.00    +0.000 A 
ATOM     14  C   UNL     1       5.187   3.705  14.753  0.00  0.00    +0.000 A 
ATOM     15  C   UNL     1       5.016   3.793  16.129  0.00  0.00    +0.000 A 
ATOM     16  C   UNL     1       6.031   4.339  16.921  0.00  0.00    +0.000 A 
ATOM     17  C   UNL     1       7.205   4.822  16.334  0.00  0.00    +0.000 A 
ATOM     18  C   UNL     1       7.371   4.727  14.949  0.00  0.00    +0.000 A 
ENDBRANCH   9  16
ENDBRANCH   1   9
BRANCH   5  19
ATOM     19  C   UNL     1       0.777   9.179  19.552  0.00  0.00    +0.000 C 
BRANCH  19  20
ATOM     20  O   UNL     1       0.316  10.505  19.331  0.00  0.00    +0.000 OA
BRANCH  20  21
ATOM     21  C   UNL     1      -0.444  11.054  20.323  0.00  0.00    +0.000 A 
ATOM     22  C   UNL     1      -0.341  10.752  21.686  0.00  0.00    +0.000 A 
ATOM     23  C   UNL     1      -1.200  11.359  22.608  0.00  0.00    +0.000 A 
ATOM     24  C   UNL     1      -2.160  12.265  22.167  0.00  0.00    +0.000 A 
ATOM     25 BR   UNL     1      -3.329  13.067  23.415  0.00  0.00    +0.000 Br
ATOM     26  C   UNL     1      -2.265  12.579  20.816  0.00  0.00    +0.000 A 
ATOM     27  C   UNL     1      -1.403  11.973  19.898  0.00  0.00    +0.000 A 
ENDBRANCH  20  21
ENDBRANCH  19  20
ENDBRANCH   5  19
TORSDOF 5
ENDMDL
MODEL 8
REMARK VINA RESULT:      -7.1      3.345      4.467
REMARK  Name = 
REMARK  6 active torsions:
REMARK  status: ('A' for Active; 'I' for Inactive)
REMARK    1  A    between atoms: C_1  and  C_2
REMARK    2  A    between atoms: C_5  and  S_6
REMARK    3  A    between atoms: S_6  and  N_9
REMARK    4  A    between atoms: C_13  and  C_15
REMARK    5  A    between atoms: C_15  and  O_16
REMARK    6  A    between atoms: O_16  and  C_17
REMARK                            x       y       z     vdW  Elec       q    Type
REMARK                         _______ _______ _______ _____ _____    ______ ____
ROOT
ATOM      1  N   UNL     1       2.452   5.345  19.369  0.00  0.00    +0.000 NA
ATOM      2  C   UNL     1       1.495   5.524  20.480  0.00  0.00    +0.000 C 
ATOM      3  C   UNL     1       1.920   6.805  21.188  0.00  0.00    +0.000 C 
ATOM      4  N   UNL     1       1.716   7.933  20.275  0.00  0.00    +0.000 N 
ATOM      5  C   UNL     1       0.900   8.960  20.717  0.00  0.00    +0.000 C 
ATOM      6  O   UNL     1       0.326   8.901  21.810  0.00  0.00    +0.000 OA
ATOM      7  C   UNL     1       2.442   7.816  18.985  0.00  0.00    +0.000 C 
ATOM      8  C   UNL     1       2.302   6.401  18.332  0.00  0.00    +0.000 C 
ENDROOT
BRANCH   1   9
ATOM      9  S   UNL     1       2.953   3.787  19.012  0.00  0.00    +0.000 S 
ATOM     10  O   UNL     1       1.901   3.139  18.260  0.00  0.00    +0.000 OA
ATOM     11  O   UNL     1       3.461   3.198  20.236  0.00  0.00    +0.000 OA
BRANCH   9  16
ATOM     12  C   UNL     1       7.472   4.892  15.113  0.00  0.00    +0.000 C 
ATOM     13  C   UNL     1       6.384   4.574  16.096  0.00  0.00    +0.000 A 
ATOM     14  C   UNL     1       5.134   4.135  15.641  0.00  0.00    +0.000 A 
ATOM     15  C   UNL     1       4.108   3.865  16.538  0.00  0.00    +0.000 A 
ATOM     16  C   UNL     1       4.327   4.022  17.911  0.00  0.00    +0.000 A 
ATOM     17  C   UNL     1       5.563   4.476  18.383  0.00  0.00    +0.000 A 
ATOM     18  C   UNL     1       6.592   4.742  17.474  0.00  0.00    +0.000 A 
ENDBRANCH   9  16
ENDBRANCH   1   9
BRANCH   5  19
ATOM     19  C   UNL     1       0.683  10.179  19.841  0.00  0.00    +0.000 C 
BRANCH  19  20
ATOM     20  O   UNL     1      -0.669  10.590  19.982  0.00  0.00    +0.000 OA
BRANCH  20  21
ATOM     21  C   UNL     1      -1.408  10.642  18.836  0.00  0.00    +0.000 A 
ATOM     22  C   UNL     1      -2.517  11.469  18.621  0.00  0.00    +0.000 A 
ATOM     23  C   UNL     1      -3.215  11.409  17.411  0.00  0.00    +0.000 A 
ATOM     24  C   UNL     1      -2.807  10.523  16.419  0.00  0.00    +0.000 A 
ATOM     25 BR   UNL     1      -3.766  10.434  14.794  0.00  0.00    +0.000 Br
ATOM     26  C   UNL     1      -1.701   9.703  16.618  0.00  0.00    +0.000 A 
ATOM     27  C   UNL     1      -1.004   9.767  17.826  0.00  0.00    +0.000 A 
ENDBRANCH  20  21
ENDBRANCH  19  20
ENDBRANCH   5  19
TORSDOF 5
ENDMDL
MODEL 9
REMARK VINA RESULT:      -7.1      4.720     10.624
REMARK  Name = 
REMARK  6 active torsions:
REMARK  status: ('A' for Active; 'I' for Inactive)
REMARK    1  A    between atoms: C_1  and  C_2
REMARK    2  A    between atoms: C_5  and  S_6
REMARK    3  A    between atoms: S_6  and  N_9
REMARK    4  A    between atoms: C_13  and  C_15
REMARK    5  A    between atoms: C_15  and  O_16
REMARK    6  A    between atoms: O_16  and  C_17
REMARK                            x       y       z     vdW  Elec       q    Type
REMARK                         _______ _______ _______ _____ _____    ______ ____
ROOT
ATOM      1  N   UNL     1       0.119  11.775  20.947  0.00  0.00    +0.000 NA
ATOM      2  C   UNL     1       0.358  10.665  21.892  0.00  0.00    +0.000 C 
ATOM      3  C   UNL     1      -0.048   9.397  21.149  0.00  0.00    +0.000 C 
ATOM      4  N   UNL     1       0.874   9.198  20.028  0.00  0.00    +0.000 N 
ATOM      5  C   UNL     1       1.557   7.994  19.982  0.00  0.00    +0.000 C 
ATOM      6  O   UNL     1       1.435   7.150  20.877  0.00  0.00    +0.000 OA
ATOM      7  C   UNL     1       0.934  10.333  19.074  0.00  0.00    +0.000 C 
ATOM      8  C   UNL     1       1.045  11.723  19.784  0.00  0.00    +0.000 C 
ENDROOT
BRANCH   1   9
ATOM      9  S   UNL     1      -0.481  13.212  21.565  0.00  0.00    +0.000 S 
ATOM     10  O   UNL     1      -0.067  14.285  20.689  0.00  0.00    +0.000 OA
ATOM     11  O   UNL     1      -0.166  13.246  22.980  0.00  0.00    +0.000 OA
BRANCH   9  16
ATOM     12  C   UNL     1      -6.444  12.278  20.916  0.00  0.00    +0.000 C 
ATOM     13  C   UNL     1      -4.981  12.562  21.091  0.00  0.00    +0.000 A 
ATOM     14  C   UNL     1      -4.130  12.575  19.978  0.00  0.00    +0.000 A 
ATOM     15  C   UNL     1      -2.769  12.808  20.129  0.00  0.00    +0.000 A 
ATOM     16  C   UNL     1      -2.242  13.043  21.403  0.00  0.00    +0.000 A 
ATOM     17  C   UNL     1      -3.073  13.018  22.529  0.00  0.00    +0.000 A 
ATOM     18  C   UNL     1      -4.443  12.786  22.368  0.00  0.00    +0.000 A 
ENDBRANCH   9  16
ENDBRANCH   1   9
BRANCH   5  19
ATOM     19  C   UNL     1       2.492   7.704  18.825  0.00  0.00    +0.000 C 
BRANCH  19  20
ATOM     20  O   UNL     1       3.130   6.459  19.072  0.00  0.00    +0.000 OA
BRANCH  20  21
ATOM     21  C   UNL     1       3.776   5.889  18.014  0.00  0.00    +0.000 A 
ATOM     22  C   UNL     1       3.828   4.518  17.738  0.00  0.00    +0.000 A 
ATOM     23  C   UNL     1       4.551   4.049  16.636  0.00  0.00    +0.000 A 
ATOM     24  C   UNL     1       5.221   4.950  15.813  0.00  0.00    +0.000 A 
ATOM     25 BR   UNL     1       6.210   4.308  14.338  0.00  0.00    +0.000 Br
ATOM     26  C   UNL     1       5.168   6.315  16.073  0.00  0.00    +0.000 A 
ATOM     27  C   UNL     1       4.443   6.780  17.173  0.00  0.00    +0.000 A 
ENDBRANCH  20  21
ENDBRANCH  19  20
ENDBRANCH   5  19
TORSDOF 5
ENDMDL
