MODEL 1
REMARK VINA RESULT:      -6.9      0.000      0.000
REMARK  Name = 
REMARK  4 active torsions:
REMARK  status: ('A' for Active; 'I' for Inactive)
REMARK    1  A    between atoms: S_2  and  C_4
REMARK    2  A    between atoms: S_2  and  N_15
REMARK    3  A    between atoms: C_7  and  N_8
REMARK    4  A    between atoms: C_18  and  N_19
REMARK                            x       y       z     vdW  Elec       q    Type
REMARK                         _______ _______ _______ _____ _____    ______ ____
ROOT
ATOM      1  O   UNL     1      -6.364  14.122  22.753  0.00  0.00    +0.000 OA
ATOM      2  S   UNL     1      -5.564  14.228  21.553  0.00  0.00    +0.000 S 
ATOM      3  O   UNL     1      -5.158  15.518  21.038  0.00  0.00    +0.000 OA
ENDROOT
BRANCH   2   4
ATOM      4  C   UNL     1      -4.086  13.267  21.779  0.00  0.00    +0.000 A 
ATOM      5  C   UNL     1      -3.200  13.111  20.714  0.00  0.00    +0.000 A 
ATOM      6  C   UNL     1      -2.015  12.389  20.902  0.00  0.00    +0.000 A 
ATOM      7  C   UNL     1      -1.733  11.810  22.149  0.00  0.00    +0.000 A 
ATOM      8  C   UNL     1      -2.629  11.986  23.217  0.00  0.00    +0.000 A 
ATOM      9  C   UNL     1      -3.800  12.725  23.034  0.00  0.00    +0.000 A 
BRANCH   7  10
ATOM     10  N   UNL     1      -0.563  11.031  22.333  0.00  0.00    +0.000 N 
ATOM     11  C   UNL     1       0.484  10.820  21.474  0.00  0.00    +0.000 A 
ATOM     12  N   UNL     1       1.335   9.980  22.018  0.00  0.00    +0.000 NA
ATOM     13  N   UNL     1       0.816   9.673  23.247  0.00  0.00    +0.000 NA
ATOM     14  N   UNL     1      -0.330  10.308  23.454  0.00  0.00    +0.000 NA
ENDBRANCH   7  10
ENDBRANCH   2   4
BRANCH   2  15
ATOM     15  N   UNL     1      -6.406  13.377  20.291  0.00  0.00    +0.000 NA
ATOM     16  C   UNL     1      -6.153  13.980  18.949  0.00  0.00    +0.000 C 
ATOM     17  C   UNL     1      -6.642  13.126  17.795  0.00  0.00    +0.000 C 
ATOM     18  C   UNL     1      -6.155  11.668  17.837  0.00  0.00    +0.000 C 
ATOM     19  C   UNL     1      -6.603  11.097  19.191  0.00  0.00    +0.000 C 
ATOM     20  C   UNL     1      -6.157  11.904  20.405  0.00  0.00    +0.000 C 
BRANCH  18  21
ATOM     21  N   UNL     1      -4.749  11.369  17.448  0.00  0.00    +0.000 NA
ATOM     22  C   UNL     1      -4.226  10.171  18.120  0.00  0.00    +0.000 C 
ATOM     23  C   UNL     1      -2.761   9.877  17.783  0.00  0.00    +0.000 C 
ATOM     24  C   UNL     1      -2.574   9.752  16.279  0.00  0.00    +0.000 C 
ATOM     25  C   UNL     1      -3.008  11.048  15.629  0.00  0.00    +0.000 C 
ATOM     26  C   UNL     1      -4.435  11.420  16.019  0.00  0.00    +0.000 C 
ENDBRANCH  18  21
ENDBRANCH   2  15
TORSDOF 4
ENDMDL
MODEL 2
REMARK VINA RESULT:      -6.9      8.403     10.975
REMARK  Name = 
REMARK  4 active torsions:
REMARK  status: ('A' for Active; 'I' for Inactive)
REMARK    1  A    between atoms: S_2  and  C_4
REMARK    2  A    between atoms: S_2  and  N_15
REMARK    3  A    between atoms: C_7  and  N_8
REMARK    4  A    between atoms: C_18  and  N_19
REMARK                            x       y       z     vdW  Elec       q    Type
REMARK                         _______ _______ _______ _____ _____    ______ ____
ROOT
ATOM      1  O   UNL     1       3.174   4.380  19.959  0.00  0.00    +0.000 OA
ATOM      2  S   UNL     1       3.208   5.124  18.720  0.00  0.00    +0.000 S 
ATOM      3  O   UNL     1       2.626   4.587  17.510  0.00  0.00    +0.000 OA
ENDROOT
BRANCH   2   4
ATOM      4  C   UNL     1       2.458   6.711  19.000  0.00  0.00    +0.000 A 
ATOM      5  C   UNL     1       2.087   7.077  20.293  0.00  0.00    +0.000 A 
ATOM      6  C   UNL     1       1.533   8.343  20.521  0.00  0.00    +0.000 A 
ATOM      7  C   UNL     1       1.334   9.228  19.450  0.00  0.00    +0.000 A 
ATOM      8  C   UNL     1       1.723   8.851  18.154  0.00  0.00    +0.000 A 
ATOM      9  C   UNL     1       2.296   7.596  17.932  0.00  0.00    +0.000 A 
BRANCH   7  10
ATOM     10  N   UNL     1       0.724  10.489  19.662  0.00  0.00    +0.000 N 
ATOM     11  C   UNL     1      -0.019  11.251  18.800  0.00  0.00    +0.000 A 
ATOM     12  N   UNL     1      -0.344  12.383  19.382  0.00  0.00    +0.000 NA
ATOM     13  N   UNL     1       0.194  12.319  20.638  0.00  0.00    +0.000 NA
ATOM     14  N   UNL     1       0.839  11.174  20.825  0.00  0.00    +0.000 NA
ENDBRANCH   7  10
ENDBRANCH   2   4
BRANCH   2  15
ATOM     15  N   UNL     1       4.871   5.519  18.398  0.00  0.00    +0.000 NA
ATOM     16  C   UNL     1       5.656   4.320  17.978  0.00  0.00    +0.000 C 
ATOM     17  C   UNL     1       7.032   4.653  17.433  0.00  0.00    +0.000 C 
ATOM     18  C   UNL     1       7.031   5.718  16.324  0.00  0.00    +0.000 C 
ATOM     19  C   UNL     1       6.343   6.959  16.911  0.00  0.00    +0.000 C 
ATOM     20  C   UNL     1       4.954   6.707  17.488  0.00  0.00    +0.000 C 
BRANCH  18  21
ATOM     21  N   UNL     1       6.595   5.329  14.955  0.00  0.00    +0.000 NA
ATOM     22  C   UNL     1       7.724   5.212  14.020  0.00  0.00    +0.000 C 
ATOM     23  C   UNL     1       7.295   4.873  12.590  0.00  0.00    +0.000 C 
ATOM     24  C   UNL     1       6.469   3.596  12.569  0.00  0.00    +0.000 C 
ATOM     25  C   UNL     1       5.250   3.795  13.444  0.00  0.00    +0.000 C 
ATOM     26  C   UNL     1       5.639   4.225  14.856  0.00  0.00    +0.000 C 
ENDBRANCH  18  21
ENDBRANCH   2  15
TORSDOF 4
ENDMDL
MODEL 3
REMARK VINA RESULT:      -6.9      8.459     11.011
REMARK  Name = 
REMARK  4 active torsions:
REMARK  status: ('A' for Active; 'I' for Inactive)
REMARK    1  A    between atoms: S_2  and  C_4
REMARK    2  A    between atoms: S_2  and  N_15
REMARK    3  A    between atoms: C_7  and  N_8
REMARK    4  A    between atoms: C_18  and  N_19
REMARK                            x       y       z     vdW  Elec       q    Type
REMARK                         _______ _______ _______ _____ _____    ______ ____
ROOT
ATOM      1  O   UNL     1       3.309   4.403  19.991  0.00  0.00    +0.000 OA
ATOM      2  S   UNL     1       3.320   5.123  18.738  0.00  0.00    +0.000 S 
ATOM      3  O   UNL     1       2.724   4.557  17.547  0.00  0.00    +0.000 OA
ENDROOT
BRANCH   2   4
ATOM      4  C   UNL     1       2.561   6.709  18.998  0.00  0.00    +0.000 A 
ATOM      5  C   UNL     1       2.340   7.551  17.908  0.00  0.00    +0.000 A 
ATOM      6  C   UNL     1       1.706   8.784  18.105  0.00  0.00    +0.000 A 
ATOM      7  C   UNL     1       1.313   9.176  19.395  0.00  0.00    +0.000 A 
ATOM      8  C   UNL     1       1.530   8.312  20.481  0.00  0.00    +0.000 A 
ATOM      9  C   UNL     1       2.144   7.073  20.280  0.00  0.00    +0.000 A 
BRANCH   7  10
ATOM     10  N   UNL     1       0.720  10.444  19.611  0.00  0.00    +0.000 N 
ATOM     11  C   UNL     1      -0.389  10.771  20.347  0.00  0.00    +0.000 A 
ATOM     12  N   UNL     1      -0.629  12.057  20.233  0.00  0.00    +0.000 NA
ATOM     13  N   UNL     1       0.359  12.546  19.422  0.00  0.00    +0.000 NA
ATOM     14  N   UNL     1       1.188  11.581  19.043  0.00  0.00    +0.000 NA
ENDBRANCH   7  10
ENDBRANCH   2   4
BRANCH   2  15
ATOM     15  N   UNL     1       4.975   5.524  18.384  0.00  0.00    +0.000 NA
ATOM     16  C   UNL     1       5.758   4.326  17.957  0.00  0.00    +0.000 C 
ATOM     17  C   UNL     1       7.122   4.663  17.386  0.00  0.00    +0.000 C 
ATOM     18  C   UNL     1       7.097   5.721  16.271  0.00  0.00    +0.000 C 
ATOM     19  C   UNL     1       6.413   6.962  16.863  0.00  0.00    +0.000 C 
ATOM     20  C   UNL     1       5.036   6.707  17.466  0.00  0.00    +0.000 C 
BRANCH  18  21
ATOM     21  N   UNL     1       6.638   5.322  14.912  0.00  0.00    +0.000 NA
ATOM     22  C   UNL     1       7.750   5.215  13.956  0.00  0.00    +0.000 C 
ATOM     23  C   UNL     1       7.296   4.866  12.535  0.00  0.00    +0.000 C 
ATOM     24  C   UNL     1       6.485   3.580  12.535  0.00  0.00    +0.000 C 
ATOM     25  C   UNL     1       5.282   3.767  13.433  0.00  0.00    +0.000 C 
ATOM     26  C   UNL     1       5.693   4.207  14.835  0.00  0.00    +0.000 C 
ENDBRANCH  18  21
ENDBRANCH   2  15
TORSDOF 4
ENDMDL
MODEL 4
REMARK VINA RESULT:      -6.8      5.250      7.411
REMARK  Name = 
REMARK  4 active torsions:
REMARK  status: ('A' for Active; 'I' for Inactive)
REMARK    1  A    between atoms: S_2  and  C_4
REMARK    2  A    between atoms: S_2  and  N_15
REMARK    3  A    between atoms: C_7  and  N_8
REMARK    4  A    between atoms: C_18  and  N_19
REMARK                            x       y       z     vdW  Elec       q    Type
REMARK                         _______ _______ _______ _____ _____    ______ ____
ROOT
ATOM      1  O   UNL     1      -0.565   8.363  21.492  0.00  0.00    +0.000 OA
ATOM      2  S   UNL     1       0.656   9.082  21.207  0.00  0.00    +0.000 S 
ATOM      3  O   UNL     1       1.550   9.486  22.271  0.00  0.00    +0.000 OA
ENDROOT
BRANCH   2   4
ATOM      4  C   UNL     1       1.616   8.123  20.058  0.00  0.00    +0.000 A 
ATOM      5  C   UNL     1       1.984   8.685  18.836  0.00  0.00    +0.000 A 
ATOM      6  C   UNL     1       2.774   7.946  17.947  0.00  0.00    +0.000 A 
ATOM      7  C   UNL     1       3.175   6.641  18.277  0.00  0.00    +0.000 A 
ATOM      8  C   UNL     1       2.806   6.093  19.517  0.00  0.00    +0.000 A 
ATOM      9  C   UNL     1       2.036   6.840  20.412  0.00  0.00    +0.000 A 
BRANCH   7  10
ATOM     10  N   UNL     1       3.928   5.866  17.360  0.00  0.00    +0.000 N 
ATOM     11  C   UNL     1       3.972   4.505  17.204  0.00  0.00    +0.000 A 
ATOM     12  N   UNL     1       4.850   4.198  16.277  0.00  0.00    +0.000 NA
ATOM     13  N   UNL     1       5.353   5.392  15.835  0.00  0.00    +0.000 NA
ATOM     14  N   UNL     1       4.798   6.412  16.478  0.00  0.00    +0.000 NA
ENDBRANCH   7  10
ENDBRANCH   2   4
BRANCH   2  15
ATOM     15  N   UNL     1       0.226  10.495  20.289  0.00  0.00    +0.000 NA
ATOM     16  C   UNL     1      -0.982  10.260  19.442  0.00  0.00    +0.000 C 
ATOM     17  C   UNL     1      -1.552  11.526  18.831  0.00  0.00    +0.000 C 
ATOM     18  C   UNL     1      -1.807  12.656  19.842  0.00  0.00    +0.000 C 
ATOM     19  C   UNL     1      -0.468  12.924  20.545  0.00  0.00    +0.000 C 
ATOM     20  C   UNL     1       0.177  11.697  21.181  0.00  0.00    +0.000 C 
BRANCH  18  21
ATOM     21  N   UNL     1      -2.994  12.566  20.737  0.00  0.00    +0.000 NA
ATOM     22  C   UNL     1      -2.905  13.488  21.879  0.00  0.00    +0.000 C 
ATOM     23  C   UNL     1      -4.085  13.370  22.847  0.00  0.00    +0.000 C 
ATOM     24  C   UNL     1      -5.401  13.579  22.113  0.00  0.00    +0.000 C 
ATOM     25  C   UNL     1      -5.517  12.537  21.022  0.00  0.00    +0.000 C 
ATOM     26  C   UNL     1      -4.308  12.564  20.091  0.00  0.00    +0.000 C 
ENDBRANCH  18  21
ENDBRANCH   2  15
TORSDOF 4
ENDMDL
MODEL 5
REMARK VINA RESULT:      -6.8      5.245      7.464
REMARK  Name = 
REMARK  4 active torsions:
REMARK  status: ('A' for Active; 'I' for Inactive)
REMARK    1  A    between atoms: S_2  and  C_4
REMARK    2  A    between atoms: S_2  and  N_15
REMARK    3  A    between atoms: C_7  and  N_8
REMARK    4  A    between atoms: C_18  and  N_19
REMARK                            x       y       z     vdW  Elec       q    Type
REMARK                         _______ _______ _______ _____ _____    ______ ____
ROOT
ATOM      1  O   UNL     1      -0.551   8.440  21.476  0.00  0.00    +0.000 OA
ATOM      2  S   UNL     1       0.681   9.142  21.199  0.00  0.00    +0.000 S 
ATOM      3  O   UNL     1       1.560   9.560  22.270  0.00  0.00    +0.000 OA
ENDROOT
BRANCH   2   4
ATOM      4  C   UNL     1       1.651   8.151  20.086  0.00  0.00    +0.000 A 
ATOM      5  C   UNL     1       2.008   6.855  20.455  0.00  0.00    +0.000 A 
ATOM      6  C   UNL     1       2.738   6.059  19.563  0.00  0.00    +0.000 A 
ATOM      7  C   UNL     1       3.123   6.572  18.315  0.00  0.00    +0.000 A 
ATOM      8  C   UNL     1       2.746   7.876  17.951  0.00  0.00    +0.000 A 
ATOM      9  C   UNL     1       2.000   8.661  18.834  0.00  0.00    +0.000 A 
BRANCH   7  10
ATOM     10  N   UNL     1       3.908   5.793  17.428  0.00  0.00    +0.000 N 
ATOM     11  C   UNL     1       4.867   6.195  16.535  0.00  0.00    +0.000 A 
ATOM     12  N   UNL     1       5.307   5.154  15.866  0.00  0.00    +0.000 NA
ATOM     13  N   UNL     1       4.620   4.080  16.361  0.00  0.00    +0.000 NA
ATOM     14  N   UNL     1       3.773   4.451  17.313  0.00  0.00    +0.000 NA
ENDBRANCH   7  10
ENDBRANCH   2   4
BRANCH   2  15
ATOM     15  N   UNL     1       0.280  10.539  20.244  0.00  0.00    +0.000 NA
ATOM     16  C   UNL     1      -0.975  10.335  19.460  0.00  0.00    +0.000 C 
ATOM     17  C   UNL     1      -1.508  11.605  18.824  0.00  0.00    +0.000 C 
ATOM     18  C   UNL     1      -1.662  12.784  19.800  0.00  0.00    +0.000 C 
ATOM     19  C   UNL     1      -0.281  13.009  20.433  0.00  0.00    +0.000 C 
ATOM     20  C   UNL     1       0.331  11.776  21.089  0.00  0.00    +0.000 C 
BRANCH  18  21
ATOM     21  N   UNL     1      -2.811  12.788  20.747  0.00  0.00    +0.000 NA
ATOM     22  C   UNL     1      -2.708  13.863  21.745  0.00  0.00    +0.000 C 
ATOM     23  C   UNL     1      -3.847  13.850  22.769  0.00  0.00    +0.000 C 
ATOM     24  C   UNL     1      -5.196  13.918  22.068  0.00  0.00    +0.000 C 
ATOM     25  C   UNL     1      -5.319  12.730  21.140  0.00  0.00    +0.000 C 
ATOM     26  C   UNL     1      -4.147  12.658  20.163  0.00  0.00    +0.000 C 
ENDBRANCH  18  21
ENDBRANCH   2  15
TORSDOF 4
ENDMDL
MODEL 6
REMARK VINA RESULT:      -6.7      4.974      6.756
REMARK  Name = 
REMARK  4 active torsions:
REMARK  status: ('A' for Active; 'I' for Inactive)
REMARK    1  A    between atoms: S_2  and  C_4
REMARK    2  A    between atoms: S_2  and  N_15
REMARK    3  A    between atoms: C_7  and  N_8
REMARK    4  A    between atoms: C_18  and  N_19
REMARK                            x       y       z     vdW  Elec       q    Type
REMARK                         _______ _______ _______ _____ _____    ______ ____
ROOT
ATOM      1  O   UNL     1      -0.717   8.945  21.221  0.00  0.00    +0.000 OA
ATOM      2  S   UNL     1       0.380   9.718  20.685  0.00  0.00    +0.000 S 
ATOM      3  O   UNL     1       1.252  10.478  21.555  0.00  0.00    +0.000 OA
ENDROOT
BRANCH   2   4
ATOM      4  C   UNL     1       1.414   8.635  19.727  0.00  0.00    +0.000 A 
ATOM      5  C   UNL     1       1.873   9.052  18.479  0.00  0.00    +0.000 A 
ATOM      6  C   UNL     1       2.721   8.216  17.741  0.00  0.00    +0.000 A 
ATOM      7  C   UNL     1       3.088   6.959  18.248  0.00  0.00    +0.000 A 
ATOM      8  C   UNL     1       2.628   6.558  19.513  0.00  0.00    +0.000 A 
ATOM      9  C   UNL     1       1.800   7.402  20.257  0.00  0.00    +0.000 A 
BRANCH   7  10
ATOM     10  N   UNL     1       3.900   6.085  17.484  0.00  0.00    +0.000 N 
ATOM     11  C   UNL     1       4.876   6.382  16.569  0.00  0.00    +0.000 A 
ATOM     12  N   UNL     1       5.341   5.270  16.047  0.00  0.00    +0.000 NA
ATOM     13  N   UNL     1       4.652   4.259  16.658  0.00  0.00    +0.000 NA
ATOM     14  N   UNL     1       3.780   4.737  17.537  0.00  0.00    +0.000 NA
ENDBRANCH   7  10
ENDBRANCH   2   4
BRANCH   2  15
ATOM     15  N   UNL     1      -0.279  10.800  19.493  0.00  0.00    +0.000 NA
ATOM     16  C   UNL     1      -1.113  10.076  18.487  0.00  0.00    +0.000 C 
ATOM     17  C   UNL     1      -1.921  10.995  17.591  0.00  0.00    +0.000 C 
ATOM     18  C   UNL     1      -2.763  12.036  18.348  0.00  0.00    +0.000 C 
ATOM     19  C   UNL     1      -1.788  12.826  19.233  0.00  0.00    +0.000 C 
ATOM     20  C   UNL     1      -0.931  11.972  20.161  0.00  0.00    +0.000 C 
BRANCH  18  21
ATOM     21  N   UNL     1      -4.021  11.596  19.012  0.00  0.00    +0.000 NA
ATOM     22  C   UNL     1      -4.552  12.613  19.932  0.00  0.00    +0.000 C 
ATOM     23  C   UNL     1      -5.813  12.160  20.674  0.00  0.00    +0.000 C 
ATOM     24  C   UNL     1      -6.891  11.737  19.687  0.00  0.00    +0.000 C 
ATOM     25  C   UNL     1      -6.352  10.606  18.838  0.00  0.00    +0.000 C 
ATOM     26  C   UNL     1      -5.043  10.992  18.155  0.00  0.00    +0.000 C 
ENDBRANCH  18  21
ENDBRANCH   2  15
TORSDOF 4
ENDMDL
MODEL 7
REMARK VINA RESULT:      -6.6      5.657      7.810
REMARK  Name = 
REMARK  4 active torsions:
REMARK  status: ('A' for Active; 'I' for Inactive)
REMARK    1  A    between atoms: S_2  and  C_4
REMARK    2  A    between atoms: S_2  and  N_15
REMARK    3  A    between atoms: C_7  and  N_8
REMARK    4  A    between atoms: C_18  and  N_19
REMARK                            x       y       z     vdW  Elec       q    Type
REMARK                         _______ _______ _______ _____ _____    ______ ____
ROOT
ATOM      1  O   UNL     1      -0.438  11.484  18.279  0.00  0.00    +0.000 OA
ATOM      2  S   UNL     1       0.181  11.121  19.534  0.00  0.00    +0.000 S 
ATOM      3  O   UNL     1      -0.603  10.996  20.744  0.00  0.00    +0.000 OA
ENDROOT
BRANCH   2   4
ATOM      4  C   UNL     1       1.043   9.583  19.310  0.00  0.00    +0.000 A 
ATOM      5  C   UNL     1       1.576   9.270  18.060  0.00  0.00    +0.000 A 
ATOM      6  C   UNL     1       2.291   8.078  17.892  0.00  0.00    +0.000 A 
ATOM      7  C   UNL     1       2.451   7.195  18.972  0.00  0.00    +0.000 A 
ATOM      8  C   UNL     1       1.919   7.528  20.229  0.00  0.00    +0.000 A 
ATOM      9  C   UNL     1       1.225   8.729  20.400  0.00  0.00    +0.000 A 
BRANCH   7  10
ATOM     10  N   UNL     1       3.125   5.960  18.797  0.00  0.00    +0.000 N 
ATOM     11  C   UNL     1       4.271   5.504  19.394  0.00  0.00    +0.000 A 
ATOM     12  N   UNL     1       4.584   4.328  18.902  0.00  0.00    +0.000 NA
ATOM     13  N   UNL     1       3.607   4.037  17.989  0.00  0.00    +0.000 NA
ATOM     14  N   UNL     1       2.711   5.015  17.920  0.00  0.00    +0.000 NA
ENDBRANCH   7  10
ENDBRANCH   2   4
BRANCH   2  15
ATOM     15  N   UNL     1       1.463  12.259  19.829  0.00  0.00    +0.000 NA
ATOM     16  C   UNL     1       2.169  12.639  18.569  0.00  0.00    +0.000 C 
ATOM     17  C   UNL     1       3.110  13.818  18.731  0.00  0.00    +0.000 C 
ATOM     18  C   UNL     1       2.470  15.051  19.390  0.00  0.00    +0.000 C 
ATOM     19  C   UNL     1       1.915  14.584  20.743  0.00  0.00    +0.000 C 
ATOM     20  C   UNL     1       0.964  13.395  20.668  0.00  0.00    +0.000 C 
BRANCH  18  21
ATOM     21  N   UNL     1       1.557  15.905  18.581  0.00  0.00    +0.000 NA
ATOM     22  C   UNL     1       0.325  16.248  19.306  0.00  0.00    +0.000 C 
ATOM     23  C   UNL     1      -0.659  17.075  18.473  0.00  0.00    +0.000 C 
ATOM     24  C   UNL     1       0.010  18.341  17.958  0.00  0.00    +0.000 C 
ATOM     25  C   UNL     1       1.203  17.947  17.114  0.00  0.00    +0.000 C 
ATOM     26  C   UNL     1       2.161  17.043  17.886  0.00  0.00    +0.000 C 
ENDBRANCH  18  21
ENDBRANCH   2  15
TORSDOF 4
ENDMDL
MODEL 8
REMARK VINA RESULT:      -6.6      5.341      7.729
REMARK  Name = 
REMARK  4 active torsions:
REMARK  status: ('A' for Active; 'I' for Inactive)
REMARK    1  A    between atoms: S_2  and  C_4
REMARK    2  A    between atoms: S_2  and  N_15
REMARK    3  A    between atoms: C_7  and  N_8
REMARK    4  A    between atoms: C_18  and  N_19
REMARK                            x       y       z     vdW  Elec       q    Type
REMARK                         _______ _______ _______ _____ _____    ______ ____
ROOT
ATOM      1  O   UNL     1      -0.496   8.356  21.577  0.00  0.00    +0.000 OA
ATOM      2  S   UNL     1       0.770   8.971  21.245  0.00  0.00    +0.000 S 
ATOM      3  O   UNL     1       1.677   9.417  22.280  0.00  0.00    +0.000 OA
ENDROOT
BRANCH   2   4
ATOM      4  C   UNL     1       1.678   7.854  20.202  0.00  0.00    +0.000 A 
ATOM      5  C   UNL     1       1.890   6.542  20.622  0.00  0.00    +0.000 A 
ATOM      6  C   UNL     1       2.571   5.650  19.784  0.00  0.00    +0.000 A 
ATOM      7  C   UNL     1       3.052   6.082  18.538  0.00  0.00    +0.000 A 
ATOM      8  C   UNL     1       2.821   7.404  18.122  0.00  0.00    +0.000 A 
ATOM      9  C   UNL     1       2.123   8.286  18.951  0.00  0.00    +0.000 A 
BRANCH   7  10
ATOM     10  N   UNL     1       3.790   5.202  17.707  0.00  0.00    +0.000 N 
ATOM     11  C   UNL     1       3.533   3.896  17.381  0.00  0.00    +0.000 A 
ATOM     12  N   UNL     1       4.505   3.432  16.629  0.00  0.00    +0.000 NA
ATOM     13  N   UNL     1       5.379   4.473  16.472  0.00  0.00    +0.000 NA
ATOM     14  N   UNL     1       4.955   5.555  17.113  0.00  0.00    +0.000 NA
ENDBRANCH   7  10
ENDBRANCH   2   4
BRANCH   2  15
ATOM     15  N   UNL     1       0.434  10.316  20.195  0.00  0.00    +0.000 NA
ATOM     16  C   UNL     1      -0.973  10.292  19.694  0.00  0.00    +0.000 C 
ATOM     17  C   UNL     1      -1.393  11.572  18.997  0.00  0.00    +0.000 C 
ATOM     18  C   UNL     1      -1.125  12.851  19.808  0.00  0.00    +0.000 C 
ATOM     19  C   UNL     1       0.375  12.854  20.136  0.00  0.00    +0.000 C 
ATOM     20  C   UNL     1       0.880  11.595  20.833  0.00  0.00    +0.000 C 
BRANCH  18  21
ATOM     21  N   UNL     1      -2.031  13.185  20.942  0.00  0.00    +0.000 NA
ATOM     22  C   UNL     1      -3.449  13.004  20.597  0.00  0.00    +0.000 C 
ATOM     23  C   UNL     1      -4.403  13.400  21.728  0.00  0.00    +0.000 C 
ATOM     24  C   UNL     1      -4.074  12.630  22.998  0.00  0.00    +0.000 C 
ATOM     25  C   UNL     1      -2.646  12.936  23.393  0.00  0.00    +0.000 C 
ATOM     26  C   UNL     1      -1.674  12.640  22.253  0.00  0.00    +0.000 C 
ENDBRANCH  18  21
ENDBRANCH   2  15
TORSDOF 4
ENDMDL
MODEL 9
REMARK VINA RESULT:      -6.5      5.446      7.919
REMARK  Name = 
REMARK  4 active torsions:
REMARK  status: ('A' for Active; 'I' for Inactive)
REMARK    1  A    between atoms: S_2  and  C_4
REMARK    2  A    between atoms: S_2  and  N_15
REMARK    3  A    between atoms: C_7  and  N_8
REMARK    4  A    between atoms: C_18  and  N_19
REMARK                            x       y       z     vdW  Elec       q    Type
REMARK                         _______ _______ _______ _____ _____    ______ ____
ROOT
ATOM      1  O   UNL     1      -0.130  10.289  17.927  0.00  0.00    +0.000 OA
ATOM      2  S   UNL     1       0.352  10.084  19.274  0.00  0.00    +0.000 S 
ATOM      3  O   UNL     1      -0.567   9.904  20.377  0.00  0.00    +0.000 OA
ENDROOT
BRANCH   2   4
ATOM      4  C   UNL     1       1.443   8.680  19.271  0.00  0.00    +0.000 A 
ATOM      5  C   UNL     1       1.498   7.851  20.390  0.00  0.00    +0.000 A 
ATOM      6  C   UNL     1       2.326   6.722  20.374  0.00  0.00    +0.000 A 
ATOM      7  C   UNL     1       3.110   6.440  19.244  0.00  0.00    +0.000 A 
ATOM      8  C   UNL     1       3.036   7.278  18.118  0.00  0.00    +0.000 A 
ATOM      9  C   UNL     1       2.192   8.391  18.129  0.00  0.00    +0.000 A 
BRANCH   7  10
ATOM     10  N   UNL     1       3.992   5.331  19.239  0.00  0.00    +0.000 N 
ATOM     11  C   UNL     1       3.730   4.011  19.498  0.00  0.00    +0.000 A 
ATOM     12  N   UNL     1       4.848   3.323  19.444  0.00  0.00    +0.000 NA
ATOM     13  N   UNL     1       5.824   4.229  19.130  0.00  0.00    +0.000 NA
ATOM     14  N   UNL     1       5.320   5.449  18.996  0.00  0.00    +0.000 NA
ENDBRANCH   7  10
ENDBRANCH   2   4
BRANCH   2  15
ATOM     15  N   UNL     1       1.410  11.411  19.656  0.00  0.00    +0.000 NA
ATOM     16  C   UNL     1       1.734  12.228  18.448  0.00  0.00    +0.000 C 
ATOM     17  C   UNL     1       2.429  13.538  18.768  0.00  0.00    +0.000 C 
ATOM     18  C   UNL     1       1.710  14.392  19.825  0.00  0.00    +0.000 C 
ATOM     19  C   UNL     1       1.567  13.511  21.075  0.00  0.00    +0.000 C 
ATOM     20  C   UNL     1       0.884  12.169  20.837  0.00  0.00    +0.000 C 
BRANCH  18  21
ATOM     21  N   UNL     1       0.490  15.148  19.430  0.00  0.00    +0.000 NA
ATOM     22  C   UNL     1      -0.357  15.486  20.583  0.00  0.00    +0.000 C 
ATOM     23  C   UNL     1      -1.649  16.210  20.196  0.00  0.00    +0.000 C 
ATOM     24  C   UNL     1      -1.338  17.465  19.394  0.00  0.00    +0.000 C 
ATOM     25  C   UNL     1      -0.573  17.067  18.151  0.00  0.00    +0.000 C 
ATOM     26  C   UNL     1       0.676  16.261  18.497  0.00  0.00    +0.000 C 
ENDBRANCH  18  21
ENDBRANCH   2  15
TORSDOF 4
ENDMDL
