MODEL 1
REMARK VINA RESULT:      -7.5      0.000      0.000
REMARK  Name = 
REMARK  6 active torsions:
REMARK  status: ('A' for Active; 'I' for Inactive)
REMARK    1  A    between atoms: C_2  and  O_3
REMARK    2  A    between atoms: C_2  and  C_7
REMARK    3  A    between atoms: O_3  and  C_4
REMARK    4  A    between atoms: C_4  and  C_5
REMARK    5  A    between atoms: C_13  and  C_14
REMARK    6  A    between atoms: C_18  and  C_19
REMARK                            x       y       z     vdW  Elec       q    Type
REMARK                         _______ _______ _______ _____ _____    ______ ____
ROOT
ATOM      1  C   UNL     1       6.467   6.092  16.569  0.00  0.00    +0.000 C 
ATOM      2  C   UNL     1       7.402   5.149  15.741  0.00  0.00    +0.000 C 
ATOM      3  C   UNL     1       7.114   5.135  14.225  0.00  0.00    +0.000 C 
ATOM      4  C   UNL     1       6.273   3.877  13.990  0.00  0.00    +0.000 C 
ATOM      5  C   UNL     1       5.820   3.508  15.393  0.00  0.00    +0.000 C 
ATOM      6  C   UNL     1       4.702   4.456  15.912  0.00  0.00    +0.000 C 
ATOM      7  C   UNL     1       5.242   5.291  17.091  0.00  0.00    +0.000 C 
ATOM      8  N   UNL     1       7.091   3.750  16.115  0.00  0.00    +0.000 NA
ATOM      9  H   UNL     1       7.813   3.126  15.751  0.00  0.00    +0.000 HD
ENDROOT
BRANCH   7  10
ATOM     10  C   UNL     1       4.172   6.046  17.857  0.00  0.00    +0.000 A 
ATOM     11  C   UNL     1       3.746   7.337  17.537  0.00  0.00    +0.000 A 
ATOM     12  C   UNL     1       2.707   7.931  18.265  0.00  0.00    +0.000 A 
ATOM     13  C   UNL     1       2.091   7.250  19.322  0.00  0.00    +0.000 A 
ATOM     14  C   UNL     1       2.518   5.972  19.673  0.00  0.00    +0.000 A 
ATOM     15  C   UNL     1       3.547   5.380  18.936  0.00  0.00    +0.000 A 
BRANCH  14  16
ATOM     16  C   UNL     1       1.940   5.263  20.823  0.00  0.00    +0.000 C 
ATOM     17  C   UNL     1       1.387   4.045  20.838  0.00  0.00    +0.000 C 
ATOM     18  I   UNL     1       1.152   2.785  19.254  0.00  0.00    +0.000 I 
ENDBRANCH  14  16
ENDBRANCH   7  10
BRANCH   1  20
ATOM     19  O   UNL     1       7.760   6.073  18.612  0.00  0.00    +0.000 OA
ATOM     20  C   UNL     1       7.310   6.714  17.668  0.00  0.00    +0.000 C 
BRANCH  20  21
ATOM     21  O   UNL     1       7.376   8.061  17.555  0.00  0.00    +0.000 OA
BRANCH  21  22
ATOM     22  C   UNL     1       8.413   8.749  18.276  0.00  0.00    +0.000 C 
BRANCH  22  23
ATOM     23  C   UNL     1       8.449  10.223  17.918  0.00  0.00    +0.000 C 
ATOM     24  F   UNL     1       9.743  10.644  17.843  0.00  0.00    +0.000 F 
ENDBRANCH  22  23
ENDBRANCH  21  22
ENDBRANCH  20  21
ENDBRANCH   1  20
TORSDOF 6
ENDMDL
MODEL 2
REMARK VINA RESULT:      -7.4      4.170      5.585
REMARK  Name = 
REMARK  6 active torsions:
REMARK  status: ('A' for Active; 'I' for Inactive)
REMARK    1  A    between atoms: C_2  and  O_3
REMARK    2  A    between atoms: C_2  and  C_7
REMARK    3  A    between atoms: O_3  and  C_4
REMARK    4  A    between atoms: C_4  and  C_5
REMARK    5  A    between atoms: C_13  and  C_14
REMARK    6  A    between atoms: C_18  and  C_19
REMARK                            x       y       z     vdW  Elec       q    Type
REMARK                         _______ _______ _______ _____ _____    ______ ____
ROOT
ATOM      1  C   UNL     1       3.065   5.008  18.555  0.00  0.00    +0.000 C 
ATOM      2  C   UNL     1       4.058   3.986  17.908  0.00  0.00    +0.000 C 
ATOM      3  C   UNL     1       5.413   3.867  18.636  0.00  0.00    +0.000 C 
ATOM      4  C   UNL     1       6.379   4.736  17.824  0.00  0.00    +0.000 C 
ATOM      5  C   UNL     1       5.441   5.575  16.972  0.00  0.00    +0.000 C 
ATOM      6  C   UNL     1       4.743   6.691  17.799  0.00  0.00    +0.000 C 
ATOM      7  C   UNL     1       3.231   6.400  17.884  0.00  0.00    +0.000 C 
ATOM      8  N   UNL     1       4.473   4.520  16.591  0.00  0.00    +0.000 NA
ATOM      9  H   UNL     1       4.954   3.793  16.059  0.00  0.00    +0.000 HD
ENDROOT
BRANCH   7  10
ATOM     10  C   UNL     1       2.407   7.553  18.423  0.00  0.00    +0.000 A 
ATOM     11  C   UNL     1       1.881   8.576  17.631  0.00  0.00    +0.000 A 
ATOM     12  C   UNL     1       1.079   9.567  18.211  0.00  0.00    +0.000 A 
ATOM     13  C   UNL     1       0.801   9.554  19.583  0.00  0.00    +0.000 A 
ATOM     14  C   UNL     1       1.336   8.556  20.394  0.00  0.00    +0.000 A 
ATOM     15  C   UNL     1       2.126   7.565  19.809  0.00  0.00    +0.000 A 
BRANCH  14  16
ATOM     16  C   UNL     1       1.122   8.559  21.848  0.00  0.00    +0.000 C 
ATOM     17  C   UNL     1       0.430   9.448  22.570  0.00  0.00    +0.000 C 
ATOM     18  I   UNL     1      -0.534  11.105  21.878  0.00  0.00    +0.000 I 
ENDBRANCH  14  16
ENDBRANCH   7  10
BRANCH   1  20
ATOM     19  O   UNL     1       1.118   4.237  17.347  0.00  0.00    +0.000 OA
ATOM     20  C   UNL     1       1.669   4.426  18.427  0.00  0.00    +0.000 C 
BRANCH  20  21
ATOM     21  O   UNL     1       1.066   4.283  19.630  0.00  0.00    +0.000 OA
BRANCH  21  22
ATOM     22  C   UNL     1       1.153   3.004  20.281  0.00  0.00    +0.000 C 
BRANCH  22  23
ATOM     23  C   UNL     1       1.896   3.107  21.600  0.00  0.00    +0.000 C 
ATOM     24  F   UNL     1       2.359   4.378  21.766  0.00  0.00    +0.000 F 
ENDBRANCH  22  23
ENDBRANCH  21  22
ENDBRANCH  20  21
ENDBRANCH   1  20
TORSDOF 6
ENDMDL
MODEL 3
REMARK VINA RESULT:      -7.3      3.427      4.895
REMARK  Name = 
REMARK  6 active torsions:
REMARK  status: ('A' for Active; 'I' for Inactive)
REMARK    1  A    between atoms: C_2  and  O_3
REMARK    2  A    between atoms: C_2  and  C_7
REMARK    3  A    between atoms: O_3  and  C_4
REMARK    4  A    between atoms: C_4  and  C_5
REMARK    5  A    between atoms: C_13  and  C_14
REMARK    6  A    between atoms: C_18  and  C_19
REMARK                            x       y       z     vdW  Elec       q    Type
REMARK                         _______ _______ _______ _____ _____    ______ ____
ROOT
ATOM      1  C   UNL     1       3.972   4.405  18.593  0.00  0.00    +0.000 C 
ATOM      2  C   UNL     1       4.056   2.913  19.057  0.00  0.00    +0.000 C 
ATOM      3  C   UNL     1       3.159   1.945  18.258  0.00  0.00    +0.000 C 
ATOM      4  C   UNL     1       1.914   1.745  19.128  0.00  0.00    +0.000 C 
ATOM      5  C   UNL     1       2.012   2.889  20.123  0.00  0.00    +0.000 C 
ATOM      6  C   UNL     1       1.644   4.256  19.479  0.00  0.00    +0.000 C 
ATOM      7  C   UNL     1       2.896   5.155  19.428  0.00  0.00    +0.000 C 
ATOM      8  N   UNL     1       3.463   2.818  20.411  0.00  0.00    +0.000 NA
ATOM      9  H   UNL     1       3.685   1.910  20.823  0.00  0.00    +0.000 HD
ENDROOT
BRANCH   7  10
ATOM     10  C   UNL     1       2.607   6.602  19.080  0.00  0.00    +0.000 A 
ATOM     11  C   UNL     1       2.980   7.207  17.877  0.00  0.00    +0.000 A 
ATOM     12  C   UNL     1       2.613   8.534  17.619  0.00  0.00    +0.000 A 
ATOM     13  C   UNL     1       1.882   9.272  18.557  0.00  0.00    +0.000 A 
ATOM     14  C   UNL     1       1.522   8.696  19.772  0.00  0.00    +0.000 A 
ATOM     15  C   UNL     1       1.880   7.369  20.020  0.00  0.00    +0.000 A 
BRANCH  14  16
ATOM     16  C   UNL     1       0.818   9.469  20.804  0.00  0.00    +0.000 C 
ATOM     17  C   UNL     1      -0.235  10.278  20.644  0.00  0.00    +0.000 C 
ATOM     18  I   UNL     1      -1.192  10.712  18.897  0.00  0.00    +0.000 I 
ENDBRANCH  14  16
ENDBRANCH   7  10
BRANCH   1  20
ATOM     19  O   UNL     1       5.948   5.128  19.782  0.00  0.00    +0.000 OA
ATOM     20  C   UNL     1       5.365   4.995  18.711  0.00  0.00    +0.000 C 
BRANCH  20  21
ATOM     21  O   UNL     1       5.812   5.481  17.529  0.00  0.00    +0.000 OA
BRANCH  21  22
ATOM     22  C   UNL     1       6.752   4.688  16.786  0.00  0.00    +0.000 C 
BRANCH  22  23
ATOM     23  C   UNL     1       6.058   3.880  15.705  0.00  0.00    +0.000 C 
ATOM     24  F   UNL     1       5.074   4.631  15.135  0.00  0.00    +0.000 F 
ENDBRANCH  22  23
ENDBRANCH  21  22
ENDBRANCH  20  21
ENDBRANCH   1  20
TORSDOF 6
ENDMDL
MODEL 4
REMARK VINA RESULT:      -7.2      3.383      5.131
REMARK  Name = 
REMARK  6 active torsions:
REMARK  status: ('A' for Active; 'I' for Inactive)
REMARK    1  A    between atoms: C_2  and  O_3
REMARK    2  A    between atoms: C_2  and  C_7
REMARK    3  A    between atoms: O_3  and  C_4
REMARK    4  A    between atoms: C_4  and  C_5
REMARK    5  A    between atoms: C_13  and  C_14
REMARK    6  A    between atoms: C_18  and  C_19
REMARK                            x       y       z     vdW  Elec       q    Type
REMARK                         _______ _______ _______ _____ _____    ______ ____
ROOT
ATOM      1  C   UNL     1       3.136   4.279  18.770  0.00  0.00    +0.000 C 
ATOM      2  C   UNL     1       3.216   2.920  19.542  0.00  0.00    +0.000 C 
ATOM      3  C   UNL     1       1.906   2.104  19.534  0.00  0.00    +0.000 C 
ATOM      4  C   UNL     1       1.246   2.395  20.885  0.00  0.00    +0.000 C 
ATOM      5  C   UNL     1       1.997   3.625  21.368  0.00  0.00    +0.000 C 
ATOM      6  C   UNL     1       1.566   4.909  20.603  0.00  0.00    +0.000 C 
ATOM      7  C   UNL     1       2.745   5.419  19.750  0.00  0.00    +0.000 C 
ATOM      8  N   UNL     1       3.369   3.221  20.984  0.00  0.00    +0.000 NA
ATOM      9  H   UNL     1       3.627   2.371  21.489  0.00  0.00    +0.000 HD
ENDROOT
BRANCH   7  10
ATOM     10  C   UNL     1       2.541   6.810  19.180  0.00  0.00    +0.000 A 
ATOM     11  C   UNL     1       3.047   7.232  17.948  0.00  0.00    +0.000 A 
ATOM     12  C   UNL     1       2.754   8.517  17.476  0.00  0.00    +0.000 A 
ATOM     13  C   UNL     1       1.964   9.395  18.226  0.00  0.00    +0.000 A 
ATOM     14  C   UNL     1       1.469   9.002  19.467  0.00  0.00    +0.000 A 
ATOM     15  C   UNL     1       1.756   7.716  19.929  0.00  0.00    +0.000 A 
BRANCH  14  16
ATOM     16  C   UNL     1       0.699   9.928  20.309  0.00  0.00    +0.000 C 
ATOM     17  C   UNL     1      -0.444  10.553  20.002  0.00  0.00    +0.000 C 
ATOM     18  I   UNL     1      -1.473  10.434  18.247  0.00  0.00    +0.000 I 
ENDBRANCH  14  16
ENDBRANCH   7  10
BRANCH   1  20
ATOM     19  O   UNL     1       4.584   4.697  16.880  0.00  0.00    +0.000 OA
ATOM     20  C   UNL     1       4.473   4.488  18.083  0.00  0.00    +0.000 C 
BRANCH  20  21
ATOM     21  O   UNL     1       5.514   4.274  18.923  0.00  0.00    +0.000 OA
BRANCH  21  22
ATOM     22  C   UNL     1       6.331   5.400  19.286  0.00  0.00    +0.000 C 
BRANCH  22  23
ATOM     23  C   UNL     1       7.562   5.495  18.404  0.00  0.00    +0.000 C 
ATOM     24  F   UNL     1       8.333   6.543  18.806  0.00  0.00    +0.000 F 
ENDBRANCH  22  23
ENDBRANCH  21  22
ENDBRANCH  20  21
ENDBRANCH   1  20
TORSDOF 6
ENDMDL
MODEL 5
REMARK VINA RESULT:      -7.2      3.052      4.310
REMARK  Name = 
REMARK  6 active torsions:
REMARK  status: ('A' for Active; 'I' for Inactive)
REMARK    1  A    between atoms: C_2  and  O_3
REMARK    2  A    between atoms: C_2  and  C_7
REMARK    3  A    between atoms: O_3  and  C_4
REMARK    4  A    between atoms: C_4  and  C_5
REMARK    5  A    between atoms: C_13  and  C_14
REMARK    6  A    between atoms: C_18  and  C_19
REMARK                            x       y       z     vdW  Elec       q    Type
REMARK                         _______ _______ _______ _____ _____    ______ ____
ROOT
ATOM      1  C   UNL     1       4.047   4.708  18.479  0.00  0.00    +0.000 C 
ATOM      2  C   UNL     1       4.302   3.193  18.776  0.00  0.00    +0.000 C 
ATOM      3  C   UNL     1       3.510   2.224  17.874  0.00  0.00    +0.000 C 
ATOM      4  C   UNL     1       2.304   1.792  18.714  0.00  0.00    +0.000 C 
ATOM      5  C   UNL     1       2.284   2.825  19.829  0.00  0.00    +0.000 C 
ATOM      6  C   UNL     1       1.759   4.204  19.338  0.00  0.00    +0.000 C 
ATOM      7  C   UNL     1       2.903   5.237  19.389  0.00  0.00    +0.000 C 
ATOM      8  N   UNL     1       3.737   2.886  20.110  0.00  0.00    +0.000 NA
ATOM      9  H   UNL     1       4.062   1.968  20.420  0.00  0.00    +0.000 HD
ENDROOT
BRANCH   7  10
ATOM     10  C   UNL     1       2.450   6.672  19.201  0.00  0.00    +0.000 A 
ATOM     11  C   UNL     1       2.557   7.375  17.998  0.00  0.00    +0.000 A 
ATOM     12  C   UNL     1       2.054   8.679  17.904  0.00  0.00    +0.000 A 
ATOM     13  C   UNL     1       1.450   9.297  19.004  0.00  0.00    +0.000 A 
ATOM     14  C   UNL     1       1.355   8.623  20.219  0.00  0.00    +0.000 A 
ATOM     15  C   UNL     1       1.849   7.319  20.305  0.00  0.00    +0.000 A 
BRANCH  14  16
ATOM     16  C   UNL     1       0.793   9.273  21.411  0.00  0.00    +0.000 C 
ATOM     17  C   UNL     1       0.527  10.573  21.583  0.00  0.00    +0.000 C 
ATOM     18  I   UNL     1       0.840  12.076  20.244  0.00  0.00    +0.000 I 
ENDBRANCH  14  16
ENDBRANCH   7  10
BRANCH   1  20
ATOM     19  O   UNL     1       5.975   5.458  19.729  0.00  0.00    +0.000 OA
ATOM     20  C   UNL     1       5.366   5.435  18.664  0.00  0.00    +0.000 C 
BRANCH  20  21
ATOM     21  O   UNL     1       5.705   6.159  17.571  0.00  0.00    +0.000 OA
BRANCH  21  22
ATOM     22  C   UNL     1       7.101   6.290  17.255  0.00  0.00    +0.000 C 
BRANCH  22  23
ATOM     23  C   UNL     1       7.623   7.666  17.627  0.00  0.00    +0.000 C 
ATOM     24  F   UNL     1       8.549   7.550  18.620  0.00  0.00    +0.000 F 
ENDBRANCH  22  23
ENDBRANCH  21  22
ENDBRANCH  20  21
ENDBRANCH   1  20
TORSDOF 6
ENDMDL
MODEL 6
REMARK VINA RESULT:      -7.1      3.095      4.497
REMARK  Name = 
REMARK  6 active torsions:
REMARK  status: ('A' for Active; 'I' for Inactive)
REMARK    1  A    between atoms: C_2  and  O_3
REMARK    2  A    between atoms: C_2  and  C_7
REMARK    3  A    between atoms: O_3  and  C_4
REMARK    4  A    between atoms: C_4  and  C_5
REMARK    5  A    between atoms: C_13  and  C_14
REMARK    6  A    between atoms: C_18  and  C_19
REMARK                            x       y       z     vdW  Elec       q    Type
REMARK                         _______ _______ _______ _____ _____    ______ ____
ROOT
ATOM      1  C   UNL     1       3.489   4.820  17.970  0.00  0.00    +0.000 C 
ATOM      2  C   UNL     1       3.810   3.315  18.251  0.00  0.00    +0.000 C 
ATOM      3  C   UNL     1       2.713   2.332  17.792  0.00  0.00    +0.000 C 
ATOM      4  C   UNL     1       1.917   2.003  19.058  0.00  0.00    +0.000 C 
ATOM      5  C   UNL     1       2.349   3.097  20.020  0.00  0.00    +0.000 C 
ATOM      6  C   UNL     1       1.702   4.467  19.674  0.00  0.00    +0.000 C 
ATOM      7  C   UNL     1       2.795   5.450  19.210  0.00  0.00    +0.000 C 
ATOM      8  N   UNL     1       3.799   3.109  19.717  0.00  0.00    +0.000 NA
ATOM      9  H   UNL     1       4.201   2.197  19.942  0.00  0.00    +0.000 HD
ENDROOT
BRANCH   7  10
ATOM     10  C   UNL     1       2.332   6.891  19.111  0.00  0.00    +0.000 A 
ATOM     11  C   UNL     1       2.332   7.633  17.927  0.00  0.00    +0.000 A 
ATOM     12  C   UNL     1       1.827   8.939  17.921  0.00  0.00    +0.000 A 
ATOM     13  C   UNL     1       1.328   9.522  19.092  0.00  0.00    +0.000 A 
ATOM     14  C   UNL     1       1.341   8.808  20.288  0.00  0.00    +0.000 A 
ATOM     15  C   UNL     1       1.836   7.501  20.286  0.00  0.00    +0.000 A 
BRANCH  14  16
ATOM     16  C   UNL     1       0.892   9.419  21.546  0.00  0.00    +0.000 C 
ATOM     17  C   UNL     1       0.047  10.444  21.700  0.00  0.00    +0.000 C 
ATOM     18  I   UNL     1      -0.874  11.506  20.224  0.00  0.00    +0.000 I 
ENDBRANCH  14  16
ENDBRANCH   7  10
BRANCH   1  20
ATOM     19  O   UNL     1       5.009   5.940  16.460  0.00  0.00    +0.000 OA
ATOM     20  C   UNL     1       4.791   5.497  17.583  0.00  0.00    +0.000 C 
BRANCH  20  21
ATOM     21  O   UNL     1       5.716   5.419  18.568  0.00  0.00    +0.000 OA
BRANCH  21  22
ATOM     22  C   UNL     1       7.100   5.329  18.190  0.00  0.00    +0.000 C 
BRANCH  22  23
ATOM     23  C   UNL     1       7.831   6.631  18.458  0.00  0.00    +0.000 C 
ATOM     24  F   UNL     1       7.906   7.359  17.308  0.00  0.00    +0.000 F 
ENDBRANCH  22  23
ENDBRANCH  21  22
ENDBRANCH  20  21
ENDBRANCH   1  20
TORSDOF 6
ENDMDL
MODEL 7
REMARK VINA RESULT:      -7.1      1.790      2.598
REMARK  Name = 
REMARK  6 active torsions:
REMARK  status: ('A' for Active; 'I' for Inactive)
REMARK    1  A    between atoms: C_2  and  O_3
REMARK    2  A    between atoms: C_2  and  C_7
REMARK    3  A    between atoms: O_3  and  C_4
REMARK    4  A    between atoms: C_4  and  C_5
REMARK    5  A    between atoms: C_13  and  C_14
REMARK    6  A    between atoms: C_18  and  C_19
REMARK                            x       y       z     vdW  Elec       q    Type
REMARK                         _______ _______ _______ _____ _____    ______ ____
ROOT
ATOM      1  C   UNL     1       6.451   5.761  17.174  0.00  0.00    +0.000 C 
ATOM      2  C   UNL     1       7.349   4.876  16.246  0.00  0.00    +0.000 C 
ATOM      3  C   UNL     1       7.274   5.243  14.749  0.00  0.00    +0.000 C 
ATOM      4  C   UNL     1       6.305   4.227  14.137  0.00  0.00    +0.000 C 
ATOM      5  C   UNL     1       5.614   3.644  15.359  0.00  0.00    +0.000 C 
ATOM      6  C   UNL     1       4.580   4.630  15.971  0.00  0.00    +0.000 C 
ATOM      7  C   UNL     1       5.064   5.085  17.363  0.00  0.00    +0.000 C 
ATOM      8  N   UNL     1       6.794   3.503  16.243  0.00  0.00    +0.000 NA
ATOM      9  H   UNL     1       7.464   2.860  15.817  0.00  0.00    +0.000 HD
ENDROOT
BRANCH   7  10
ATOM     10  C   UNL     1       4.017   5.824  18.172  0.00  0.00    +0.000 A 
ATOM     11  C   UNL     1       3.533   5.390  19.409  0.00  0.00    +0.000 A 
ATOM     12  C   UNL     1       2.609   6.174  20.112  0.00  0.00    +0.000 A 
ATOM     13  C   UNL     1       2.153   7.389  19.589  0.00  0.00    +0.000 A 
ATOM     14  C   UNL     1       2.605   7.828  18.347  0.00  0.00    +0.000 A 
ATOM     15  C   UNL     1       3.534   7.048  17.655  0.00  0.00    +0.000 A 
BRANCH  14  16
ATOM     16  C   UNL     1       2.088   9.063  17.741  0.00  0.00    +0.000 C 
ATOM     17  C   UNL     1       1.296   9.981  18.306  0.00  0.00    +0.000 C 
ATOM     18  I   UNL     1       0.533   9.946  20.195  0.00  0.00    +0.000 I 
ENDBRANCH  14  16
ENDBRANCH   7  10
BRANCH   1  20
ATOM     19  O   UNL     1       6.999   5.328  19.488  0.00  0.00    +0.000 OA
ATOM     20  C   UNL     1       7.213   5.976  18.469  0.00  0.00    +0.000 C 
BRANCH  20  21
ATOM     21  O   UNL     1       8.035   7.049  18.401  0.00  0.00    +0.000 OA
BRANCH  21  22
ATOM     22  C   UNL     1       7.580   8.204  17.676  0.00  0.00    +0.000 C 
BRANCH  22  23
ATOM     23  C   UNL     1       8.352   9.447  18.078  0.00  0.00    +0.000 C 
ATOM     24  F   UNL     1       9.109   9.179  19.179  0.00  0.00    +0.000 F 
ENDBRANCH  22  23
ENDBRANCH  21  22
ENDBRANCH  20  21
ENDBRANCH   1  20
TORSDOF 6
ENDMDL
MODEL 8
REMARK VINA RESULT:      -7.1      3.816      5.145
REMARK  Name = 
REMARK  6 active torsions:
REMARK  status: ('A' for Active; 'I' for Inactive)
REMARK    1  A    between atoms: C_2  and  O_3
REMARK    2  A    between atoms: C_2  and  C_7
REMARK    3  A    between atoms: O_3  and  C_4
REMARK    4  A    between atoms: C_4  and  C_5
REMARK    5  A    between atoms: C_13  and  C_14
REMARK    6  A    between atoms: C_18  and  C_19
REMARK                            x       y       z     vdW  Elec       q    Type
REMARK                         _______ _______ _______ _____ _____    ______ ____
ROOT
ATOM      1  C   UNL     1       4.934   4.560  17.899  0.00  0.00    +0.000 C 
ATOM      2  C   UNL     1       5.798   3.912  16.768  0.00  0.00    +0.000 C 
ATOM      3  C   UNL     1       7.195   4.544  16.591  0.00  0.00    +0.000 C 
ATOM      4  C   UNL     1       7.052   5.502  15.405  0.00  0.00    +0.000 C 
ATOM      5  C   UNL     1       5.544   5.643  15.267  0.00  0.00    +0.000 C 
ATOM      6  C   UNL     1       4.938   6.540  16.382  0.00  0.00    +0.000 C 
ATOM      7  C   UNL     1       4.043   5.685  17.301  0.00  0.00    +0.000 C 
ATOM      8  N   UNL     1       5.163   4.225  15.468  0.00  0.00    +0.000 NA
ATOM      9  H   UNL     1       5.581   3.653  14.732  0.00  0.00    +0.000 HD
ENDROOT
BRANCH   7  10
ATOM     10  C   UNL     1       3.181   6.491  18.253  0.00  0.00    +0.000 A 
ATOM     11  C   UNL     1       2.870   6.094  19.555  0.00  0.00    +0.000 A 
ATOM     12  C   UNL     1       2.116   6.936  20.382  0.00  0.00    +0.000 A 
ATOM     13  C   UNL     1       1.658   8.175  19.919  0.00  0.00    +0.000 A 
ATOM     14  C   UNL     1       1.936   8.579  18.616  0.00  0.00    +0.000 A 
ATOM     15  C   UNL     1       2.698   7.740  17.799  0.00  0.00    +0.000 A 
BRANCH  14  16
ATOM     16  C   UNL     1       1.407   9.841  18.080  0.00  0.00    +0.000 C 
ATOM     17  C   UNL     1       0.794  10.821  18.753  0.00  0.00    +0.000 C 
ATOM     18  I   UNL     1       0.380  10.866  20.747  0.00  0.00    +0.000 I 
ENDBRANCH  14  16
ENDBRANCH   7  10
BRANCH   1  20
ATOM     19  O   UNL     1       4.356   3.079  19.720  0.00  0.00    +0.000 OA
ATOM     20  C   UNL     1       4.151   3.445  18.568  0.00  0.00    +0.000 C 
BRANCH  20  21
ATOM     21  O   UNL     1       3.319   2.819  17.702  0.00  0.00    +0.000 OA
BRANCH  21  22
ATOM     22  C   UNL     1       2.143   2.186  18.234  0.00  0.00    +0.000 C 
BRANCH  22  23
ATOM     23  C   UNL     1       1.075   3.209  18.577  0.00  0.00    +0.000 C 
ATOM     24  F   UNL     1       0.994   4.136  17.582  0.00  0.00    +0.000 F 
ENDBRANCH  22  23
ENDBRANCH  21  22
ENDBRANCH  20  21
ENDBRANCH   1  20
TORSDOF 6
ENDMDL
MODEL 9
REMARK VINA RESULT:      -7.0      3.319      4.661
REMARK  Name = 
REMARK  6 active torsions:
REMARK  status: ('A' for Active; 'I' for Inactive)
REMARK    1  A    between atoms: C_2  and  O_3
REMARK    2  A    between atoms: C_2  and  C_7
REMARK    3  A    between atoms: O_3  and  C_4
REMARK    4  A    between atoms: C_4  and  C_5
REMARK    5  A    between atoms: C_13  and  C_14
REMARK    6  A    between atoms: C_18  and  C_19
REMARK                            x       y       z     vdW  Elec       q    Type
REMARK                         _______ _______ _______ _____ _____    ______ ____
ROOT
ATOM      1  C   UNL     1       4.080   4.742  18.492  0.00  0.00    +0.000 C 
ATOM      2  C   UNL     1       4.306   3.230  18.826  0.00  0.00    +0.000 C 
ATOM      3  C   UNL     1       3.542   2.253  17.908  0.00  0.00    +0.000 C 
ATOM      4  C   UNL     1       2.298   1.848  18.704  0.00  0.00    +0.000 C 
ATOM      5  C   UNL     1       2.243   2.900  19.800  0.00  0.00    +0.000 C 
ATOM      6  C   UNL     1       1.754   4.275  19.264  0.00  0.00    +0.000 C 
ATOM      7  C   UNL     1       2.905   5.298  19.344  0.00  0.00    +0.000 C 
ATOM      8  N   UNL     1       3.683   2.951  20.140  0.00  0.00    +0.000 NA
ATOM      9  H   UNL     1       3.986   2.037  20.479  0.00  0.00    +0.000 HD
ENDROOT
BRANCH   7  10
ATOM     10  C   UNL     1       2.475   6.734  19.113  0.00  0.00    +0.000 A 
ATOM     11  C   UNL     1       2.621   7.408  17.898  0.00  0.00    +0.000 A 
ATOM     12  C   UNL     1       2.138   8.715  17.762  0.00  0.00    +0.000 A 
ATOM     13  C   UNL     1       1.514   9.366  18.833  0.00  0.00    +0.000 A 
ATOM     14  C   UNL     1       1.381   8.720  20.060  0.00  0.00    +0.000 A 
ATOM     15  C   UNL     1       1.855   7.413  20.187  0.00  0.00    +0.000 A 
BRANCH  14  16
ATOM     16  C   UNL     1       0.797   9.404  21.222  0.00  0.00    +0.000 C 
ATOM     17  C   UNL     1       0.594  10.717  21.380  0.00  0.00    +0.000 C 
ATOM     18  I   UNL     1       1.054  12.197  20.057  0.00  0.00    +0.000 I 
ENDBRANCH  14  16
ENDBRANCH   7  10
BRANCH   1  20
ATOM     19  O   UNL     1       6.013   5.411  19.780  0.00  0.00    +0.000 OA
ATOM     20  C   UNL     1       5.398   5.458  18.719  0.00  0.00    +0.000 C 
BRANCH  20  21
ATOM     21  O   UNL     1       5.728   6.257  17.677  0.00  0.00    +0.000 OA
BRANCH  21  22
ATOM     22  C   UNL     1       6.353   5.651  16.534  0.00  0.00    +0.000 C 
BRANCH  22  23
ATOM     23  C   UNL     1       5.469   5.752  15.304  0.00  0.00    +0.000 C 
ATOM     24  F   UNL     1       4.839   6.961  15.293  0.00  0.00    +0.000 F 
ENDBRANCH  22  23
ENDBRANCH  21  22
ENDBRANCH  20  21
ENDBRANCH   1  20
TORSDOF 6
ENDMDL
