MODEL 1
REMARK VINA RESULT:      -7.1      0.000      0.000
REMARK  Name = 
REMARK  2 active torsions:
REMARK  status: ('A' for Active; 'I' for Inactive)
REMARK    1  A    between atoms: N_10  and  C_11
REMARK    2  A    between atoms: C_11  and  C_12
REMARK                            x       y       z     vdW  Elec       q    Type
REMARK                         _______ _______ _______ _____ _____    ______ ____
ROOT
ATOM      1  O   UNL     1       5.097   2.079  20.519  0.00  0.00    +0.000 OA
ATOM      2  C   UNL     1       4.172   2.681  19.988  0.00  0.00    +0.000 C 
ATOM      3  C   UNL     1       4.283   4.035  19.389  0.00  0.00    +0.000 C 
ATOM      4  C   UNL     1       2.842   4.372  18.946  0.00  0.00    +0.000 C 
ATOM      5  C   UNL     1       2.096   3.071  19.159  0.00  0.00    +0.000 C 
ATOM      6  O   UNL     1       0.939   2.834  18.891  0.00  0.00    +0.000 OA
ATOM      7  N   UNL     1       2.931   2.198  19.792  0.00  0.00    +0.000 N 
ATOM      8  C   UNL     1       2.959   4.819  17.493  0.00  0.00    +0.000 C 
ATOM      9  O   UNL     1       2.634   4.115  16.541  0.00  0.00    +0.000 OA
ATOM     10  N   UNL     1       3.527   6.084  17.398  0.00  0.00    +0.000 N 
ATOM     11  C   UNL     1       2.920   7.153  18.028  0.00  0.00    +0.000 C 
ATOM     12  O   UNL     1       2.962   8.309  17.615  0.00  0.00    +0.000 OA
ATOM     13  C   UNL     1       2.268   6.766  19.260  0.00  0.00    +0.000 A 
ATOM     14  C   UNL     1       1.656   7.542  20.226  0.00  0.00    +0.000 A 
ATOM     15  C   UNL     1       1.339   6.695  21.314  0.00  0.00    +0.000 A 
ATOM     16  C   UNL     1       1.733   5.418  20.984  0.00  0.00    +0.000 A 
ATOM     17  N   UNL     1       2.262   5.464  19.724  0.00  0.00    +0.000 N 
ATOM     18  H   UNL     1       2.645   1.269  20.078  0.00  0.00    +0.000 HD
ENDROOT
BRANCH  10  19
ATOM     19  C   UNL     1       4.724   6.303  16.596  0.00  0.00    +0.000 C 
BRANCH  19  20
ATOM     20  C   UNL     1       6.047   5.915  17.197  0.00  0.00    +0.000 A 
ATOM     21  C   UNL     1       6.636   6.692  18.206  0.00  0.00    +0.000 A 
ATOM     22  C   UNL     1       7.787   6.267  18.863  0.00  0.00    +0.000 A 
ATOM     23  C   UNL     1       8.359   5.043  18.537  0.00  0.00    +0.000 A 
ATOM     24  C   UNL     1       7.834   4.287  17.492  0.00  0.00    +0.000 A 
ATOM     25  C   UNL     1       6.714   4.743  16.793  0.00  0.00    +0.000 A 
ATOM     26 BR   UNL     1       6.181   3.746  15.263  0.00  0.00    +0.000 Br
ENDBRANCH  19  20
ENDBRANCH  10  19
TORSDOF 2
ENDMDL
MODEL 2
REMARK VINA RESULT:      -6.8      3.765      6.258
REMARK  Name = 
REMARK  2 active torsions:
REMARK  status: ('A' for Active; 'I' for Inactive)
REMARK    1  A    between atoms: N_10  and  C_11
REMARK    2  A    between atoms: C_11  and  C_12
REMARK                            x       y       z     vdW  Elec       q    Type
REMARK                         _______ _______ _______ _____ _____    ______ ____
ROOT
ATOM      1  O   UNL     1      -2.586  11.256  17.030  0.00  0.00    +0.000 OA
ATOM      2  C   UNL     1      -1.540  11.257  17.667  0.00  0.00    +0.000 C 
ATOM      3  C   UNL     1      -0.827  10.035  18.117  0.00  0.00    +0.000 C 
ATOM      4  C   UNL     1       0.363  10.572  18.942  0.00  0.00    +0.000 C 
ATOM      5  C   UNL     1       0.314  12.066  18.696  0.00  0.00    +0.000 C 
ATOM      6  O   UNL     1       1.094  12.903  19.094  0.00  0.00    +0.000 OA
ATOM      7  N   UNL     1      -0.825  12.348  18.001  0.00  0.00    +0.000 N 
ATOM      8  C   UNL     1       1.594   9.866  18.384  0.00  0.00    +0.000 C 
ATOM      9  O   UNL     1       2.408  10.412  17.645  0.00  0.00    +0.000 OA
ATOM     10  N   UNL     1       1.632   8.533  18.774  0.00  0.00    +0.000 N 
ATOM     11  C   UNL     1       1.646   8.216  20.119  0.00  0.00    +0.000 C 
ATOM     12  O   UNL     1       2.200   7.225  20.586  0.00  0.00    +0.000 OA
ATOM     13  C   UNL     1       0.890   9.160  20.913  0.00  0.00    +0.000 A 
ATOM     14  C   UNL     1       0.570   9.138  22.257  0.00  0.00    +0.000 A 
ATOM     15  C   UNL     1      -0.335  10.198  22.497  0.00  0.00    +0.000 A 
ATOM     16  C   UNL     1      -0.529  10.865  21.308  0.00  0.00    +0.000 A 
ATOM     17  N   UNL     1       0.245  10.251  20.362  0.00  0.00    +0.000 N 
ATOM     18  H   UNL     1      -1.100  13.291  17.750  0.00  0.00    +0.000 HD
ENDROOT
BRANCH  10  19
ATOM     19  C   UNL     1       1.712   7.469  17.780  0.00  0.00    +0.000 C 
BRANCH  19  20
ATOM     20  C   UNL     1       3.022   6.744  17.641  0.00  0.00    +0.000 A 
ATOM     21  C   UNL     1       4.200   7.438  17.321  0.00  0.00    +0.000 A 
ATOM     22  C   UNL     1       5.436   6.799  17.328  0.00  0.00    +0.000 A 
ATOM     23  C   UNL     1       5.520   5.456  17.675  0.00  0.00    +0.000 A 
ATOM     24  C   UNL     1       4.359   4.729  17.927  0.00  0.00    +0.000 A 
ATOM     25  C   UNL     1       3.113   5.357  17.862  0.00  0.00    +0.000 A 
ATOM     26 BR   UNL     1       1.574   4.251  18.032  0.00  0.00    +0.000 Br
ENDBRANCH  19  20
ENDBRANCH  10  19
TORSDOF 2
ENDMDL
MODEL 3
REMARK VINA RESULT:      -6.8      3.089      5.396
REMARK  Name = 
REMARK  2 active torsions:
REMARK  status: ('A' for Active; 'I' for Inactive)
REMARK    1  A    between atoms: N_10  and  C_11
REMARK    2  A    between atoms: C_11  and  C_12
REMARK                            x       y       z     vdW  Elec       q    Type
REMARK                         _______ _______ _______ _____ _____    ______ ____
ROOT
ATOM      1  O   UNL     1       7.410   4.861  18.699  0.00  0.00    +0.000 OA
ATOM      2  C   UNL     1       6.211   4.658  18.560  0.00  0.00    +0.000 C 
ATOM      3  C   UNL     1       5.145   5.357  19.323  0.00  0.00    +0.000 C 
ATOM      4  C   UNL     1       3.838   4.686  18.849  0.00  0.00    +0.000 C 
ATOM      5  C   UNL     1       4.291   3.806  17.701  0.00  0.00    +0.000 C 
ATOM      6  O   UNL     1       3.597   3.128  16.977  0.00  0.00    +0.000 OA
ATOM      7  N   UNL     1       5.654   3.832  17.655  0.00  0.00    +0.000 N 
ATOM      8  C   UNL     1       2.913   5.832  18.457  0.00  0.00    +0.000 C 
ATOM      9  O   UNL     1       2.676   6.142  17.292  0.00  0.00    +0.000 OA
ATOM     10  N   UNL     1       2.432   6.499  19.577  0.00  0.00    +0.000 N 
ATOM     11  C   UNL     1       1.714   5.802  20.530  0.00  0.00    +0.000 C 
ATOM     12  O   UNL     1       0.822   6.294  21.215  0.00  0.00    +0.000 OA
ATOM     13  C   UNL     1       2.166   4.435  20.665  0.00  0.00    +0.000 A 
ATOM     14  C   UNL     1       1.793   3.458  21.570  0.00  0.00    +0.000 A 
ATOM     15  C   UNL     1       2.661   2.357  21.389  0.00  0.00    +0.000 A 
ATOM     16  C   UNL     1       3.526   2.664  20.363  0.00  0.00    +0.000 A 
ATOM     17  N   UNL     1       3.196   3.910  19.907  0.00  0.00    +0.000 N 
ATOM     18  H   UNL     1       6.194   3.288  16.992  0.00  0.00    +0.000 HD
ENDROOT
BRANCH  10  19
ATOM     19  C   UNL     1       2.630   7.936  19.730  0.00  0.00    +0.000 C 
BRANCH  19  20
ATOM     20  C   UNL     1       1.477   8.838  19.383  0.00  0.00    +0.000 A 
ATOM     21  C   UNL     1       1.149   9.106  18.046  0.00  0.00    +0.000 A 
ATOM     22  C   UNL     1       0.004   9.825  17.715  0.00  0.00    +0.000 A 
ATOM     23  C   UNL     1      -0.847  10.272  18.719  0.00  0.00    +0.000 A 
ATOM     24  C   UNL     1      -0.506  10.080  20.056  0.00  0.00    +0.000 A 
ATOM     25  C   UNL     1       0.674   9.410  20.387  0.00  0.00    +0.000 A 
ATOM     26 BR   UNL     1       1.156   9.360  22.227  0.00  0.00    +0.000 Br
ENDBRANCH  19  20
ENDBRANCH  10  19
TORSDOF 2
ENDMDL
MODEL 4
REMARK VINA RESULT:      -6.7      2.944      5.537
REMARK  Name = 
REMARK  2 active torsions:
REMARK  status: ('A' for Active; 'I' for Inactive)
REMARK    1  A    between atoms: N_10  and  C_11
REMARK    2  A    between atoms: C_11  and  C_12
REMARK                            x       y       z     vdW  Elec       q    Type
REMARK                         _______ _______ _______ _____ _____    ______ ____
ROOT
ATOM      1  O   UNL     1       7.907   5.128  19.222  0.00  0.00    +0.000 OA
ATOM      2  C   UNL     1       6.831   4.995  18.652  0.00  0.00    +0.000 C 
ATOM      3  C   UNL     1       5.510   5.246  19.282  0.00  0.00    +0.000 C 
ATOM      4  C   UNL     1       4.490   4.852  18.192  0.00  0.00    +0.000 C 
ATOM      5  C   UNL     1       5.355   4.611  16.972  0.00  0.00    +0.000 C 
ATOM      6  O   UNL     1       4.986   4.336  15.852  0.00  0.00    +0.000 OA
ATOM      7  N   UNL     1       6.662   4.675  17.356  0.00  0.00    +0.000 N 
ATOM      8  C   UNL     1       3.536   6.037  18.082  0.00  0.00    +0.000 C 
ATOM      9  O   UNL     1       3.568   6.847  17.160  0.00  0.00    +0.000 OA
ATOM     10  N   UNL     1       2.684   6.102  19.178  0.00  0.00    +0.000 N 
ATOM     11  C   UNL     1       1.856   5.033  19.462  0.00  0.00    +0.000 C 
ATOM     12  O   UNL     1       0.751   5.139  19.988  0.00  0.00    +0.000 OA
ATOM     13  C   UNL     1       2.459   3.765  19.115  0.00  0.00    +0.000 A 
ATOM     14  C   UNL     1       2.015   2.476  19.340  0.00  0.00    +0.000 A 
ATOM     15  C   UNL     1       3.057   1.595  18.967  0.00  0.00    +0.000 A 
ATOM     16  C   UNL     1       4.104   2.355  18.495  0.00  0.00    +0.000 A 
ATOM     17  N   UNL     1       3.719   3.666  18.554  0.00  0.00    +0.000 N 
ATOM     18  H   UNL     1       7.433   4.507  16.720  0.00  0.00    +0.000 HD
ENDROOT
BRANCH  10  19
ATOM     19  C   UNL     1       2.613   7.307  19.996  0.00  0.00    +0.000 C 
BRANCH  19  20
ATOM     20  C   UNL     1       1.686   8.402  19.545  0.00  0.00    +0.000 A 
ATOM     21  C   UNL     1       1.541   8.708  18.183  0.00  0.00    +0.000 A 
ATOM     22  C   UNL     1       0.585   9.621  17.748  0.00  0.00    +0.000 A 
ATOM     23  C   UNL     1      -0.259  10.232  18.669  0.00  0.00    +0.000 A 
ATOM     24  C   UNL     1      -0.087   9.999  20.031  0.00  0.00    +0.000 A 
ATOM     25  C   UNL     1       0.912   9.127  20.470  0.00  0.00    +0.000 A 
ATOM     26 BR   UNL     1       1.201   9.014  22.347  0.00  0.00    +0.000 Br
ENDBRANCH  19  20
ENDBRANCH  10  19
TORSDOF 2
ENDMDL
MODEL 5
REMARK VINA RESULT:      -6.6      2.515      5.401
REMARK  Name = 
REMARK  2 active torsions:
REMARK  status: ('A' for Active; 'I' for Inactive)
REMARK    1  A    between atoms: N_10  and  C_11
REMARK    2  A    between atoms: C_11  and  C_12
REMARK                            x       y       z     vdW  Elec       q    Type
REMARK                         _______ _______ _______ _____ _____    ______ ____
ROOT
ATOM      1  O   UNL     1       6.282   3.608  14.107  0.00  0.00    +0.000 OA
ATOM      2  C   UNL     1       6.341   4.347  15.082  0.00  0.00    +0.000 C 
ATOM      3  C   UNL     1       5.454   4.247  16.269  0.00  0.00    +0.000 C 
ATOM      4  C   UNL     1       5.869   5.442  17.154  0.00  0.00    +0.000 C 
ATOM      5  C   UNL     1       7.104   5.980  16.460  0.00  0.00    +0.000 C 
ATOM      6  O   UNL     1       7.817   6.888  16.827  0.00  0.00    +0.000 OA
ATOM      7  N   UNL     1       7.254   5.317  15.278  0.00  0.00    +0.000 N 
ATOM      8  C   UNL     1       6.112   4.855  18.540  0.00  0.00    +0.000 C 
ATOM      9  O   UNL     1       7.231   4.666  19.007  0.00  0.00    +0.000 OA
ATOM     10  N   UNL     1       4.916   4.517  19.162  0.00  0.00    +0.000 N 
ATOM     11  C   UNL     1       3.959   5.491  19.375  0.00  0.00    +0.000 C 
ATOM     12  O   UNL     1       3.176   5.491  20.320  0.00  0.00    +0.000 OA
ATOM     13  C   UNL     1       3.950   6.489  18.328  0.00  0.00    +0.000 A 
ATOM     14  C   UNL     1       3.087   7.547  18.113  0.00  0.00    +0.000 A 
ATOM     15  C   UNL     1       3.406   8.108  16.854  0.00  0.00    +0.000 A 
ATOM     16  C   UNL     1       4.473   7.407  16.338  0.00  0.00    +0.000 A 
ATOM     17  N   UNL     1       4.819   6.452  17.253  0.00  0.00    +0.000 N 
ATOM     18  H   UNL     1       7.991   5.528  14.616  0.00  0.00    +0.000 HD
ENDROOT
BRANCH  10  19
ATOM     19  C   UNL     1       4.683   3.160  19.641  0.00  0.00    +0.000 C 
BRANCH  19  20
ATOM     20  C   UNL     1       3.285   2.799  20.060  0.00  0.00    +0.000 A 
ATOM     21  C   UNL     1       2.942   2.703  21.417  0.00  0.00    +0.000 A 
ATOM     22  C   UNL     1       1.622   2.508  21.815  0.00  0.00    +0.000 A 
ATOM     23  C   UNL     1       0.616   2.426  20.859  0.00  0.00    +0.000 A 
ATOM     24  C   UNL     1       0.940   2.447  19.505  0.00  0.00    +0.000 A 
ATOM     25  C   UNL     1       2.272   2.584  19.107  0.00  0.00    +0.000 A 
ATOM     26 BR   UNL     1       2.645   2.412  17.249  0.00  0.00    +0.000 Br
ENDBRANCH  19  20
ENDBRANCH  10  19
TORSDOF 2
ENDMDL
MODEL 6
REMARK VINA RESULT:      -6.5      1.815      2.422
REMARK  Name = 
REMARK  2 active torsions:
REMARK  status: ('A' for Active; 'I' for Inactive)
REMARK    1  A    between atoms: N_10  and  C_11
REMARK    2  A    between atoms: C_11  and  C_12
REMARK                            x       y       z     vdW  Elec       q    Type
REMARK                         _______ _______ _______ _____ _____    ______ ____
ROOT
ATOM      1  O   UNL     1       2.834   1.974  22.414  0.00  0.00    +0.000 OA
ATOM      2  C   UNL     1       2.464   2.590  21.422  0.00  0.00    +0.000 C 
ATOM      3  C   UNL     1       3.308   3.548  20.663  0.00  0.00    +0.000 C 
ATOM      4  C   UNL     1       2.361   4.110  19.581  0.00  0.00    +0.000 C 
ATOM      5  C   UNL     1       1.123   3.247  19.714  0.00  0.00    +0.000 C 
ATOM      6  O   UNL     1       0.127   3.280  19.027  0.00  0.00    +0.000 OA
ATOM      7  N   UNL     1       1.272   2.454  20.813  0.00  0.00    +0.000 N 
ATOM      8  C   UNL     1       3.116   3.957  18.264  0.00  0.00    +0.000 C 
ATOM      9  O   UNL     1       2.858   3.088  17.435  0.00  0.00    +0.000 OA
ATOM     10  N   UNL     1       4.149   4.880  18.164  0.00  0.00    +0.000 N 
ATOM     11  C   UNL     1       3.866   6.231  18.231  0.00  0.00    +0.000 C 
ATOM     12  O   UNL     1       4.509   7.098  17.646  0.00  0.00    +0.000 OA
ATOM     13  C   UNL     1       2.752   6.515  19.108  0.00  0.00    +0.000 A 
ATOM     14  C   UNL     1       2.235   7.726  19.529  0.00  0.00    +0.000 A 
ATOM     15  C   UNL     1       1.265   7.453  20.521  0.00  0.00    +0.000 A 
ATOM     16  C   UNL     1       1.184   6.086  20.669  0.00  0.00    +0.000 A 
ATOM     17  N   UNL     1       2.062   5.525  19.784  0.00  0.00    +0.000 N 
ATOM     18  H   UNL     1       0.554   1.814  21.133  0.00  0.00    +0.000 HD
ENDROOT
BRANCH  10  19
ATOM     19  C   UNL     1       5.520   4.441  17.934  0.00  0.00    +0.000 C 
BRANCH  19  20
ATOM     20  C   UNL     1       6.047   4.512  16.527  0.00  0.00    +0.000 A 
ATOM     21  C   UNL     1       5.703   3.536  15.578  0.00  0.00    +0.000 A 
ATOM     22  C   UNL     1       6.071   3.669  14.242  0.00  0.00    +0.000 A 
ATOM     23  C   UNL     1       6.775   4.793  13.827  0.00  0.00    +0.000 A 
ATOM     24  C   UNL     1       7.191   5.738  14.761  0.00  0.00    +0.000 A 
ATOM     25  C   UNL     1       6.871   5.574  16.111  0.00  0.00    +0.000 A 
ATOM     26 BR   UNL     1       7.637   6.808  17.340  0.00  0.00    +0.000 Br
ENDBRANCH  19  20
ENDBRANCH  10  19
TORSDOF 2
ENDMDL
MODEL 7
REMARK VINA RESULT:      -6.5      2.681      5.149
REMARK  Name = 
REMARK  2 active torsions:
REMARK  status: ('A' for Active; 'I' for Inactive)
REMARK    1  A    between atoms: N_10  and  C_11
REMARK    2  A    between atoms: C_11  and  C_12
REMARK                            x       y       z     vdW  Elec       q    Type
REMARK                         _______ _______ _______ _____ _____    ______ ____
ROOT
ATOM      1  O   UNL     1       7.713   5.438  20.278  0.00  0.00    +0.000 OA
ATOM      2  C   UNL     1       7.024   5.152  19.307  0.00  0.00    +0.000 C 
ATOM      3  C   UNL     1       5.596   5.528  19.148  0.00  0.00    +0.000 C 
ATOM      4  C   UNL     1       5.174   4.860  17.821  0.00  0.00    +0.000 C 
ATOM      5  C   UNL     1       6.482   4.341  17.258  0.00  0.00    +0.000 C 
ATOM      6  O   UNL     1       6.657   3.792  16.193  0.00  0.00    +0.000 OA
ATOM      7  N   UNL     1       7.453   4.520  18.199  0.00  0.00    +0.000 N 
ATOM      8  C   UNL     1       4.514   5.965  17.004  0.00  0.00    +0.000 C 
ATOM      9  O   UNL     1       5.061   6.524  16.057  0.00  0.00    +0.000 OA
ATOM     10  N   UNL     1       3.258   6.284  17.507  0.00  0.00    +0.000 N 
ATOM     11  C   UNL     1       2.288   5.303  17.588  0.00  0.00    +0.000 C 
ATOM     12  O   UNL     1       1.084   5.517  17.478  0.00  0.00    +0.000 OA
ATOM     13  C   UNL     1       2.848   3.999  17.868  0.00  0.00    +0.000 A 
ATOM     14  C   UNL     1       2.218   2.798  18.133  0.00  0.00    +0.000 A 
ATOM     15  C   UNL     1       3.215   1.870  18.516  0.00  0.00    +0.000 A 
ATOM     16  C   UNL     1       4.434   2.508  18.450  0.00  0.00    +0.000 A 
ATOM     17  N   UNL     1       4.205   3.786  18.022  0.00  0.00    +0.000 N 
ATOM     18  H   UNL     1       8.410   4.214  18.069  0.00  0.00    +0.000 HD
ENDROOT
BRANCH  10  19
ATOM     19  C   UNL     1       2.937   7.651  17.897  0.00  0.00    +0.000 C 
BRANCH  19  20
ATOM     20  C   UNL     1       2.128   7.846  19.149  0.00  0.00    +0.000 A 
ATOM     21  C   UNL     1       2.132   6.880  20.167  0.00  0.00    +0.000 A 
ATOM     22  C   UNL     1       1.500   7.115  21.385  0.00  0.00    +0.000 A 
ATOM     23  C   UNL     1       0.868   8.332  21.615  0.00  0.00    +0.000 A 
ATOM     24  C   UNL     1       0.790   9.277  20.595  0.00  0.00    +0.000 A 
ATOM     25  C   UNL     1       1.374   9.017  19.353  0.00  0.00    +0.000 A 
ATOM     26 BR   UNL     1       1.057  10.277  17.964  0.00  0.00    +0.000 Br
ENDBRANCH  19  20
ENDBRANCH  10  19
TORSDOF 2
ENDMDL
MODEL 8
REMARK VINA RESULT:      -6.5     10.528     12.431
REMARK  Name = 
REMARK  2 active torsions:
REMARK  status: ('A' for Active; 'I' for Inactive)
REMARK    1  A    between atoms: N_10  and  C_11
REMARK    2  A    between atoms: C_11  and  C_12
REMARK                            x       y       z     vdW  Elec       q    Type
REMARK                         _______ _______ _______ _____ _____    ______ ____
ROOT
ATOM      1  O   UNL     1      -2.456  11.548  17.751  0.00  0.00    +0.000 OA
ATOM      2  C   UNL     1      -3.630  11.815  17.979  0.00  0.00    +0.000 C 
ATOM      3  C   UNL     1      -4.203  11.994  19.337  0.00  0.00    +0.000 C 
ATOM      4  C   UNL     1      -5.710  12.220  19.085  0.00  0.00    +0.000 C 
ATOM      5  C   UNL     1      -5.798  12.350  17.579  0.00  0.00    +0.000 C 
ATOM      6  O   UNL     1      -6.783  12.597  16.918  0.00  0.00    +0.000 OA
ATOM      7  N   UNL     1      -4.574  12.060  17.052  0.00  0.00    +0.000 N 
ATOM      8  C   UNL     1      -6.066  13.481  19.864  0.00  0.00    +0.000 C 
ATOM      9  O   UNL     1      -6.247  14.574  19.334  0.00  0.00    +0.000 OA
ATOM     10  N   UNL     1      -6.099  13.238  21.232  0.00  0.00    +0.000 N 
ATOM     11  C   UNL     1      -6.960  12.281  21.734  0.00  0.00    +0.000 C 
ATOM     12  O   UNL     1      -7.477  12.337  22.846  0.00  0.00    +0.000 OA
ATOM     13  C   UNL     1      -7.147  11.177  20.819  0.00  0.00    +0.000 A 
ATOM     14  C   UNL     1      -7.828   9.986  20.986  0.00  0.00    +0.000 A 
ATOM     15  C   UNL     1      -7.555   9.177  19.859  0.00  0.00    +0.000 A 
ATOM     16  C   UNL     1      -6.741   9.894  19.011  0.00  0.00    +0.000 A 
ATOM     17  N   UNL     1      -6.528  11.117  19.584  0.00  0.00    +0.000 N 
ATOM     18  H   UNL     1      -4.392  12.042  16.055  0.00  0.00    +0.000 HD
ENDROOT
BRANCH  10  19
ATOM     19  C   UNL     1      -5.275  14.019  22.147  0.00  0.00    +0.000 C 
BRANCH  19  20
ATOM     20  C   UNL     1      -3.878  13.531  22.415  0.00  0.00    +0.000 A 
ATOM     21  C   UNL     1      -3.648  12.434  23.259  0.00  0.00    +0.000 A 
ATOM     22  C   UNL     1      -2.375  11.890  23.403  0.00  0.00    +0.000 A 
ATOM     23  C   UNL     1      -1.309  12.423  22.687  0.00  0.00    +0.000 A 
ATOM     24  C   UNL     1      -1.499  13.556  21.899  0.00  0.00    +0.000 A 
ATOM     25  C   UNL     1      -2.765  14.136  21.802  0.00  0.00    +0.000 A 
ATOM     26 BR   UNL     1      -2.895  15.785  20.861  0.00  0.00    +0.000 Br
ENDBRANCH  19  20
ENDBRANCH  10  19
TORSDOF 2
ENDMDL
MODEL 9
REMARK VINA RESULT:      -6.1      7.107      9.037
REMARK  Name = 
REMARK  2 active torsions:
REMARK  status: ('A' for Active; 'I' for Inactive)
REMARK    1  A    between atoms: N_10  and  C_11
REMARK    2  A    between atoms: C_11  and  C_12
REMARK                            x       y       z     vdW  Elec       q    Type
REMARK                         _______ _______ _______ _____ _____    ______ ____
ROOT
ATOM      1  O   UNL     1       2.531  10.836  17.680  0.00  0.00    +0.000 OA
ATOM      2  C   UNL     1       1.445  10.858  18.247  0.00  0.00    +0.000 C 
ATOM      3  C   UNL     1       1.159  11.625  19.486  0.00  0.00    +0.000 C 
ATOM      4  C   UNL     1      -0.298  11.250  19.835  0.00  0.00    +0.000 C 
ATOM      5  C   UNL     1      -0.756  10.460  18.626  0.00  0.00    +0.000 C 
ATOM      6  O   UNL     1      -1.860  10.006  18.420  0.00  0.00    +0.000 OA
ATOM      7  N   UNL     1       0.321  10.260  17.813  0.00  0.00    +0.000 N 
ATOM      8  C   UNL     1      -1.017  12.577  20.048  0.00  0.00    +0.000 C 
ATOM      9  O   UNL     1      -1.788  13.068  19.227  0.00  0.00    +0.000 OA
ATOM     10  N   UNL     1      -0.642  13.169  21.248  0.00  0.00    +0.000 N 
ATOM     11  C   UNL     1      -0.839  12.488  22.434  0.00  0.00    +0.000 C 
ATOM     12  O   UNL     1      -1.073  13.033  23.509  0.00  0.00    +0.000 OA
ATOM     13  C   UNL     1      -0.688  11.058  22.278  0.00  0.00    +0.000 A 
ATOM     14  C   UNL     1      -0.694  10.052  23.226  0.00  0.00    +0.000 A 
ATOM     15  C   UNL     1      -0.328   8.852  22.575  0.00  0.00    +0.000 A 
ATOM     16  C   UNL     1      -0.135   9.136  21.241  0.00  0.00    +0.000 A 
ATOM     17  N   UNL     1      -0.391  10.467  21.064  0.00  0.00    +0.000 N 
ATOM     18  H   UNL     1       0.273   9.721  16.956  0.00  0.00    +0.000 HD
ENDROOT
BRANCH  10  19
ATOM     19  C   UNL     1      -0.095  14.520  21.273  0.00  0.00    +0.000 C 
BRANCH  19  20
ATOM     20  C   UNL     1       1.231  14.747  20.599  0.00  0.00    +0.000 A 
ATOM     21  C   UNL     1       2.425  14.305  21.190  0.00  0.00    +0.000 A 
ATOM     22  C   UNL     1       3.637  14.386  20.511  0.00  0.00    +0.000 A 
ATOM     23  C   UNL     1       3.674  14.893  19.218  0.00  0.00    +0.000 A 
ATOM     24  C   UNL     1       2.516  15.404  18.638  0.00  0.00    +0.000 A 
ATOM     25  C   UNL     1       1.310  15.376  19.343  0.00  0.00    +0.000 A 
ATOM     26 BR   UNL     1      -0.177  16.263  18.554  0.00  0.00    +0.000 Br
ENDBRANCH  19  20
ENDBRANCH  10  19
TORSDOF 2
ENDMDL
