MODEL 1
REMARK VINA RESULT:      -8.0      0.000      0.000
REMARK  Name = 
REMARK  4 active torsions:
REMARK  status: ('A' for Active; 'I' for Inactive)
REMARK    1  A    between atoms: C_2  and  C_3
REMARK    2  A    between atoms: C_3  and  C_15
REMARK    3  A    between atoms: C_4  and  C_5
REMARK    4  A    between atoms: C_8  and  C_9
REMARK                            x       y       z     vdW  Elec       q    Type
REMARK                         _______ _______ _______ _____ _____    ______ ____
ROOT
ATOM      1  C   UNL     1       5.915   4.176  15.789  0.00  0.00    +0.000 C 
ATOM      2  C   UNL     1       4.622   3.845  16.005  0.00  0.00    +0.000 C 
ENDROOT
BRANCH   2   3
ATOM      3  C   UNL     1       3.975   3.748  17.318  0.00  0.00    +0.000 A 
ATOM      4  C   UNL     1       3.766   2.491  17.895  0.00  0.00    +0.000 A 
ATOM      5  C   UNL     1       3.187   2.381  19.164  0.00  0.00    +0.000 A 
ATOM      6  C   UNL     1       2.805   3.528  19.874  0.00  0.00    +0.000 A 
ATOM      7  C   UNL     1       3.005   4.786  19.282  0.00  0.00    +0.000 A 
ATOM      8  C   UNL     1       3.585   4.897  18.013  0.00  0.00    +0.000 A 
BRANCH   6   9
ATOM      9  C   UNL     1       2.202   3.429  21.254  0.00  0.00    +0.000 C 
ATOM     10  F   UNL     1       0.859   3.197  21.248  0.00  0.00    +0.000 F 
ATOM     11  F   UNL     1       2.747   2.416  21.985  0.00  0.00    +0.000 F 
ATOM     12  F   UNL     1       2.383   4.559  21.991  0.00  0.00    +0.000 F 
ENDBRANCH   6   9
ENDBRANCH   2   3
BRANCH   1  13
ATOM     13  C   UNL     1       6.439   4.323  14.408  0.00  0.00    +0.000 A 
ATOM     14  C   UNL     1       5.928   3.538  13.353  0.00  0.00    +0.000 A 
ATOM     15  C   UNL     1       6.432   3.652  12.056  0.00  0.00    +0.000 A 
ATOM     16  C   UNL     1       7.443   4.565  11.782  0.00  0.00    +0.000 A 
ATOM     17  C   UNL     1       7.942   5.368  12.805  0.00  0.00    +0.000 A 
ATOM     18  C   UNL     1       7.443   5.252  14.107  0.00  0.00    +0.000 A 
ENDBRANCH   1  13
BRANCH   1  20
ATOM     19  N   UNL     1       7.571   4.532  17.995  0.00  0.00    +0.000 NA
ATOM     20  C   UNL     1       6.820   4.371  16.995  0.00  0.00    +0.000 C 
ENDBRANCH   1  20
TORSDOF 4
ENDMDL
MODEL 2
REMARK VINA RESULT:      -8.0      0.120      1.356
REMARK  Name = 
REMARK  4 active torsions:
REMARK  status: ('A' for Active; 'I' for Inactive)
REMARK    1  A    between atoms: C_2  and  C_3
REMARK    2  A    between atoms: C_3  and  C_15
REMARK    3  A    between atoms: C_4  and  C_5
REMARK    4  A    between atoms: C_8  and  C_9
REMARK                            x       y       z     vdW  Elec       q    Type
REMARK                         _______ _______ _______ _____ _____    ______ ____
ROOT
ATOM      1  C   UNL     1       5.980   4.177  15.781  0.00  0.00    +0.000 C 
ATOM      2  C   UNL     1       4.689   3.856  16.029  0.00  0.00    +0.000 C 
ENDROOT
BRANCH   2   3
ATOM      3  C   UNL     1       4.074   3.760  17.357  0.00  0.00    +0.000 A 
ATOM      4  C   UNL     1       3.601   4.917  17.985  0.00  0.00    +0.000 A 
ATOM      5  C   UNL     1       2.976   4.839  19.234  0.00  0.00    +0.000 A 
ATOM      6  C   UNL     1       2.816   3.602  19.875  0.00  0.00    +0.000 A 
ATOM      7  C   UNL     1       3.306   2.447  19.244  0.00  0.00    +0.000 A 
ATOM      8  C   UNL     1       3.931   2.524  17.994  0.00  0.00    +0.000 A 
BRANCH   6   9
ATOM      9  C   UNL     1       2.121   3.498  21.211  0.00  0.00    +0.000 C 
ATOM     10  F   UNL     1       2.503   2.413  21.942  0.00  0.00    +0.000 F 
ATOM     11  F   UNL     1       2.361   4.580  22.004  0.00  0.00    +0.000 F 
ATOM     12  F   UNL     1       0.767   3.413  21.096  0.00  0.00    +0.000 F 
ENDBRANCH   6   9
ENDBRANCH   2   3
BRANCH   1  13
ATOM     13  C   UNL     1       6.470   4.323  14.388  0.00  0.00    +0.000 A 
ATOM     14  C   UNL     1       5.930   3.543  13.345  0.00  0.00    +0.000 A 
ATOM     15  C   UNL     1       6.402   3.656  12.036  0.00  0.00    +0.000 A 
ATOM     16  C   UNL     1       7.411   4.564  11.739  0.00  0.00    +0.000 A 
ATOM     17  C   UNL     1       7.940   5.363  12.750  0.00  0.00    +0.000 A 
ATOM     18  C   UNL     1       7.472   5.247  14.064  0.00  0.00    +0.000 A 
ENDBRANCH   1  13
BRANCH   1  20
ATOM     19  N   UNL     1       7.692   4.512  17.946  0.00  0.00    +0.000 NA
ATOM     20  C   UNL     1       6.916   4.360  16.965  0.00  0.00    +0.000 C 
ENDBRANCH   1  20
TORSDOF 4
ENDMDL
MODEL 3
REMARK VINA RESULT:      -8.0      0.046      1.364
REMARK  Name = 
REMARK  4 active torsions:
REMARK  status: ('A' for Active; 'I' for Inactive)
REMARK    1  A    between atoms: C_2  and  C_3
REMARK    2  A    between atoms: C_3  and  C_15
REMARK    3  A    between atoms: C_4  and  C_5
REMARK    4  A    between atoms: C_8  and  C_9
REMARK                            x       y       z     vdW  Elec       q    Type
REMARK                         _______ _______ _______ _____ _____    ______ ____
ROOT
ATOM      1  C   UNL     1       5.908   4.146  15.803  0.00  0.00    +0.000 C 
ATOM      2  C   UNL     1       4.618   3.799  16.018  0.00  0.00    +0.000 C 
ENDROOT
BRANCH   2   3
ATOM      3  C   UNL     1       3.969   3.702  17.331  0.00  0.00    +0.000 A 
ATOM      4  C   UNL     1       3.750   2.444  17.902  0.00  0.00    +0.000 A 
ATOM      5  C   UNL     1       3.169   2.334  19.170  0.00  0.00    +0.000 A 
ATOM      6  C   UNL     1       2.796   3.481  19.884  0.00  0.00    +0.000 A 
ATOM      7  C   UNL     1       3.005   4.740  19.297  0.00  0.00    +0.000 A 
ATOM      8  C   UNL     1       3.587   4.851  18.030  0.00  0.00    +0.000 A 
BRANCH   6   9
ATOM      9  C   UNL     1       2.190   3.380  21.264  0.00  0.00    +0.000 C 
ATOM     10  F   UNL     1       2.698   2.360  22.010  0.00  0.00    +0.000 F 
ATOM     11  F   UNL     1       2.389   4.510  21.999  0.00  0.00    +0.000 F 
ATOM     12  F   UNL     1       0.843   3.187  21.234  0.00  0.00    +0.000 F 
ENDBRANCH   6   9
ENDBRANCH   2   3
BRANCH   1  13
ATOM     13  C   UNL     1       6.433   4.290  14.423  0.00  0.00    +0.000 A 
ATOM     14  C   UNL     1       7.476   5.194  14.135  0.00  0.00    +0.000 A 
ATOM     15  C   UNL     1       7.959   5.355  12.835  0.00  0.00    +0.000 A 
ATOM     16  C   UNL     1       7.422   4.601  11.799  0.00  0.00    +0.000 A 
ATOM     17  C   UNL     1       6.410   3.682  12.066  0.00  0.00    +0.000 A 
ATOM     18  C   UNL     1       5.920   3.525  13.367  0.00  0.00    +0.000 A 
ENDBRANCH   1  13
BRANCH   1  20
ATOM     19  N   UNL     1       7.553   4.536  18.011  0.00  0.00    +0.000 NA
ATOM     20  C   UNL     1       6.807   4.359  17.010  0.00  0.00    +0.000 C 
ENDBRANCH   1  20
TORSDOF 4
ENDMDL
MODEL 4
REMARK VINA RESULT:      -7.9      0.101      1.528
REMARK  Name = 
REMARK  4 active torsions:
REMARK  status: ('A' for Active; 'I' for Inactive)
REMARK    1  A    between atoms: C_2  and  C_3
REMARK    2  A    between atoms: C_3  and  C_15
REMARK    3  A    between atoms: C_4  and  C_5
REMARK    4  A    between atoms: C_8  and  C_9
REMARK                            x       y       z     vdW  Elec       q    Type
REMARK                         _______ _______ _______ _____ _____    ______ ____
ROOT
ATOM      1  C   UNL     1       6.002   4.167  15.800  0.00  0.00    +0.000 C 
ATOM      2  C   UNL     1       4.717   3.828  16.050  0.00  0.00    +0.000 C 
ENDROOT
BRANCH   2   3
ATOM      3  C   UNL     1       4.103   3.731  17.379  0.00  0.00    +0.000 A 
ATOM      4  C   UNL     1       3.748   4.898  18.064  0.00  0.00    +0.000 A 
ATOM      5  C   UNL     1       3.125   4.823  19.314  0.00  0.00    +0.000 A 
ATOM      6  C   UNL     1       2.851   3.578  19.899  0.00  0.00    +0.000 A 
ATOM      7  C   UNL     1       3.223   2.412  19.212  0.00  0.00    +0.000 A 
ATOM      8  C   UNL     1       3.845   2.486  17.961  0.00  0.00    +0.000 A 
BRANCH   6   9
ATOM      9  C   UNL     1       2.157   3.480  21.237  0.00  0.00    +0.000 C 
ATOM     10  F   UNL     1       0.813   3.277  21.141  0.00  0.00    +0.000 F 
ATOM     11  F   UNL     1       2.633   2.450  21.991  0.00  0.00    +0.000 F 
ATOM     12  F   UNL     1       2.313   4.600  21.995  0.00  0.00    +0.000 F 
ENDBRANCH   6   9
ENDBRANCH   2   3
BRANCH   1  13
ATOM     13  C   UNL     1       6.490   4.312  14.407  0.00  0.00    +0.000 A 
ATOM     14  C   UNL     1       7.506   5.237  14.087  0.00  0.00    +0.000 A 
ATOM     15  C   UNL     1       7.954   5.398  12.775  0.00  0.00    +0.000 A 
ATOM     16  C   UNL     1       7.409   4.624  11.757  0.00  0.00    +0.000 A 
ATOM     17  C   UNL     1       6.424   3.686  12.055  0.00  0.00    +0.000 A 
ATOM     18  C   UNL     1       5.969   3.528  13.369  0.00  0.00    +0.000 A 
ENDBRANCH   1  13
BRANCH   1  20
ATOM     19  N   UNL     1       7.710   4.541  17.963  0.00  0.00    +0.000 NA
ATOM     20  C   UNL     1       6.935   4.371  16.983  0.00  0.00    +0.000 C 
ENDBRANCH   1  20
TORSDOF 4
ENDMDL
MODEL 5
REMARK VINA RESULT:      -7.7      1.212      1.592
REMARK  Name = 
REMARK  4 active torsions:
REMARK  status: ('A' for Active; 'I' for Inactive)
REMARK    1  A    between atoms: C_2  and  C_3
REMARK    2  A    between atoms: C_3  and  C_15
REMARK    3  A    between atoms: C_4  and  C_5
REMARK    4  A    between atoms: C_8  and  C_9
REMARK                            x       y       z     vdW  Elec       q    Type
REMARK                         _______ _______ _______ _____ _____    ______ ____
ROOT
ATOM      1  C   UNL     1       5.344   4.590  15.583  0.00  0.00    +0.000 C 
ATOM      2  C   UNL     1       4.692   3.528  16.109  0.00  0.00    +0.000 C 
ENDROOT
BRANCH   2   3
ATOM      3  C   UNL     1       3.882   3.545  17.332  0.00  0.00    +0.000 A 
ATOM      4  C   UNL     1       4.508   3.428  18.578  0.00  0.00    +0.000 A 
ATOM      5  C   UNL     1       3.756   3.483  19.756  0.00  0.00    +0.000 A 
ATOM      6  C   UNL     1       2.365   3.652  19.705  0.00  0.00    +0.000 A 
ATOM      7  C   UNL     1       1.742   3.754  18.450  0.00  0.00    +0.000 A 
ATOM      8  C   UNL     1       2.494   3.701  17.272  0.00  0.00    +0.000 A 
BRANCH   6   9
ATOM      9  C   UNL     1       1.541   3.738  20.968  0.00  0.00    +0.000 C 
ATOM     10  F   UNL     1       2.283   3.955  22.090  0.00  0.00    +0.000 F 
ATOM     11  F   UNL     1       0.633   4.753  20.925  0.00  0.00    +0.000 F 
ATOM     12  F   UNL     1       0.824   2.605  21.207  0.00  0.00    +0.000 F 
ENDBRANCH   6   9
ENDBRANCH   2   3
BRANCH   1  13
ATOM     13  C   UNL     1       6.067   4.471  14.293  0.00  0.00    +0.000 A 
ATOM     14  C   UNL     1       5.614   3.594  13.286  0.00  0.00    +0.000 A 
ATOM     15  C   UNL     1       6.303   3.457  12.079  0.00  0.00    +0.000 A 
ATOM     16  C   UNL     1       7.449   4.209  11.846  0.00  0.00    +0.000 A 
ATOM     17  C   UNL     1       7.898   5.101  12.817  0.00  0.00    +0.000 A 
ATOM     18  C   UNL     1       7.212   5.235  14.029  0.00  0.00    +0.000 A 
ENDBRANCH   1  13
BRANCH   1  20
ATOM     19  N   UNL     1       5.324   6.983  17.000  0.00  0.00    +0.000 NA
ATOM     20  C   UNL     1       5.333   5.898  16.358  0.00  0.00    +0.000 C 
ENDBRANCH   1  20
TORSDOF 4
ENDMDL
MODEL 6
REMARK VINA RESULT:      -7.7      1.189      1.709
REMARK  Name = 
REMARK  4 active torsions:
REMARK  status: ('A' for Active; 'I' for Inactive)
REMARK    1  A    between atoms: C_2  and  C_3
REMARK    2  A    between atoms: C_3  and  C_15
REMARK    3  A    between atoms: C_4  and  C_5
REMARK    4  A    between atoms: C_8  and  C_9
REMARK                            x       y       z     vdW  Elec       q    Type
REMARK                         _______ _______ _______ _____ _____    ______ ____
ROOT
ATOM      1  C   UNL     1       5.375   4.604  15.595  0.00  0.00    +0.000 C 
ATOM      2  C   UNL     1       4.677   3.558  16.095  0.00  0.00    +0.000 C 
ENDROOT
BRANCH   2   3
ATOM      3  C   UNL     1       3.865   3.581  17.317  0.00  0.00    +0.000 A 
ATOM      4  C   UNL     1       4.475   3.369  18.557  0.00  0.00    +0.000 A 
ATOM      5  C   UNL     1       3.723   3.427  19.735  0.00  0.00    +0.000 A 
ATOM      6  C   UNL     1       2.348   3.697  19.690  0.00  0.00    +0.000 A 
ATOM      7  C   UNL     1       1.740   3.895  18.439  0.00  0.00    +0.000 A 
ATOM      8  C   UNL     1       2.491   3.838  17.260  0.00  0.00    +0.000 A 
BRANCH   6   9
ATOM      9  C   UNL     1       1.526   3.788  20.953  0.00  0.00    +0.000 C 
ATOM     10  F   UNL     1       0.884   2.629  21.272  0.00  0.00    +0.000 F 
ATOM     11  F   UNL     1       2.285   4.100  22.042  0.00  0.00    +0.000 F 
ATOM     12  F   UNL     1       0.560   4.745  20.886  0.00  0.00    +0.000 F 
ENDBRANCH   6   9
ENDBRANCH   2   3
BRANCH   1  13
ATOM     13  C   UNL     1       6.097   4.484  14.305  0.00  0.00    +0.000 A 
ATOM     14  C   UNL     1       7.245   5.260  14.042  0.00  0.00    +0.000 A 
ATOM     15  C   UNL     1       7.916   5.172  12.821  0.00  0.00    +0.000 A 
ATOM     16  C   UNL     1       7.465   4.292  11.844  0.00  0.00    +0.000 A 
ATOM     17  C   UNL     1       6.349   3.496  12.094  0.00  0.00    +0.000 A 
ATOM     18  C   UNL     1       5.672   3.588  13.315  0.00  0.00    +0.000 A 
ENDBRANCH   1  13
BRANCH   1  20
ATOM     19  N   UNL     1       5.453   6.961  17.069  0.00  0.00    +0.000 NA
ATOM     20  C   UNL     1       5.418   5.892  16.401  0.00  0.00    +0.000 C 
ENDBRANCH   1  20
TORSDOF 4
ENDMDL
MODEL 7
REMARK VINA RESULT:      -7.7      1.162      1.789
REMARK  Name = 
REMARK  4 active torsions:
REMARK  status: ('A' for Active; 'I' for Inactive)
REMARK    1  A    between atoms: C_2  and  C_3
REMARK    2  A    between atoms: C_3  and  C_15
REMARK    3  A    between atoms: C_4  and  C_5
REMARK    4  A    between atoms: C_8  and  C_9
REMARK                            x       y       z     vdW  Elec       q    Type
REMARK                         _______ _______ _______ _____ _____    ______ ____
ROOT
ATOM      1  C   UNL     1       5.456   4.635  15.613  0.00  0.00    +0.000 C 
ATOM      2  C   UNL     1       4.728   3.615  16.121  0.00  0.00    +0.000 C 
ENDROOT
BRANCH   2   3
ATOM      3  C   UNL     1       3.941   3.662  17.358  0.00  0.00    +0.000 A 
ATOM      4  C   UNL     1       2.595   4.038  17.307  0.00  0.00    +0.000 A 
ATOM      5  C   UNL     1       1.818   4.050  18.471  0.00  0.00    +0.000 A 
ATOM      6  C   UNL     1       2.378   3.687  19.704  0.00  0.00    +0.000 A 
ATOM      7  C   UNL     1       3.734   3.324  19.749  0.00  0.00    +0.000 A 
ATOM      8  C   UNL     1       4.511   3.311  18.585  0.00  0.00    +0.000 A 
BRANCH   6   9
ATOM      9  C   UNL     1       1.548   3.671  20.965  0.00  0.00    +0.000 C 
ATOM     10  F   UNL     1       1.067   2.437  21.286  0.00  0.00    +0.000 F 
ATOM     11  F   UNL     1       2.254   4.087  22.054  0.00  0.00    +0.000 F 
ATOM     12  F   UNL     1       0.461   4.487  20.890  0.00  0.00    +0.000 F 
ENDBRANCH   6   9
ENDBRANCH   2   3
BRANCH   1  13
ATOM     13  C   UNL     1       6.148   4.496  14.308  0.00  0.00    +0.000 A 
ATOM     14  C   UNL     1       7.287   5.271  14.005  0.00  0.00    +0.000 A 
ATOM     15  C   UNL     1       7.929   5.164  12.770  0.00  0.00    +0.000 A 
ATOM     16  C   UNL     1       7.458   4.266  11.819  0.00  0.00    +0.000 A 
ATOM     17  C   UNL     1       6.352   3.472  12.109  0.00  0.00    +0.000 A 
ATOM     18  C   UNL     1       5.703   3.582  13.344  0.00  0.00    +0.000 A 
ENDBRANCH   1  13
BRANCH   1  20
ATOM     19  N   UNL     1       5.655   6.978  17.098  0.00  0.00    +0.000 NA
ATOM     20  C   UNL     1       5.565   5.916  16.425  0.00  0.00    +0.000 C 
ENDBRANCH   1  20
TORSDOF 4
ENDMDL
MODEL 8
REMARK VINA RESULT:      -7.7      1.157      1.419
REMARK  Name = 
REMARK  4 active torsions:
REMARK  status: ('A' for Active; 'I' for Inactive)
REMARK    1  A    between atoms: C_2  and  C_3
REMARK    2  A    between atoms: C_3  and  C_15
REMARK    3  A    between atoms: C_4  and  C_5
REMARK    4  A    between atoms: C_8  and  C_9
REMARK                            x       y       z     vdW  Elec       q    Type
REMARK                         _______ _______ _______ _____ _____    ______ ____
ROOT
ATOM      1  C   UNL     1       5.457   4.643  15.618  0.00  0.00    +0.000 C 
ATOM      2  C   UNL     1       4.710   3.628  16.111  0.00  0.00    +0.000 C 
ENDROOT
BRANCH   2   3
ATOM      3  C   UNL     1       3.928   3.669  17.352  0.00  0.00    +0.000 A 
ATOM      4  C   UNL     1       2.576   4.024  17.305  0.00  0.00    +0.000 A 
ATOM      5  C   UNL     1       1.805   4.029  18.473  0.00  0.00    +0.000 A 
ATOM      6  C   UNL     1       2.377   3.682  19.705  0.00  0.00    +0.000 A 
ATOM      7  C   UNL     1       3.739   3.341  19.745  0.00  0.00    +0.000 A 
ATOM      8  C   UNL     1       4.510   3.334  18.578  0.00  0.00    +0.000 A 
BRANCH   6   9
ATOM      9  C   UNL     1       1.553   3.659  20.970  0.00  0.00    +0.000 C 
ATOM     10  F   UNL     1       1.086   2.420  21.295  0.00  0.00    +0.000 F 
ATOM     11  F   UNL     1       2.260   4.083  22.055  0.00  0.00    +0.000 F 
ATOM     12  F   UNL     1       0.458   4.465  20.900  0.00  0.00    +0.000 F 
ENDBRANCH   6   9
ENDBRANCH   2   3
BRANCH   1  13
ATOM     13  C   UNL     1       6.141   4.513  14.308  0.00  0.00    +0.000 A 
ATOM     14  C   UNL     1       5.674   3.608  13.333  0.00  0.00    +0.000 A 
ATOM     15  C   UNL     1       6.326   3.460  12.108  0.00  0.00    +0.000 A 
ATOM     16  C   UNL     1       7.449   4.229  11.824  0.00  0.00    +0.000 A 
ATOM     17  C   UNL     1       7.911   5.149  12.762  0.00  0.00    +0.000 A 
ATOM     18  C   UNL     1       7.262   5.293  13.994  0.00  0.00    +0.000 A 
ENDBRANCH   1  13
BRANCH   1  20
ATOM     19  N   UNL     1       5.706   6.956  17.142  0.00  0.00    +0.000 NA
ATOM     20  C   UNL     1       5.593   5.907  16.451  0.00  0.00    +0.000 C 
ENDBRANCH   1  20
TORSDOF 4
ENDMDL
MODEL 9
REMARK VINA RESULT:      -6.7      4.623      7.717
REMARK  Name = 
REMARK  4 active torsions:
REMARK  status: ('A' for Active; 'I' for Inactive)
REMARK    1  A    between atoms: C_2  and  C_3
REMARK    2  A    between atoms: C_3  and  C_15
REMARK    3  A    between atoms: C_4  and  C_5
REMARK    4  A    between atoms: C_8  and  C_9
REMARK                            x       y       z     vdW  Elec       q    Type
REMARK                         _______ _______ _______ _____ _____    ______ ____
ROOT
ATOM      1  C   UNL     1       3.838   4.533  17.965  0.00  0.00    +0.000 C 
ATOM      2  C   UNL     1       4.515   3.664  17.180  0.00  0.00    +0.000 C 
ENDROOT
BRANCH   2   3
ATOM      3  C   UNL     1       5.385   4.029  16.057  0.00  0.00    +0.000 A 
ATOM      4  C   UNL     1       4.941   3.831  14.745  0.00  0.00    +0.000 A 
ATOM      5  C   UNL     1       5.742   4.211  13.662  0.00  0.00    +0.000 A 
ATOM      6  C   UNL     1       7.000   4.792  13.876  0.00  0.00    +0.000 A 
ATOM      7  C   UNL     1       7.444   4.974  15.196  0.00  0.00    +0.000 A 
ATOM      8  C   UNL     1       6.644   4.596  16.279  0.00  0.00    +0.000 A 
BRANCH   6   9
ATOM      9  C   UNL     1       7.865   5.230  12.718  0.00  0.00    +0.000 C 
ATOM     10  F   UNL     1       7.502   6.432  12.189  0.00  0.00    +0.000 F 
ATOM     11  F   UNL     1       9.174   5.364  13.073  0.00  0.00    +0.000 F 
ATOM     12  F   UNL     1       7.848   4.345  11.684  0.00  0.00    +0.000 F 
ENDBRANCH   6   9
ENDBRANCH   2   3
BRANCH   1  13
ATOM     13  C   UNL     1       3.050   4.050  19.126  0.00  0.00    +0.000 A 
ATOM     14  C   UNL     1       3.588   3.103  20.022  0.00  0.00    +0.000 A 
ATOM     15  C   UNL     1       2.845   2.624  21.103  0.00  0.00    +0.000 A 
ATOM     16  C   UNL     1       1.556   3.095  21.321  0.00  0.00    +0.000 A 
ATOM     17  C   UNL     1       1.016   4.051  20.463  0.00  0.00    +0.000 A 
ATOM     18  C   UNL     1       1.757   4.527  19.376  0.00  0.00    +0.000 A 
ENDBRANCH   1  13
BRANCH   1  20
ATOM     19  N   UNL     1       3.930   7.237  17.321  0.00  0.00    +0.000 NA
ATOM     20  C   UNL     1       3.888   6.011  17.613  0.00  0.00    +0.000 C 
ENDBRANCH   1  20
TORSDOF 4
ENDMDL
