MODEL 1
REMARK VINA RESULT:      -6.8      0.000      0.000
REMARK  Name = 
REMARK  7 active torsions:
REMARK  status: ('A' for Active; 'I' for Inactive)
REMARK    1  A    between atoms: C_1  and  O_2
REMARK    2  A    between atoms: O_2  and  C_3
REMARK    3  A    between atoms: C_3  and  C_5
REMARK    4  A    between atoms: C_5  and  S_6
REMARK    5  A    between atoms: S_6  and  C_7
REMARK    6  A    between atoms: C_8  and  C_9
REMARK    7  A    between atoms: C_23  and  C_24
REMARK                            x       y       z     vdW  Elec       q    Type
REMARK                         _______ _______ _______ _____ _____    ______ ____
ROOT
ATOM      1  C   UNL     1       1.702   7.482  19.164  0.00  0.00    +0.000 A 
ATOM      2  C   UNL     1       2.112   8.578  18.363  0.00  0.00    +0.000 A 
ATOM      3  N   UNL     1       3.047   8.429  17.397  0.00  0.00    +0.000 NA
ATOM      4  C   UNL     1       3.617   7.245  17.169  0.00  0.00    +0.000 A 
ATOM      5  C   UNL     1       4.560   7.208  16.149  0.00  0.00    +0.000 A 
ATOM      6  C   UNL     1       5.251   6.047  15.817  0.00  0.00    +0.000 A 
ATOM      7  C   UNL     1       4.965   4.882  16.500  0.00  0.00    +0.000 A 
ATOM      8  C   UNL     1       3.989   4.897  17.500  0.00  0.00    +0.000 A 
ATOM      9  C   UNL     1       3.306   6.082  17.902  0.00  0.00    +0.000 A 
ATOM     10  C   UNL     1       2.337   6.202  18.976  0.00  0.00    +0.000 A 
ENDROOT
BRANCH   2  11
ATOM     11  C   UNL     1       1.611   9.989  18.429  0.00  0.00    +0.000 A 
ATOM     12  C   UNL     1       2.449  11.120  18.372  0.00  0.00    +0.000 A 
ATOM     13  C   UNL     1       1.958  12.421  18.523  0.00  0.00    +0.000 A 
ATOM     14  C   UNL     1       0.591  12.640  18.632  0.00  0.00    +0.000 A 
ATOM     15  C   UNL     1      -0.273  11.552  18.598  0.00  0.00    +0.000 A 
ATOM     16 BR   UNL     1      -2.141  11.847  18.637  0.00  0.00    +0.000 Br
ATOM     17  C   UNL     1       0.226  10.247  18.521  0.00  0.00    +0.000 A 
ENDBRANCH   2  11
BRANCH  10  18
ATOM     18  C   UNL     1       2.054   5.005  19.870  0.00  0.00    +0.000 A 
ATOM     19  C   UNL     1       1.164   3.980  19.481  0.00  0.00    +0.000 A 
ATOM     20  C   UNL     1       0.840   2.907  20.324  0.00  0.00    +0.000 A 
ATOM     21  C   UNL     1       1.497   2.750  21.537  0.00  0.00    +0.000 A 
ATOM     22  C   UNL     1       2.432   3.697  21.925  0.00  0.00    +0.000 A 
ATOM     23  C   UNL     1       2.650   4.833  21.135  0.00  0.00    +0.000 A 
ENDBRANCH  10  18
BRANCH   1  24
ATOM     24  S   UNL     1       0.408   7.715  20.418  0.00  0.00    +0.000 S 
BRANCH  24  25
ATOM     25  C   UNL     1       1.363   8.613  21.705  0.00  0.00    +0.000 C 
BRANCH  25  26
ATOM     26  C   UNL     1       0.436   9.391  22.621  0.00  0.00    +0.000 C 
ATOM     27  O   UNL     1       0.548   9.525  23.832  0.00  0.00    +0.000 OA
BRANCH  26  29
ATOM     28  C   UNL     1      -0.903  11.278  22.226  0.00  0.00    +0.000 C 
ATOM     29  O   UNL     1      -0.586   9.928  21.888  0.00  0.00    +0.000 OA
ENDBRANCH  26  29
ENDBRANCH  25  26
ENDBRANCH  24  25
ENDBRANCH   1  24
TORSDOF 6
ENDMDL
MODEL 2
REMARK VINA RESULT:      -6.7      0.487      1.049
REMARK  Name = 
REMARK  7 active torsions:
REMARK  status: ('A' for Active; 'I' for Inactive)
REMARK    1  A    between atoms: C_1  and  O_2
REMARK    2  A    between atoms: O_2  and  C_3
REMARK    3  A    between atoms: C_3  and  C_5
REMARK    4  A    between atoms: C_5  and  S_6
REMARK    5  A    between atoms: S_6  and  C_7
REMARK    6  A    between atoms: C_8  and  C_9
REMARK    7  A    between atoms: C_23  and  C_24
REMARK                            x       y       z     vdW  Elec       q    Type
REMARK                         _______ _______ _______ _____ _____    ______ ____
ROOT
ATOM      1  C   UNL     1       1.734   7.400  19.082  0.00  0.00    +0.000 A 
ATOM      2  C   UNL     1       2.166   8.503  18.302  0.00  0.00    +0.000 A 
ATOM      3  N   UNL     1       3.121   8.362  17.355  0.00  0.00    +0.000 NA
ATOM      4  C   UNL     1       3.692   7.179  17.126  0.00  0.00    +0.000 A 
ATOM      5  C   UNL     1       4.656   7.150  16.126  0.00  0.00    +0.000 A 
ATOM      6  C   UNL     1       5.350   5.990  15.796  0.00  0.00    +0.000 A 
ATOM      7  C   UNL     1       5.046   4.819  16.459  0.00  0.00    +0.000 A 
ATOM      8  C   UNL     1       4.048   4.826  17.438  0.00  0.00    +0.000 A 
ATOM      9  C   UNL     1       3.361   6.008  17.838  0.00  0.00    +0.000 A 
ATOM     10  C   UNL     1       2.369   6.120  18.893  0.00  0.00    +0.000 A 
ENDROOT
BRANCH   2  11
ATOM     11  C   UNL     1       1.668   9.916  18.373  0.00  0.00    +0.000 A 
ATOM     12  C   UNL     1       2.508  11.045  18.306  0.00  0.00    +0.000 A 
ATOM     13  C   UNL     1       2.020  12.347  18.463  0.00  0.00    +0.000 A 
ATOM     14  C   UNL     1       0.655  12.569  18.587  0.00  0.00    +0.000 A 
ATOM     15  C   UNL     1      -0.211  11.482  18.563  0.00  0.00    +0.000 A 
ATOM     16 BR   UNL     1      -2.078  11.781  18.624  0.00  0.00    +0.000 Br
ATOM     17  C   UNL     1       0.285  10.176  18.481  0.00  0.00    +0.000 A 
ENDBRANCH   2  11
BRANCH  10  18
ATOM     18  C   UNL     1       2.063   4.914  19.767  0.00  0.00    +0.000 A 
ATOM     19  C   UNL     1       2.615   4.772  21.058  0.00  0.00    +0.000 A 
ATOM     20  C   UNL     1       2.397   3.632  21.847  0.00  0.00    +0.000 A 
ATOM     21  C   UNL     1       1.510   2.651  21.425  0.00  0.00    +0.000 A 
ATOM     22  C   UNL     1       0.890   2.788  20.192  0.00  0.00    +0.000 A 
ATOM     23  C   UNL     1       1.217   3.865  19.358  0.00  0.00    +0.000 A 
ENDBRANCH  10  18
BRANCH   1  24
ATOM     24  S   UNL     1       0.415   7.624  20.310  0.00  0.00    +0.000 S 
BRANCH  24  25
ATOM     25  C   UNL     1       1.357   8.457  21.650  0.00  0.00    +0.000 C 
BRANCH  25  26
ATOM     26  C   UNL     1       0.710   9.778  22.023  0.00  0.00    +0.000 C 
ATOM     27  O   UNL     1       1.164  10.896  21.822  0.00  0.00    +0.000 OA
BRANCH  26  29
ATOM     28  C   UNL     1      -1.140  10.720  23.118  0.00  0.00    +0.000 C 
ATOM     29  O   UNL     1      -0.481   9.543  22.651  0.00  0.00    +0.000 OA
ENDBRANCH  26  29
ENDBRANCH  25  26
ENDBRANCH  24  25
ENDBRANCH   1  24
TORSDOF 6
ENDMDL
MODEL 3
REMARK VINA RESULT:      -6.6      1.153      1.483
REMARK  Name = 
REMARK  7 active torsions:
REMARK  status: ('A' for Active; 'I' for Inactive)
REMARK    1  A    between atoms: C_1  and  O_2
REMARK    2  A    between atoms: O_2  and  C_3
REMARK    3  A    between atoms: C_3  and  C_5
REMARK    4  A    between atoms: C_5  and  S_6
REMARK    5  A    between atoms: S_6  and  C_7
REMARK    6  A    between atoms: C_8  and  C_9
REMARK    7  A    between atoms: C_23  and  C_24
REMARK                            x       y       z     vdW  Elec       q    Type
REMARK                         _______ _______ _______ _____ _____    ______ ____
ROOT
ATOM      1  C   UNL     1       1.645   7.449  19.157  0.00  0.00    +0.000 A 
ATOM      2  C   UNL     1       2.043   8.559  18.370  0.00  0.00    +0.000 A 
ATOM      3  N   UNL     1       2.994   8.438  17.417  0.00  0.00    +0.000 NA
ATOM      4  C   UNL     1       3.593   7.268  17.187  0.00  0.00    +0.000 A 
ATOM      5  C   UNL     1       4.550   7.259  16.180  0.00  0.00    +0.000 A 
ATOM      6  C   UNL     1       5.270   6.115  15.849  0.00  0.00    +0.000 A 
ATOM      7  C   UNL     1       5.000   4.940  16.519  0.00  0.00    +0.000 A 
ATOM      8  C   UNL     1       4.009   4.926  17.505  0.00  0.00    +0.000 A 
ATOM      9  C   UNL     1       3.296   6.093  17.906  0.00  0.00    +0.000 A 
ATOM     10  C   UNL     1       2.310   6.184  18.968  0.00  0.00    +0.000 A 
ENDROOT
BRANCH   2  11
ATOM     11  C   UNL     1       1.511   9.959  18.440  0.00  0.00    +0.000 A 
ATOM     12  C   UNL     1       0.145  10.269  18.589  0.00  0.00    +0.000 A 
ATOM     13  C   UNL     1      -0.328  11.586  18.564  0.00  0.00    +0.000 A 
ATOM     14  C   UNL     1       0.567  12.645  18.495  0.00  0.00    +0.000 A 
ATOM     15  C   UNL     1       1.930  12.376  18.442  0.00  0.00    +0.000 A 
ATOM     16 BR   UNL     1       3.162  13.812  18.457  0.00  0.00    +0.000 Br
ATOM     17  C   UNL     1       2.396  11.058  18.392  0.00  0.00    +0.000 A 
ENDBRANCH   2  11
BRANCH  10  18
ATOM     18  C   UNL     1       2.040   4.974  19.849  0.00  0.00    +0.000 A 
ATOM     19  C   UNL     1       1.174   3.936  19.442  0.00  0.00    +0.000 A 
ATOM     20  C   UNL     1       0.861   2.850  20.272  0.00  0.00    +0.000 A 
ATOM     21  C   UNL     1       1.508   2.695  21.490  0.00  0.00    +0.000 A 
ATOM     22  C   UNL     1       2.421   3.656  21.897  0.00  0.00    +0.000 A 
ATOM     23  C   UNL     1       2.626   4.802  21.118  0.00  0.00    +0.000 A 
ENDBRANCH  10  18
BRANCH   1  24
ATOM     24  S   UNL     1       0.330   7.644  20.395  0.00  0.00    +0.000 S 
BRANCH  24  25
ATOM     25  C   UNL     1       1.273   8.459  21.744  0.00  0.00    +0.000 C 
BRANCH  25  26
ATOM     26  C   UNL     1       0.655   9.798  22.104  0.00  0.00    +0.000 C 
ATOM     27  O   UNL     1       1.112  10.905  21.856  0.00  0.00    +0.000 OA
BRANCH  26  29
ATOM     28  C   UNL     1      -1.206  10.792  23.132  0.00  0.00    +0.000 C 
ATOM     29  O   UNL     1      -0.516   9.593  22.781  0.00  0.00    +0.000 OA
ENDBRANCH  26  29
ENDBRANCH  25  26
ENDBRANCH  24  25
ENDBRANCH   1  24
TORSDOF 6
ENDMDL
MODEL 4
REMARK VINA RESULT:      -6.5      3.524      5.846
REMARK  Name = 
REMARK  7 active torsions:
REMARK  status: ('A' for Active; 'I' for Inactive)
REMARK    1  A    between atoms: C_1  and  O_2
REMARK    2  A    between atoms: O_2  and  C_3
REMARK    3  A    between atoms: C_3  and  C_5
REMARK    4  A    between atoms: C_5  and  S_6
REMARK    5  A    between atoms: S_6  and  C_7
REMARK    6  A    between atoms: C_8  and  C_9
REMARK    7  A    between atoms: C_23  and  C_24
REMARK                            x       y       z     vdW  Elec       q    Type
REMARK                         _______ _______ _______ _____ _____    ______ ____
ROOT
ATOM      1  C   UNL     1       3.551   6.310  17.756  0.00  0.00    +0.000 A 
ATOM      2  C   UNL     1       2.450   6.538  18.620  0.00  0.00    +0.000 A 
ATOM      3  N   UNL     1       1.742   5.511  19.139  0.00  0.00    +0.000 NA
ATOM      4  C   UNL     1       2.054   4.246  18.853  0.00  0.00    +0.000 A 
ATOM      5  C   UNL     1       1.262   3.271  19.448  0.00  0.00    +0.000 A 
ATOM      6  C   UNL     1       1.458   1.913  19.220  0.00  0.00    +0.000 A 
ATOM      7  C   UNL     1       2.497   1.516  18.404  0.00  0.00    +0.000 A 
ATOM      8  C   UNL     1       3.327   2.485  17.833  0.00  0.00    +0.000 A 
ATOM      9  C   UNL     1       3.117   3.885  18.000  0.00  0.00    +0.000 A 
ATOM     10  C   UNL     1       3.881   4.956  17.386  0.00  0.00    +0.000 A 
ENDROOT
BRANCH   2  11
ATOM     11  C   UNL     1       1.922   7.862  19.087  0.00  0.00    +0.000 A 
ATOM     12  C   UNL     1       1.747   8.975  18.242  0.00  0.00    +0.000 A 
ATOM     13  C   UNL     1       1.333  10.221  18.727  0.00  0.00    +0.000 A 
ATOM     14  C   UNL     1       0.979  10.365  20.062  0.00  0.00    +0.000 A 
ATOM     15  C   UNL     1       1.051   9.261  20.904  0.00  0.00    +0.000 A 
ATOM     16 BR   UNL     1       0.469   9.421  22.696  0.00  0.00    +0.000 Br
ATOM     17  C   UNL     1       1.535   8.036  20.433  0.00  0.00    +0.000 A 
ENDBRANCH   2  11
BRANCH  10  18
ATOM     18  C   UNL     1       4.961   4.622  16.370  0.00  0.00    +0.000 A 
ATOM     19  C   UNL     1       6.292   4.355  16.758  0.00  0.00    +0.000 A 
ATOM     20  C   UNL     1       7.312   4.115  15.827  0.00  0.00    +0.000 A 
ATOM     21  C   UNL     1       7.011   4.001  14.476  0.00  0.00    +0.000 A 
ATOM     22  C   UNL     1       5.702   4.184  14.059  0.00  0.00    +0.000 A 
ATOM     23  C   UNL     1       4.717   4.554  14.984  0.00  0.00    +0.000 A 
ENDBRANCH  10  18
BRANCH   1  24
ATOM     24  S   UNL     1       4.505   7.718  17.117  0.00  0.00    +0.000 S 
BRANCH  24  25
ATOM     25  C   UNL     1       6.016   7.583  18.154  0.00  0.00    +0.000 C 
BRANCH  25  26
ATOM     26  C   UNL     1       7.248   7.999  17.370  0.00  0.00    +0.000 C 
ATOM     27  O   UNL     1       7.904   7.296  16.614  0.00  0.00    +0.000 OA
BRANCH  26  29
ATOM     28  C   UNL     1       8.681   9.480  18.492  0.00  0.00    +0.000 C 
ATOM     29  O   UNL     1       7.545   9.304  17.645  0.00  0.00    +0.000 OA
ENDBRANCH  26  29
ENDBRANCH  25  26
ENDBRANCH  24  25
ENDBRANCH   1  24
TORSDOF 6
ENDMDL
MODEL 5
REMARK VINA RESULT:      -6.5      3.735      7.398
REMARK  Name = 
REMARK  7 active torsions:
REMARK  status: ('A' for Active; 'I' for Inactive)
REMARK    1  A    between atoms: C_1  and  O_2
REMARK    2  A    between atoms: O_2  and  C_3
REMARK    3  A    between atoms: C_3  and  C_5
REMARK    4  A    between atoms: C_5  and  S_6
REMARK    5  A    between atoms: S_6  and  C_7
REMARK    6  A    between atoms: C_8  and  C_9
REMARK    7  A    between atoms: C_23  and  C_24
REMARK                            x       y       z     vdW  Elec       q    Type
REMARK                         _______ _______ _______ _____ _____    ______ ____
ROOT
ATOM      1  C   UNL     1      -1.634  12.078  20.628  0.00  0.00    +0.000 A 
ATOM      2  C   UNL     1      -2.890  12.622  20.999  0.00  0.00    +0.000 A 
ATOM      3  N   UNL     1      -3.937  12.616  20.144  0.00  0.00    +0.000 NA
ATOM      4  C   UNL     1      -3.823  12.099  18.920  0.00  0.00    +0.000 A 
ATOM      5  C   UNL     1      -4.965  12.141  18.130  0.00  0.00    +0.000 A 
ATOM      6  C   UNL     1      -4.983  11.661  16.824  0.00  0.00    +0.000 A 
ATOM      7  C   UNL     1      -3.839  11.090  16.307  0.00  0.00    +0.000 A 
ATOM      8  C   UNL     1      -2.696  11.003  17.106  0.00  0.00    +0.000 A 
ATOM      9  C   UNL     1      -2.627  11.538  18.425  0.00  0.00    +0.000 A 
ATOM     10  C   UNL     1      -1.464  11.559  19.293  0.00  0.00    +0.000 A 
ENDROOT
BRANCH   2  11
ATOM     11  C   UNL     1      -3.257  13.244  22.313  0.00  0.00    +0.000 A 
ATOM     12  C   UNL     1      -3.564  12.502  23.471  0.00  0.00    +0.000 A 
ATOM     13  C   UNL     1      -3.986  13.112  24.657  0.00  0.00    +0.000 A 
ATOM     14  C   UNL     1      -4.014  14.496  24.756  0.00  0.00    +0.000 A 
ATOM     15  C   UNL     1      -3.627  15.260  23.661  0.00  0.00    +0.000 A 
ATOM     16 BR   UNL     1      -3.559  17.144  23.821  0.00  0.00    +0.000 Br
ATOM     17  C   UNL     1      -3.277  14.649  22.453  0.00  0.00    +0.000 A 
ENDBRANCH   2  11
BRANCH  10  18
ATOM     18  C   UNL     1      -0.124  11.073  18.766  0.00  0.00    +0.000 A 
ATOM     19  C   UNL     1       0.068   9.742  18.335  0.00  0.00    +0.000 A 
ATOM     20  C   UNL     1       1.316   9.261  17.913  0.00  0.00    +0.000 A 
ATOM     21  C   UNL     1       2.389  10.132  17.779  0.00  0.00    +0.000 A 
ATOM     22  C   UNL     1       2.224  11.464  18.124  0.00  0.00    +0.000 A 
ATOM     23  C   UNL     1       1.010  11.903  18.669  0.00  0.00    +0.000 A 
ENDBRANCH  10  18
BRANCH   1  24
ATOM     24  S   UNL     1      -0.267  12.064  21.824  0.00  0.00    +0.000 S 
BRANCH  24  25
ATOM     25  C   UNL     1      -0.548  10.432  22.619  0.00  0.00    +0.000 C 
BRANCH  25  26
ATOM     26  C   UNL     1       0.619   9.497  22.361  0.00  0.00    +0.000 C 
ATOM     27  O   UNL     1       1.759   9.614  22.790  0.00  0.00    +0.000 OA
BRANCH  26  29
ATOM     28  C   UNL     1       1.268   7.603  21.135  0.00  0.00    +0.000 C 
ATOM     29  O   UNL     1       0.216   8.478  21.543  0.00  0.00    +0.000 OA
ENDBRANCH  26  29
ENDBRANCH  25  26
ENDBRANCH  24  25
ENDBRANCH   1  24
TORSDOF 6
ENDMDL
MODEL 6
REMARK VINA RESULT:      -6.5      5.826      8.690
REMARK  Name = 
REMARK  7 active torsions:
REMARK  status: ('A' for Active; 'I' for Inactive)
REMARK    1  A    between atoms: C_1  and  O_2
REMARK    2  A    between atoms: O_2  and  C_3
REMARK    3  A    between atoms: C_3  and  C_5
REMARK    4  A    between atoms: C_5  and  S_6
REMARK    5  A    between atoms: S_6  and  C_7
REMARK    6  A    between atoms: C_8  and  C_9
REMARK    7  A    between atoms: C_23  and  C_24
REMARK                            x       y       z     vdW  Elec       q    Type
REMARK                         _______ _______ _______ _____ _____    ______ ____
ROOT
ATOM      1  C   UNL     1      -2.835  12.623  19.918  0.00  0.00    +0.000 A 
ATOM      2  C   UNL     1      -3.203  13.321  21.096  0.00  0.00    +0.000 A 
ATOM      3  N   UNL     1      -4.459  13.248  21.591  0.00  0.00    +0.000 NA
ATOM      4  C   UNL     1      -5.396  12.517  20.984  0.00  0.00    +0.000 A 
ATOM      5  C   UNL     1      -6.649  12.510  21.584  0.00  0.00    +0.000 A 
ATOM      6  C   UNL     1      -7.726  11.811  21.048  0.00  0.00    +0.000 A 
ATOM      7  C   UNL     1      -7.535  11.070  19.900  0.00  0.00    +0.000 A 
ATOM      8  C   UNL     1      -6.269  11.035  19.310  0.00  0.00    +0.000 A 
ATOM      9  C   UNL     1      -5.162  11.786  19.802  0.00  0.00    +0.000 A 
ATOM     10  C   UNL     1      -3.838  11.867  19.210  0.00  0.00    +0.000 A 
ENDROOT
BRANCH   2  11
ATOM     11  C   UNL     1      -2.327  14.191  21.948  0.00  0.00    +0.000 A 
ATOM     12  C   UNL     1      -1.954  13.870  23.268  0.00  0.00    +0.000 A 
ATOM     13  C   UNL     1      -1.207  14.744  24.064  0.00  0.00    +0.000 A 
ATOM     14  C   UNL     1      -0.717  15.927  23.528  0.00  0.00    +0.000 A 
ATOM     15  C   UNL     1      -0.987  16.231  22.199  0.00  0.00    +0.000 A 
ATOM     16 BR   UNL     1      -0.234  17.786  21.429  0.00  0.00    +0.000 Br
ATOM     17  C   UNL     1      -1.797  15.391  21.427  0.00  0.00    +0.000 A 
ENDBRANCH   2  11
BRANCH  10  18
ATOM     18  C   UNL     1      -3.568  11.192  17.876  0.00  0.00    +0.000 A 
ATOM     19  C   UNL     1      -2.762  10.037  17.775  0.00  0.00    +0.000 A 
ATOM     20  C   UNL     1      -2.447   9.446  16.543  0.00  0.00    +0.000 A 
ATOM     21  C   UNL     1      -3.038   9.910  15.376  0.00  0.00    +0.000 A 
ATOM     22  C   UNL     1      -3.894  10.999  15.439  0.00  0.00    +0.000 A 
ATOM     23  C   UNL     1      -4.096  11.662  16.657  0.00  0.00    +0.000 A 
ENDBRANCH  10  18
BRANCH   1  24
ATOM     24  S   UNL     1      -1.123  12.711  19.314  0.00  0.00    +0.000 S 
BRANCH  24  25
ATOM     25  C   UNL     1      -0.402  11.254  20.169  0.00  0.00    +0.000 C 
BRANCH  25  26
ATOM     26  C   UNL     1       0.391  11.682  21.390  0.00  0.00    +0.000 C 
ATOM     27  O   UNL     1       0.909  12.774  21.579  0.00  0.00    +0.000 OA
BRANCH  26  29
ATOM     28  C   UNL     1      -0.747  10.390  22.985  0.00  0.00    +0.000 C 
ATOM     29  O   UNL     1       0.465  10.642  22.274  0.00  0.00    +0.000 OA
ENDBRANCH  26  29
ENDBRANCH  25  26
ENDBRANCH  24  25
ENDBRANCH   1  24
TORSDOF 6
ENDMDL
MODEL 7
REMARK VINA RESULT:      -6.4      4.012      7.472
REMARK  Name = 
REMARK  7 active torsions:
REMARK  status: ('A' for Active; 'I' for Inactive)
REMARK    1  A    between atoms: C_1  and  O_2
REMARK    2  A    between atoms: O_2  and  C_3
REMARK    3  A    between atoms: C_3  and  C_5
REMARK    4  A    between atoms: C_5  and  S_6
REMARK    5  A    between atoms: S_6  and  C_7
REMARK    6  A    between atoms: C_8  and  C_9
REMARK    7  A    between atoms: C_23  and  C_24
REMARK                            x       y       z     vdW  Elec       q    Type
REMARK                         _______ _______ _______ _____ _____    ______ ____
ROOT
ATOM      1  C   UNL     1      -1.874  12.269  20.384  0.00  0.00    +0.000 A 
ATOM      2  C   UNL     1      -3.175  12.772  20.638  0.00  0.00    +0.000 A 
ATOM      3  N   UNL     1      -4.168  12.637  19.731  0.00  0.00    +0.000 NA
ATOM      4  C   UNL     1      -3.956  12.027  18.564  0.00  0.00    +0.000 A 
ATOM      5  C   UNL     1      -5.050  11.940  17.712  0.00  0.00    +0.000 A 
ATOM      6  C   UNL     1      -4.966  11.353  16.453  0.00  0.00    +0.000 A 
ATOM      7  C   UNL     1      -3.766  10.805  16.050  0.00  0.00    +0.000 A 
ATOM      8  C   UNL     1      -2.669  10.849  16.915  0.00  0.00    +0.000 A 
ATOM      9  C   UNL     1      -2.706  11.494  18.185  0.00  0.00    +0.000 A 
ATOM     10  C   UNL     1      -1.599  11.652  19.111  0.00  0.00    +0.000 A 
ENDROOT
BRANCH   2  11
ATOM     11  C   UNL     1      -3.650  13.479  21.872  0.00  0.00    +0.000 A 
ATOM     12  C   UNL     1      -4.318  12.837  22.933  0.00  0.00    +0.000 A 
ATOM     13  C   UNL     1      -4.824  13.541  24.031  0.00  0.00    +0.000 A 
ATOM     14  C   UNL     1      -4.586  14.904  24.153  0.00  0.00    +0.000 A 
ATOM     15  C   UNL     1      -3.849  15.552  23.169  0.00  0.00    +0.000 A 
ATOM     16 BR   UNL     1      -3.427  17.384  23.380  0.00  0.00    +0.000 Br
ATOM     17  C   UNL     1      -3.407  14.860  22.036  0.00  0.00    +0.000 A 
ENDBRANCH   2  11
BRANCH  10  18
ATOM     18  C   UNL     1      -0.207  11.199  18.701  0.00  0.00    +0.000 A 
ATOM     19  C   UNL     1       0.884  12.094  18.656  0.00  0.00    +0.000 A 
ATOM     20  C   UNL     1       2.157  11.705  18.212  0.00  0.00    +0.000 A 
ATOM     21  C   UNL     1       2.418  10.373  17.923  0.00  0.00    +0.000 A 
ATOM     22  C   UNL     1       1.391   9.447  18.024  0.00  0.00    +0.000 A 
ATOM     23  C   UNL     1       0.093   9.870  18.340  0.00  0.00    +0.000 A 
ENDBRANCH  10  18
BRANCH   1  24
ATOM     24  S   UNL     1      -0.580  12.430  21.650  0.00  0.00    +0.000 S 
BRANCH  24  25
ATOM     25  C   UNL     1      -1.102  11.110  22.816  0.00  0.00    +0.000 C 
BRANCH  25  26
ATOM     26  C   UNL     1      -0.032  10.039  22.932  0.00  0.00    +0.000 C 
ATOM     27  O   UNL     1       0.412   9.558  23.966  0.00  0.00    +0.000 OA
BRANCH  26  29
ATOM     28  C   UNL     1       1.257   8.544  21.662  0.00  0.00    +0.000 C 
ATOM     29  O   UNL     1       0.395   9.682  21.683  0.00  0.00    +0.000 OA
ENDBRANCH  26  29
ENDBRANCH  25  26
ENDBRANCH  24  25
ENDBRANCH   1  24
TORSDOF 6
ENDMDL
MODEL 8
REMARK VINA RESULT:      -6.4      6.301      8.475
REMARK  Name = 
REMARK  7 active torsions:
REMARK  status: ('A' for Active; 'I' for Inactive)
REMARK    1  A    between atoms: C_1  and  O_2
REMARK    2  A    between atoms: O_2  and  C_3
REMARK    3  A    between atoms: C_3  and  C_5
REMARK    4  A    between atoms: C_5  and  S_6
REMARK    5  A    between atoms: S_6  and  C_7
REMARK    6  A    between atoms: C_8  and  C_9
REMARK    7  A    between atoms: C_23  and  C_24
REMARK                            x       y       z     vdW  Elec       q    Type
REMARK                         _______ _______ _______ _____ _____    ______ ____
ROOT
ATOM      1  C   UNL     1      -3.194  12.922  20.405  0.00  0.00    +0.000 A 
ATOM      2  C   UNL     1      -4.578  12.770  20.139  0.00  0.00    +0.000 A 
ATOM      3  N   UNL     1      -5.013  12.144  19.022  0.00  0.00    +0.000 NA
ATOM      4  C   UNL     1      -4.152  11.651  18.130  0.00  0.00    +0.000 A 
ATOM      5  C   UNL     1      -4.710  11.023  17.024  0.00  0.00    +0.000 A 
ATOM      6  C   UNL     1      -3.932  10.485  16.003  0.00  0.00    +0.000 A 
ATOM      7  C   UNL     1      -2.558  10.544  16.109  0.00  0.00    +0.000 A 
ATOM      8  C   UNL     1      -1.984  11.135  17.238  0.00  0.00    +0.000 A 
ATOM      9  C   UNL     1      -2.752  11.747  18.271  0.00  0.00    +0.000 A 
ATOM     10  C   UNL     1      -2.239  12.447  19.435  0.00  0.00    +0.000 A 
ENDROOT
BRANCH   2  11
ATOM     11  C   UNL     1      -5.723  13.230  20.991  0.00  0.00    +0.000 A 
ATOM     12  C   UNL     1      -6.646  12.355  21.597  0.00  0.00    +0.000 A 
ATOM     13  C   UNL     1      -7.753  12.821  22.316  0.00  0.00    +0.000 A 
ATOM     14  C   UNL     1      -7.914  14.181  22.540  0.00  0.00    +0.000 A 
ATOM     15  C   UNL     1      -6.969  15.067  22.036  0.00  0.00    +0.000 A 
ATOM     16 BR   UNL     1      -7.121  16.911  22.428  0.00  0.00    +0.000 Br
ATOM     17  C   UNL     1      -5.904  14.604  21.255  0.00  0.00    +0.000 A 
ENDBRANCH   2  11
BRANCH  10  18
ATOM     18  C   UNL     1      -0.743  12.678  19.574  0.00  0.00    +0.000 A 
ATOM     19  C   UNL     1      -0.105  13.794  18.990  0.00  0.00    +0.000 A 
ATOM     20  C   UNL     1       1.283  13.982  19.049  0.00  0.00    +0.000 A 
ATOM     21  C   UNL     1       2.070  13.129  19.811  0.00  0.00    +0.000 A 
ATOM     22  C   UNL     1       1.473  12.060  20.460  0.00  0.00    +0.000 A 
ATOM     23  C   UNL     1       0.106  11.808  20.285  0.00  0.00    +0.000 A 
ENDBRANCH  10  18
BRANCH   1  24
ATOM     24  S   UNL     1      -2.653  13.728  21.941  0.00  0.00    +0.000 S 
BRANCH  24  25
ATOM     25  C   UNL     1      -2.933  12.363  23.139  0.00  0.00    +0.000 C 
BRANCH  25  26
ATOM     26  C   UNL     1      -3.980  12.753  24.166  0.00  0.00    +0.000 C 
ATOM     27  O   UNL     1      -4.737  11.998  24.760  0.00  0.00    +0.000 OA
BRANCH  26  29
ATOM     28  C   UNL     1      -3.099  14.570  25.361  0.00  0.00    +0.000 C 
ATOM     29  O   UNL     1      -3.975  14.110  24.332  0.00  0.00    +0.000 OA
ENDBRANCH  26  29
ENDBRANCH  25  26
ENDBRANCH  24  25
ENDBRANCH   1  24
TORSDOF 6
ENDMDL
MODEL 9
REMARK VINA RESULT:      -6.4      1.128      1.687
REMARK  Name = 
REMARK  7 active torsions:
REMARK  status: ('A' for Active; 'I' for Inactive)
REMARK    1  A    between atoms: C_1  and  O_2
REMARK    2  A    between atoms: O_2  and  C_3
REMARK    3  A    between atoms: C_3  and  C_5
REMARK    4  A    between atoms: C_5  and  S_6
REMARK    5  A    between atoms: S_6  and  C_7
REMARK    6  A    between atoms: C_8  and  C_9
REMARK    7  A    between atoms: C_23  and  C_24
REMARK                            x       y       z     vdW  Elec       q    Type
REMARK                         _______ _______ _______ _____ _____    ______ ____
ROOT
ATOM      1  C   UNL     1       1.629   7.472  19.171  0.00  0.00    +0.000 A 
ATOM      2  C   UNL     1       2.025   8.580  18.379  0.00  0.00    +0.000 A 
ATOM      3  N   UNL     1       2.973   8.455  17.423  0.00  0.00    +0.000 NA
ATOM      4  C   UNL     1       3.570   7.285  17.195  0.00  0.00    +0.000 A 
ATOM      5  C   UNL     1       4.524   7.272  16.184  0.00  0.00    +0.000 A 
ATOM      6  C   UNL     1       5.243   6.128  15.855  0.00  0.00    +0.000 A 
ATOM      7  C   UNL     1       4.975   4.954  16.529  0.00  0.00    +0.000 A 
ATOM      8  C   UNL     1       3.988   4.943  17.519  0.00  0.00    +0.000 A 
ATOM      9  C   UNL     1       3.276   6.112  17.919  0.00  0.00    +0.000 A 
ATOM     10  C   UNL     1       2.294   6.206  18.984  0.00  0.00    +0.000 A 
ENDROOT
BRANCH   2  11
ATOM     11  C   UNL     1       1.493   9.980  18.446  0.00  0.00    +0.000 A 
ATOM     12  C   UNL     1       0.125  10.291  18.571  0.00  0.00    +0.000 A 
ATOM     13  C   UNL     1      -0.346  11.609  18.545  0.00  0.00    +0.000 A 
ATOM     14  C   UNL     1       0.551  12.667  18.497  0.00  0.00    +0.000 A 
ATOM     15  C   UNL     1       1.915  12.397  18.468  0.00  0.00    +0.000 A 
ATOM     16 BR   UNL     1       3.147  13.831  18.512  0.00  0.00    +0.000 Br
ATOM     17  C   UNL     1       2.379  11.078  18.419  0.00  0.00    +0.000 A 
ENDBRANCH   2  11
BRANCH  10  18
ATOM     18  C   UNL     1       2.027   5.000  19.869  0.00  0.00    +0.000 A 
ATOM     19  C   UNL     1       2.643   4.851  21.131  0.00  0.00    +0.000 A 
ATOM     20  C   UNL     1       2.461   3.711  21.926  0.00  0.00    +0.000 A 
ATOM     21  C   UNL     1       1.549   2.735  21.548  0.00  0.00    +0.000 A 
ATOM     22  C   UNL     1       0.868   2.877  20.349  0.00  0.00    +0.000 A 
ATOM     23  C   UNL     1       1.157   3.955  19.501  0.00  0.00    +0.000 A 
ENDBRANCH  10  18
BRANCH   1  24
ATOM     24  S   UNL     1       0.318   7.672  20.413  0.00  0.00    +0.000 S 
BRANCH  24  25
ATOM     25  C   UNL     1       1.224   8.637  21.687  0.00  0.00    +0.000 C 
BRANCH  25  26
ATOM     26  C   UNL     1       0.298   9.622  22.378  0.00  0.00    +0.000 C 
ATOM     27  O   UNL     1      -0.600   9.353  23.163  0.00  0.00    +0.000 OA
BRANCH  26  29
ATOM     28  C   UNL     1      -0.454  11.835  22.162  0.00  0.00    +0.000 C 
ATOM     29  O   UNL     1       0.603  10.893  21.977  0.00  0.00    +0.000 OA
ENDBRANCH  26  29
ENDBRANCH  25  26
ENDBRANCH  24  25
ENDBRANCH   1  24
TORSDOF 6
ENDMDL
