MODEL 1
REMARK VINA RESULT:      -7.4      0.000      0.000
REMARK  Name = 
REMARK  8 active torsions:
REMARK  status: ('A' for Active; 'I' for Inactive)
REMARK    1  A    between atoms: N_1  and  S_2
REMARK    2  A    between atoms: S_2  and  C_5
REMARK    3  A    between atoms: C_8  and  C_9
REMARK    4  A    between atoms: C_9  and  C_10
REMARK    5  A    between atoms: C_10  and  N_11
REMARK    6  A    between atoms: C_12  and  C_13
REMARK    7  A    between atoms: C_17  and  C_18
REMARK    8  A    between atoms: C_18  and  O_20
REMARK                            x       y       z     vdW  Elec       q    Type
REMARK                         _______ _______ _______ _____ _____    ______ ____
ROOT
ATOM      1  C   UNL     1       2.343   2.952  19.926  0.00  0.00    +0.000 C 
ENDROOT
BRANCH   1   5
ATOM      2  C   UNL     1       5.345   4.258  17.132  0.00  0.00    +0.000 A 
ATOM      3  C   UNL     1       5.648   4.207  18.492  0.00  0.00    +0.000 A 
ATOM      4  C   UNL     1       4.673   3.777  19.394  0.00  0.00    +0.000 A 
ATOM      5  C   UNL     1       3.399   3.398  18.941  0.00  0.00    +0.000 A 
ATOM      6  C   UNL     1       3.109   3.461  17.571  0.00  0.00    +0.000 A 
ATOM      7  C   UNL     1       4.080   3.889  16.665  0.00  0.00    +0.000 A 
BRANCH   2   8
ATOM      8  S   UNL     1       6.579   4.764  15.977  0.00  0.00    +0.000 S 
ATOM      9  O   UNL     1       7.885   4.470  16.530  0.00  0.00    +0.000 OA
ATOM     10  O   UNL     1       6.238   6.060  15.444  0.00  0.00    +0.000 OA
BRANCH   8  11
ATOM     11  N   UNL     1       6.342   3.693  14.706  0.00  0.00    +0.000 NA
ATOM     12  H   UNL     1       7.077   2.986  14.721  0.00  0.00    +0.000 HD
ATOM     13  H   UNL     1       6.286   4.202  13.822  0.00  0.00    +0.000 HD
ENDBRANCH   8  11
ENDBRANCH   2   8
ENDBRANCH   1   5
BRANCH   1  14
ATOM     14  C   UNL     1       2.098   3.996  21.018  0.00  0.00    +0.000 C 
BRANCH  14  15
ATOM     15  N   UNL     1       1.539   5.201  20.390  0.00  0.00    +0.000 NA
ATOM     16  C   UNL     1       2.374   6.183  20.336  0.00  0.00    +0.000 C 
BRANCH  16  17
ATOM     17  C   UNL     1       2.006   7.473  19.722  0.00  0.00    +0.000 A 
ATOM     18  C   UNL     1       2.271   7.677  18.365  0.00  0.00    +0.000 A 
ATOM     19  C   UNL     1       1.902   8.883  17.765  0.00  0.00    +0.000 A 
ATOM     20  C   UNL     1       1.282   9.877  18.525  0.00  0.00    +0.000 A 
ATOM     21  C   UNL     1       1.032   9.679  19.889  0.00  0.00    +0.000 A 
ATOM     22  C   UNL     1       1.383   8.465  20.488  0.00  0.00    +0.000 A 
BRANCH  21  23
ATOM     23  C   UNL     1       0.347  10.766  20.636  0.00  0.00    +0.000 C 
ATOM     24  O   UNL     1      -0.435  11.532  20.103  0.00  0.00    +0.000 OA
BRANCH  23  25
ATOM     25  O   UNL     1       0.697  10.858  21.936  0.00  0.00    +0.000 OA
ATOM     26  H   UNL     1       1.621  10.629  22.147  0.00  0.00    +0.000 HD
ENDBRANCH  23  25
ENDBRANCH  21  23
ENDBRANCH  16  17
ENDBRANCH  14  15
ENDBRANCH   1  14
TORSDOF 8
ENDMDL
MODEL 2
REMARK VINA RESULT:      -7.4      4.239      8.162
REMARK  Name = 
REMARK  8 active torsions:
REMARK  status: ('A' for Active; 'I' for Inactive)
REMARK    1  A    between atoms: N_1  and  S_2
REMARK    2  A    between atoms: S_2  and  C_5
REMARK    3  A    between atoms: C_8  and  C_9
REMARK    4  A    between atoms: C_9  and  C_10
REMARK    5  A    between atoms: C_10  and  N_11
REMARK    6  A    between atoms: C_12  and  C_13
REMARK    7  A    between atoms: C_17  and  C_18
REMARK    8  A    between atoms: C_18  and  O_20
REMARK                            x       y       z     vdW  Elec       q    Type
REMARK                         _______ _______ _______ _____ _____    ______ ____
ROOT
ATOM      1  C   UNL     1       6.905   5.168  18.590  0.00  0.00    +0.000 C 
ENDROOT
BRANCH   1   5
ATOM      2  C   UNL     1       2.990   3.904  19.855  0.00  0.00    +0.000 A 
ATOM      3  C   UNL     1       3.229   5.256  19.605  0.00  0.00    +0.000 A 
ATOM      4  C   UNL     1       4.499   5.660  19.190  0.00  0.00    +0.000 A 
ATOM      5  C   UNL     1       5.529   4.720  19.022  0.00  0.00    +0.000 A 
ATOM      6  C   UNL     1       5.273   3.367  19.283  0.00  0.00    +0.000 A 
ATOM      7  C   UNL     1       4.006   2.956  19.698  0.00  0.00    +0.000 A 
BRANCH   2   8
ATOM      8  S   UNL     1       1.381   3.374  20.346  0.00  0.00    +0.000 S 
ATOM      9  O   UNL     1       0.976   2.268  19.502  0.00  0.00    +0.000 OA
ATOM     10  O   UNL     1       0.541   4.525  20.568  0.00  0.00    +0.000 OA
BRANCH   8  11
ATOM     11  N   UNL     1       1.662   2.736  21.872  0.00  0.00    +0.000 NA
ATOM     12  H   UNL     1       1.175   1.845  21.960  0.00  0.00    +0.000 HD
ATOM     13  H   UNL     1       1.401   3.414  22.591  0.00  0.00    +0.000 HD
ENDBRANCH   8  11
ENDBRANCH   2   8
ENDBRANCH   1   5
BRANCH   1  14
ATOM     14  C   UNL     1       6.854   6.439  17.737  0.00  0.00    +0.000 C 
BRANCH  14  15
ATOM     15  N   UNL     1       7.291   6.102  16.376  0.00  0.00    +0.000 NA
ATOM     16  C   UNL     1       6.436   5.386  15.727  0.00  0.00    +0.000 C 
BRANCH  16  17
ATOM     17  C   UNL     1       6.684   4.963  14.336  0.00  0.00    +0.000 A 
ATOM     18  C   UNL     1       7.755   5.528  13.637  0.00  0.00    +0.000 A 
ATOM     19  C   UNL     1       8.017   5.116  12.330  0.00  0.00    +0.000 A 
ATOM     20  C   UNL     1       7.205   4.153  11.726  0.00  0.00    +0.000 A 
ATOM     21  C   UNL     1       6.122   3.600  12.420  0.00  0.00    +0.000 A 
ATOM     22  C   UNL     1       5.867   3.997  13.737  0.00  0.00    +0.000 A 
BRANCH  21  23
ATOM     23  C   UNL     1       5.311   2.562  11.733  0.00  0.00    +0.000 C 
ATOM     24  O   UNL     1       4.189   2.782  11.312  0.00  0.00    +0.000 OA
BRANCH  23  25
ATOM     25  O   UNL     1       5.900   1.350  11.656  0.00  0.00    +0.000 OA
ATOM     26  H   UNL     1       6.360   1.152  10.819  0.00  0.00    +0.000 HD
ENDBRANCH  23  25
ENDBRANCH  21  23
ENDBRANCH  16  17
ENDBRANCH  14  15
ENDBRANCH   1  14
TORSDOF 8
ENDMDL
MODEL 3
REMARK VINA RESULT:      -7.3      0.913      1.675
REMARK  Name = 
REMARK  8 active torsions:
REMARK  status: ('A' for Active; 'I' for Inactive)
REMARK    1  A    between atoms: N_1  and  S_2
REMARK    2  A    between atoms: S_2  and  C_5
REMARK    3  A    between atoms: C_8  and  C_9
REMARK    4  A    between atoms: C_9  and  C_10
REMARK    5  A    between atoms: C_10  and  N_11
REMARK    6  A    between atoms: C_12  and  C_13
REMARK    7  A    between atoms: C_17  and  C_18
REMARK    8  A    between atoms: C_18  and  O_20
REMARK                            x       y       z     vdW  Elec       q    Type
REMARK                         _______ _______ _______ _____ _____    ______ ____
ROOT
ATOM      1  C   UNL     1       2.592   2.596  19.657  0.00  0.00    +0.000 C 
ENDROOT
BRANCH   1   5
ATOM      2  C   UNL     1       5.490   4.516  17.120  0.00  0.00    +0.000 A 
ATOM      3  C   UNL     1       4.345   3.954  16.554  0.00  0.00    +0.000 A 
ATOM      4  C   UNL     1       3.405   3.337  17.381  0.00  0.00    +0.000 A 
ATOM      5  C   UNL     1       3.605   3.282  18.771  0.00  0.00    +0.000 A 
ATOM      6  C   UNL     1       4.763   3.846  19.322  0.00  0.00    +0.000 A 
ATOM      7  C   UNL     1       5.706   4.465  18.500  0.00  0.00    +0.000 A 
BRANCH   2   8
ATOM      8  S   UNL     1       6.668   5.331  16.090  0.00  0.00    +0.000 S 
ATOM      9  O   UNL     1       5.984   5.864  14.929  0.00  0.00    +0.000 OA
ATOM     10  O   UNL     1       7.857   4.522  15.985  0.00  0.00    +0.000 OA
BRANCH   8  11
ATOM     11  N   UNL     1       7.116   6.647  17.030  0.00  0.00    +0.000 NA
ATOM     12  H   UNL     1       6.299   7.001  17.526  0.00  0.00    +0.000 HD
ATOM     13  H   UNL     1       7.577   7.352  16.452  0.00  0.00    +0.000 HD
ENDBRANCH   8  11
ENDBRANCH   2   8
ENDBRANCH   1   5
BRANCH   1  14
ATOM     14  C   UNL     1       2.009   3.546  20.706  0.00  0.00    +0.000 C 
BRANCH  14  15
ATOM     15  N   UNL     1       1.593   4.783  20.031  0.00  0.00    +0.000 NA
ATOM     16  C   UNL     1       2.173   5.838  20.495  0.00  0.00    +0.000 C 
BRANCH  16  17
ATOM     17  C   UNL     1       1.902   7.174  19.932  0.00  0.00    +0.000 A 
ATOM     18  C   UNL     1       2.308   7.455  18.624  0.00  0.00    +0.000 A 
ATOM     19  C   UNL     1       2.033   8.706  18.071  0.00  0.00    +0.000 A 
ATOM     20  C   UNL     1       1.365   9.671  18.829  0.00  0.00    +0.000 A 
ATOM     21  C   UNL     1       0.973   9.396  20.144  0.00  0.00    +0.000 A 
ATOM     22  C   UNL     1       1.230   8.137  20.696  0.00  0.00    +0.000 A 
BRANCH  21  23
ATOM     23  C   UNL     1       0.243  10.455  20.889  0.00  0.00    +0.000 C 
ATOM     24  O   UNL     1       0.667  10.935  21.925  0.00  0.00    +0.000 OA
BRANCH  23  25
ATOM     25  O   UNL     1      -0.943  10.805  20.349  0.00  0.00    +0.000 OA
ATOM     26  H   UNL     1      -1.671  10.956  20.979  0.00  0.00    +0.000 HD
ENDBRANCH  23  25
ENDBRANCH  21  23
ENDBRANCH  16  17
ENDBRANCH  14  15
ENDBRANCH   1  14
TORSDOF 8
ENDMDL
MODEL 4
REMARK VINA RESULT:      -7.2      0.817      1.215
REMARK  Name = 
REMARK  8 active torsions:
REMARK  status: ('A' for Active; 'I' for Inactive)
REMARK    1  A    between atoms: N_1  and  S_2
REMARK    2  A    between atoms: S_2  and  C_5
REMARK    3  A    between atoms: C_8  and  C_9
REMARK    4  A    between atoms: C_9  and  C_10
REMARK    5  A    between atoms: C_10  and  N_11
REMARK    6  A    between atoms: C_12  and  C_13
REMARK    7  A    between atoms: C_17  and  C_18
REMARK    8  A    between atoms: C_18  and  O_20
REMARK                            x       y       z     vdW  Elec       q    Type
REMARK                         _______ _______ _______ _____ _____    ______ ____
ROOT
ATOM      1  C   UNL     1       2.039   2.994  19.638  0.00  0.00    +0.000 C 
ENDROOT
BRANCH   1   5
ATOM      2  C   UNL     1       5.422   4.198  17.265  0.00  0.00    +0.000 A 
ATOM      3  C   UNL     1       5.561   4.074  18.647  0.00  0.00    +0.000 A 
ATOM      4  C   UNL     1       4.462   3.678  19.412  0.00  0.00    +0.000 A 
ATOM      5  C   UNL     1       3.228   3.404  18.801  0.00  0.00    +0.000 A 
ATOM      6  C   UNL     1       3.105   3.540  17.411  0.00  0.00    +0.000 A 
ATOM      7  C   UNL     1       4.199   3.935  16.642  0.00  0.00    +0.000 A 
BRANCH   2   8
ATOM      8  S   UNL     1       6.811   4.662  16.282  0.00  0.00    +0.000 S 
ATOM      9  O   UNL     1       6.606   4.185  14.929  0.00  0.00    +0.000 OA
ATOM     10  O   UNL     1       8.027   4.409  17.015  0.00  0.00    +0.000 OA
BRANCH   8  11
ATOM     11  N   UNL     1       6.673   6.334  16.229  0.00  0.00    +0.000 NA
ATOM     12  H   UNL     1       6.894   6.661  15.289  0.00  0.00    +0.000 HD
ATOM     13  H   UNL     1       7.254   6.758  16.953  0.00  0.00    +0.000 HD
ENDBRANCH   8  11
ENDBRANCH   2   8
ENDBRANCH   1   5
BRANCH   1  14
ATOM     14  C   UNL     1       1.785   3.969  20.791  0.00  0.00    +0.000 C 
BRANCH  14  15
ATOM     15  N   UNL     1       1.308   5.239  20.227  0.00  0.00    +0.000 NA
ATOM     16  C   UNL     1       2.141   6.212  20.381  0.00  0.00    +0.000 C 
BRANCH  16  17
ATOM     17  C   UNL     1       1.851   7.562  19.864  0.00  0.00    +0.000 A 
ATOM     18  C   UNL     1       2.192   7.870  18.543  0.00  0.00    +0.000 A 
ATOM     19  C   UNL     1       1.898   9.135  18.033  0.00  0.00    +0.000 A 
ATOM     20  C   UNL     1       1.277  10.087  18.846  0.00  0.00    +0.000 A 
ATOM     21  C   UNL     1       0.952   9.785  20.174  0.00  0.00    +0.000 A 
ATOM     22  C   UNL     1       1.228   8.511  20.683  0.00  0.00    +0.000 A 
BRANCH  21  23
ATOM     23  C   UNL     1       0.269  10.831  20.979  0.00  0.00    +0.000 C 
ATOM     24  O   UNL     1       0.350  10.876  22.194  0.00  0.00    +0.000 OA
BRANCH  23  25
ATOM     25  O   UNL     1      -0.479  11.693  20.260  0.00  0.00    +0.000 OA
ATOM     26  H   UNL     1      -1.429  11.721  20.481  0.00  0.00    +0.000 HD
ENDBRANCH  23  25
ENDBRANCH  21  23
ENDBRANCH  16  17
ENDBRANCH  14  15
ENDBRANCH   1  14
TORSDOF 8
ENDMDL
MODEL 5
REMARK VINA RESULT:      -7.2      1.222      1.399
REMARK  Name = 
REMARK  8 active torsions:
REMARK  status: ('A' for Active; 'I' for Inactive)
REMARK    1  A    between atoms: N_1  and  S_2
REMARK    2  A    between atoms: S_2  and  C_5
REMARK    3  A    between atoms: C_8  and  C_9
REMARK    4  A    between atoms: C_9  and  C_10
REMARK    5  A    between atoms: C_10  and  N_11
REMARK    6  A    between atoms: C_12  and  C_13
REMARK    7  A    between atoms: C_17  and  C_18
REMARK    8  A    between atoms: C_18  and  O_20
REMARK                            x       y       z     vdW  Elec       q    Type
REMARK                         _______ _______ _______ _____ _____    ______ ____
ROOT
ATOM      1  C   UNL     1       2.061   2.311  19.386  0.00  0.00    +0.000 C 
ENDROOT
BRANCH   1   5
ATOM      2  C   UNL     1       5.318   4.390  17.492  0.00  0.00    +0.000 A 
ATOM      3  C   UNL     1       5.440   3.987  18.821  0.00  0.00    +0.000 A 
ATOM      4  C   UNL     1       4.383   3.308  19.430  0.00  0.00    +0.000 A 
ATOM      5  C   UNL     1       3.207   3.029  18.714  0.00  0.00    +0.000 A 
ATOM      6  C   UNL     1       3.100   3.447  17.380  0.00  0.00    +0.000 A 
ATOM      7  C   UNL     1       4.153   4.125  16.767  0.00  0.00    +0.000 A 
BRANCH   2   8
ATOM      8  S   UNL     1       6.660   5.216  16.699  0.00  0.00    +0.000 S 
ATOM      9  O   UNL     1       6.890   6.482  17.365  0.00  0.00    +0.000 OA
ATOM     10  O   UNL     1       6.513   5.110  15.267  0.00  0.00    +0.000 OA
BRANCH   8  11
ATOM     11  N   UNL     1       7.964   4.229  17.078  0.00  0.00    +0.000 NA
ATOM     12  H   UNL     1       8.825   4.775  17.030  0.00  0.00    +0.000 HD
ATOM     13  H   UNL     1       7.971   3.407  16.472  0.00  0.00    +0.000 HD
ENDBRANCH   8  11
ENDBRANCH   2   8
ENDBRANCH   1   5
BRANCH   1  14
ATOM     14  C   UNL     1       1.577   3.045  20.639  0.00  0.00    +0.000 C 
BRANCH  14  15
ATOM     15  N   UNL     1       1.166   4.401  20.252  0.00  0.00    +0.000 NA
ATOM     16  C   UNL     1       1.889   5.327  20.785  0.00  0.00    +0.000 C 
BRANCH  16  17
ATOM     17  C   UNL     1       1.646   6.753  20.500  0.00  0.00    +0.000 A 
ATOM     18  C   UNL     1       2.047   7.277  19.268  0.00  0.00    +0.000 A 
ATOM     19  C   UNL     1       1.797   8.619  18.975  0.00  0.00    +0.000 A 
ATOM     20  C   UNL     1       1.159   9.430  19.917  0.00  0.00    +0.000 A 
ATOM     21  C   UNL     1       0.773   8.910  21.158  0.00  0.00    +0.000 A 
ATOM     22  C   UNL     1       1.004   7.561  21.447  0.00  0.00    +0.000 A 
BRANCH  21  23
ATOM     23  C   UNL     1       0.075   9.816  22.107  0.00  0.00    +0.000 C 
ATOM     24  O   UNL     1       0.251  11.022  22.107  0.00  0.00    +0.000 OA
BRANCH  23  25
ATOM     25  O   UNL     1      -0.729   9.191  22.992  0.00  0.00    +0.000 OA
ATOM     26  H   UNL     1      -0.640   9.472  23.922  0.00  0.00    +0.000 HD
ENDBRANCH  23  25
ENDBRANCH  21  23
ENDBRANCH  16  17
ENDBRANCH  14  15
ENDBRANCH   1  14
TORSDOF 8
ENDMDL
MODEL 6
REMARK VINA RESULT:      -7.2      6.423      7.130
REMARK  Name = 
REMARK  8 active torsions:
REMARK  status: ('A' for Active; 'I' for Inactive)
REMARK    1  A    between atoms: N_1  and  S_2
REMARK    2  A    between atoms: S_2  and  C_5
REMARK    3  A    between atoms: C_8  and  C_9
REMARK    4  A    between atoms: C_9  and  C_10
REMARK    5  A    between atoms: C_10  and  N_11
REMARK    6  A    between atoms: C_12  and  C_13
REMARK    7  A    between atoms: C_17  and  C_18
REMARK    8  A    between atoms: C_18  and  O_20
REMARK                            x       y       z     vdW  Elec       q    Type
REMARK                         _______ _______ _______ _____ _____    ______ ____
ROOT
ATOM      1  C   UNL     1       7.474   6.191  18.099  0.00  0.00    +0.000 C 
ENDROOT
BRANCH   1   5
ATOM      2  C   UNL     1       3.624   4.271  18.221  0.00  0.00    +0.000 A 
ATOM      3  C   UNL     1       4.452   4.223  19.342  0.00  0.00    +0.000 A 
ATOM      4  C   UNL     1       5.698   4.852  19.300  0.00  0.00    +0.000 A 
ATOM      5  C   UNL     1       6.117   5.529  18.143  0.00  0.00    +0.000 A 
ATOM      6  C   UNL     1       5.274   5.562  17.023  0.00  0.00    +0.000 A 
ATOM      7  C   UNL     1       4.028   4.936  17.060  0.00  0.00    +0.000 A 
BRANCH   2   8
ATOM      8  S   UNL     1       2.032   3.512  18.273  0.00  0.00    +0.000 S 
ATOM      9  O   UNL     1       1.201   4.099  17.242  0.00  0.00    +0.000 OA
ATOM     10  O   UNL     1       1.598   3.395  19.644  0.00  0.00    +0.000 OA
BRANCH   8  11
ATOM     11  N   UNL     1       2.366   1.941  17.785  0.00  0.00    +0.000 NA
ATOM     12  H   UNL     1       3.078   1.542  18.397  0.00  0.00    +0.000 HD
ATOM     13  H   UNL     1       2.626   1.927  16.798  0.00  0.00    +0.000 HD
ENDBRANCH   8  11
ENDBRANCH   2   8
ENDBRANCH   1   5
BRANCH   1  14
ATOM     14  C   UNL     1       7.397   7.624  17.567  0.00  0.00    +0.000 C 
BRANCH  14  15
ATOM     15  N   UNL     1       8.444   8.419  18.222  0.00  0.00    +0.000 NA
ATOM     16  C   UNL     1       8.331   9.687  18.012  0.00  0.00    +0.000 C 
BRANCH  16  17
ATOM     17  C   UNL     1       9.276  10.652  18.604  0.00  0.00    +0.000 A 
ATOM     18  C   UNL     1      10.403  11.033  17.871  0.00  0.00    +0.000 A 
ATOM     19  C   UNL     1      11.291  11.967  18.408  0.00  0.00    +0.000 A 
ATOM     20  C   UNL     1      11.053  12.505  19.675  0.00  0.00    +0.000 A 
ATOM     21  C   UNL     1       9.933  12.110  20.416  0.00  0.00    +0.000 A 
ATOM     22  C   UNL     1       9.031  11.189  19.873  0.00  0.00    +0.000 A 
BRANCH  21  23
ATOM     23  C   UNL     1       9.722  12.738  21.747  0.00  0.00    +0.000 C 
ATOM     24  O   UNL     1       9.954  13.915  21.957  0.00  0.00    +0.000 OA
BRANCH  23  25
ATOM     25  O   UNL     1       9.298  11.890  22.706  0.00  0.00    +0.000 OA
ATOM     26  H   UNL     1       8.597  11.265  22.444  0.00  0.00    +0.000 HD
ENDBRANCH  23  25
ENDBRANCH  21  23
ENDBRANCH  16  17
ENDBRANCH  14  15
ENDBRANCH   1  14
TORSDOF 8
ENDMDL
MODEL 7
REMARK VINA RESULT:      -7.2      6.845      8.006
REMARK  Name = 
REMARK  8 active torsions:
REMARK  status: ('A' for Active; 'I' for Inactive)
REMARK    1  A    between atoms: N_1  and  S_2
REMARK    2  A    between atoms: S_2  and  C_5
REMARK    3  A    between atoms: C_8  and  C_9
REMARK    4  A    between atoms: C_9  and  C_10
REMARK    5  A    between atoms: C_10  and  N_11
REMARK    6  A    between atoms: C_12  and  C_13
REMARK    7  A    between atoms: C_17  and  C_18
REMARK    8  A    between atoms: C_18  and  O_20
REMARK                            x       y       z     vdW  Elec       q    Type
REMARK                         _______ _______ _______ _____ _____    ______ ____
ROOT
ATOM      1  C   UNL     1       7.539   7.014  17.095  0.00  0.00    +0.000 C 
ENDROOT
BRANCH   1   5
ATOM      2  C   UNL     1       5.015   3.894  18.651  0.00  0.00    +0.000 A 
ATOM      3  C   UNL     1       5.086   4.098  17.273  0.00  0.00    +0.000 A 
ATOM      4  C   UNL     1       5.911   5.107  16.773  0.00  0.00    +0.000 A 
ATOM      5  C   UNL     1       6.664   5.912  17.644  0.00  0.00    +0.000 A 
ATOM      6  C   UNL     1       6.575   5.697  19.026  0.00  0.00    +0.000 A 
ATOM      7  C   UNL     1       5.754   4.689  19.532  0.00  0.00    +0.000 A 
BRANCH   2   8
ATOM      8  S   UNL     1       4.006   2.599  19.295  0.00  0.00    +0.000 S 
ATOM      9  O   UNL     1       2.676   3.119  19.538  0.00  0.00    +0.000 OA
ATOM     10  O   UNL     1       4.744   1.864  20.294  0.00  0.00    +0.000 OA
BRANCH   8  11
ATOM     11  N   UNL     1       3.883   1.554  17.987  0.00  0.00    +0.000 NA
ATOM     12  H   UNL     1       4.710   1.653  17.399  0.00  0.00    +0.000 HD
ATOM     13  H   UNL     1       3.007   1.717  17.488  0.00  0.00    +0.000 HD
ENDBRANCH   8  11
ENDBRANCH   2   8
ENDBRANCH   1   5
BRANCH   1  14
ATOM     14  C   UNL     1       7.170   8.382  17.675  0.00  0.00    +0.000 C 
BRANCH  14  15
ATOM     15  N   UNL     1       8.407   9.056  18.094  0.00  0.00    +0.000 NA
ATOM     16  C   UNL     1       8.342  10.342  18.009  0.00  0.00    +0.000 C 
BRANCH  16  17
ATOM     17  C   UNL     1       9.476  11.197  18.405  0.00  0.00    +0.000 A 
ATOM     18  C   UNL     1      10.141  10.929  19.606  0.00  0.00    +0.000 A 
ATOM     19  C   UNL     1      11.233  11.713  19.978  0.00  0.00    +0.000 A 
ATOM     20  C   UNL     1      11.648  12.764  19.157  0.00  0.00    +0.000 A 
ATOM     21  C   UNL     1      10.972  13.044  17.963  0.00  0.00    +0.000 A 
ATOM     22  C   UNL     1       9.889  12.248  17.577  0.00  0.00    +0.000 A 
BRANCH  21  23
ATOM     23  C   UNL     1      11.478  14.159  17.121  0.00  0.00    +0.000 C 
ATOM     24  O   UNL     1      11.906  15.195  17.597  0.00  0.00    +0.000 OA
BRANCH  23  25
ATOM     25  O   UNL     1      11.382  13.945  15.791  0.00  0.00    +0.000 OA
ATOM     26  H   UNL     1      10.691  13.318  15.509  0.00  0.00    +0.000 HD
ENDBRANCH  23  25
ENDBRANCH  21  23
ENDBRANCH  16  17
ENDBRANCH  14  15
ENDBRANCH   1  14
TORSDOF 8
ENDMDL
MODEL 8
REMARK VINA RESULT:      -7.2      6.446      7.253
REMARK  Name = 
REMARK  8 active torsions:
REMARK  status: ('A' for Active; 'I' for Inactive)
REMARK    1  A    between atoms: N_1  and  S_2
REMARK    2  A    between atoms: S_2  and  C_5
REMARK    3  A    between atoms: C_8  and  C_9
REMARK    4  A    between atoms: C_9  and  C_10
REMARK    5  A    between atoms: C_10  and  N_11
REMARK    6  A    between atoms: C_12  and  C_13
REMARK    7  A    between atoms: C_17  and  C_18
REMARK    8  A    between atoms: C_18  and  O_20
REMARK                            x       y       z     vdW  Elec       q    Type
REMARK                         _______ _______ _______ _____ _____    ______ ____
ROOT
ATOM      1  C   UNL     1       6.454   7.543  17.065  0.00  0.00    +0.000 C 
ENDROOT
BRANCH   1   5
ATOM      2  C   UNL     1       4.576   3.966  18.549  0.00  0.00    +0.000 A 
ATOM      3  C   UNL     1       5.772   4.401  19.119  0.00  0.00    +0.000 A 
ATOM      4  C   UNL     1       6.375   5.565  18.638  0.00  0.00    +0.000 A 
ATOM      5  C   UNL     1       5.786   6.294  17.592  0.00  0.00    +0.000 A 
ATOM      6  C   UNL     1       4.587   5.839  17.027  0.00  0.00    +0.000 A 
ATOM      7  C   UNL     1       3.980   4.677  17.504  0.00  0.00    +0.000 A 
BRANCH   2   8
ATOM      8  S   UNL     1       3.784   2.517  19.171  0.00  0.00    +0.000 S 
ATOM      9  O   UNL     1       3.526   1.615  18.067  0.00  0.00    +0.000 OA
ATOM     10  O   UNL     1       2.763   2.895  20.117  0.00  0.00    +0.000 OA
BRANCH   8  11
ATOM     11  N   UNL     1       4.996   1.814  20.094  0.00  0.00    +0.000 NA
ATOM     12  H   UNL     1       5.300   0.948  19.649  0.00  0.00    +0.000 HD
ATOM     13  H   UNL     1       4.676   1.684  21.056  0.00  0.00    +0.000 HD
ENDBRANCH   8  11
ENDBRANCH   2   8
ENDBRANCH   1   5
BRANCH   1  14
ATOM     14  C   UNL     1       7.857   7.733  17.648  0.00  0.00    +0.000 C 
BRANCH  14  15
ATOM     15  N   UNL     1       8.039   9.157  17.962  0.00  0.00    +0.000 NA
ATOM     16  C   UNL     1       8.939   9.371  18.862  0.00  0.00    +0.000 C 
BRANCH  16  17
ATOM     17  C   UNL     1       9.281  10.738  19.297  0.00  0.00    +0.000 A 
ATOM     18  C   UNL     1       9.601  10.961  20.640  0.00  0.00    +0.000 A 
ATOM     19  C   UNL     1       9.953  12.245  21.059  0.00  0.00    +0.000 A 
ATOM     20  C   UNL     1       9.973  13.297  20.140  0.00  0.00    +0.000 A 
ATOM     21  C   UNL     1       9.635  13.076  18.800  0.00  0.00    +0.000 A 
ATOM     22  C   UNL     1       9.300  11.788  18.372  0.00  0.00    +0.000 A 
BRANCH  21  23
ATOM     23  C   UNL     1       9.700  14.231  17.866  0.00  0.00    +0.000 C 
ATOM     24  O   UNL     1      10.753  14.757  17.550  0.00  0.00    +0.000 OA
BRANCH  23  25
ATOM     25  O   UNL     1       8.500  14.674  17.437  0.00  0.00    +0.000 OA
ATOM     26  H   UNL     1       7.724  14.174  17.752  0.00  0.00    +0.000 HD
ENDBRANCH  23  25
ENDBRANCH  21  23
ENDBRANCH  16  17
ENDBRANCH  14  15
ENDBRANCH   1  14
TORSDOF 8
ENDMDL
MODEL 9
REMARK VINA RESULT:      -7.1      6.445      7.619
REMARK  Name = 
REMARK  8 active torsions:
REMARK  status: ('A' for Active; 'I' for Inactive)
REMARK    1  A    between atoms: N_1  and  S_2
REMARK    2  A    between atoms: S_2  and  C_5
REMARK    3  A    between atoms: C_8  and  C_9
REMARK    4  A    between atoms: C_9  and  C_10
REMARK    5  A    between atoms: C_10  and  N_11
REMARK    6  A    between atoms: C_12  and  C_13
REMARK    7  A    between atoms: C_17  and  C_18
REMARK    8  A    between atoms: C_18  and  O_20
REMARK                            x       y       z     vdW  Elec       q    Type
REMARK                         _______ _______ _______ _____ _____    ______ ____
ROOT
ATOM      1  C   UNL     1       6.643   7.385  16.854  0.00  0.00    +0.000 C 
ENDROOT
BRANCH   1   5
ATOM      2  C   UNL     1       3.759   4.334  17.805  0.00  0.00    +0.000 A 
ATOM      3  C   UNL     1       3.355   5.668  17.747  0.00  0.00    +0.000 A 
ATOM      4  C   UNL     1       4.293   6.653  17.433  0.00  0.00    +0.000 A 
ATOM      5  C   UNL     1       5.630   6.310  17.175  0.00  0.00    +0.000 A 
ATOM      6  C   UNL     1       6.020   4.965  17.243  0.00  0.00    +0.000 A 
ATOM      7  C   UNL     1       5.087   3.976  17.556  0.00  0.00    +0.000 A 
BRANCH   2   8
ATOM      8  S   UNL     1       2.577   3.075  18.164  0.00  0.00    +0.000 S 
ATOM      9  O   UNL     1       3.137   1.790  17.797  0.00  0.00    +0.000 OA
ATOM     10  O   UNL     1       1.270   3.502  17.730  0.00  0.00    +0.000 OA
BRANCH   8  11
ATOM     11  N   UNL     1       2.513   3.109  19.841  0.00  0.00    +0.000 NA
ATOM     12  H   UNL     1       1.719   2.555  20.160  0.00  0.00    +0.000 HD
ATOM     13  H   UNL     1       2.494   4.075  20.173  0.00  0.00    +0.000 HD
ENDBRANCH   8  11
ENDBRANCH   2   8
ENDBRANCH   1   5
BRANCH   1  14
ATOM     14  C   UNL     1       7.698   7.527  17.954  0.00  0.00    +0.000 C 
BRANCH  14  15
ATOM     15  N   UNL     1       8.157   8.922  17.978  0.00  0.00    +0.000 NA
ATOM     16  C   UNL     1       8.919   9.192  18.984  0.00  0.00    +0.000 C 
BRANCH  16  17
ATOM     17  C   UNL     1       9.498  10.535  19.172  0.00  0.00    +0.000 A 
ATOM     18  C   UNL     1       9.701  11.010  20.470  0.00  0.00    +0.000 A 
ATOM     19  C   UNL     1      10.274  12.269  20.661  0.00  0.00    +0.000 A 
ATOM     20  C   UNL     1      10.630  13.047  19.557  0.00  0.00    +0.000 A 
ATOM     21  C   UNL     1      10.410  12.578  18.256  0.00  0.00    +0.000 A 
ATOM     22  C   UNL     1       9.854  11.310  18.061  0.00  0.00    +0.000 A 
BRANCH  21  23
ATOM     23  C   UNL     1      10.834  13.442  17.124  0.00  0.00    +0.000 C 
ATOM     24  O   UNL     1      11.754  13.144  16.383  0.00  0.00    +0.000 OA
BRANCH  23  25
ATOM     25  O   UNL     1      10.148  14.599  17.014  0.00  0.00    +0.000 OA
ATOM     26  H   UNL     1       9.196  14.514  16.822  0.00  0.00    +0.000 HD
ENDBRANCH  23  25
ENDBRANCH  21  23
ENDBRANCH  16  17
ENDBRANCH  14  15
ENDBRANCH   1  14
TORSDOF 8
ENDMDL
