MODEL 1
REMARK VINA RESULT:      -5.8      0.000      0.000
REMARK  Name = 
REMARK  7 active torsions:
REMARK  status: ('A' for Active; 'I' for Inactive)
REMARK    1  A    between atoms: C_1  and  O_2
REMARK    2  A    between atoms: O_2  and  C_3
REMARK    3  A    between atoms: C_3  and  C_4
REMARK    4  A    between atoms: C_4  and  N_5
REMARK    5  A    between atoms: C_6  and  C_8
REMARK    6  A    between atoms: C_11  and  C_12
REMARK    7  A    between atoms: C_14  and  C_15
REMARK                            x       y       z     vdW  Elec       q    Type
REMARK                         _______ _______ _______ _____ _____    ______ ____
ROOT
ATOM      1  N   UNL     1       6.082   4.267  16.944  0.00  0.00    +0.000 N 
ATOM      2  C   UNL     1       5.972   4.489  18.301  0.00  0.00    +0.000 C 
ATOM      3  O   UNL     1       6.885   4.937  18.979  0.00  0.00    +0.000 OA
ATOM      4  H   UNL     1       5.251   4.145  16.376  0.00  0.00    +0.000 HD
ENDROOT
BRANCH   2   5
ATOM      5  C   UNL     1       4.670   4.136  18.914  0.00  0.00    +0.000 A 
ATOM      6  C   UNL     1       4.509   2.941  19.589  0.00  0.00    +0.000 A 
ATOM      7  N   UNL     1       3.371   2.559  20.205  0.00  0.00    +0.000 NA
ATOM      8  C   UNL     1       2.351   3.431  20.153  0.00  0.00    +0.000 A 
ATOM      9  C   UNL     1       1.086   3.065  20.862  0.00  0.00    +0.000 C 
ATOM     10  N   UNL     1       2.397   4.621  19.522  0.00  0.00    +0.000 NA
ATOM     11  C   UNL     1       3.560   4.966  18.903  0.00  0.00    +0.000 A 
ATOM     12  C   UNL     1       3.536   6.280  18.177  0.00  0.00    +0.000 C 
ENDBRANCH   2   5
BRANCH   1  13
ATOM     13  C   UNL     1       7.281   4.610  16.201  0.00  0.00    +0.000 C 
BRANCH  13  14
ATOM     14  C   UNL     1       6.969   4.762  14.713  0.00  0.00    +0.000 C 
BRANCH  14  16
ATOM     15  C   UNL     1       6.078   3.556  12.892  0.00  0.00    +0.000 C 
ATOM     16  O   UNL     1       6.083   3.711  14.308  0.00  0.00    +0.000 OA
ENDBRANCH  14  16
ENDBRANCH  13  14
ENDBRANCH   1  13
TORSDOF 4
ENDMDL
MODEL 2
REMARK VINA RESULT:      -5.7      2.216      5.883
REMARK  Name = 
REMARK  7 active torsions:
REMARK  status: ('A' for Active; 'I' for Inactive)
REMARK    1  A    between atoms: C_1  and  O_2
REMARK    2  A    between atoms: O_2  and  C_3
REMARK    3  A    between atoms: C_3  and  C_4
REMARK    4  A    between atoms: C_4  and  N_5
REMARK    5  A    between atoms: C_6  and  C_8
REMARK    6  A    between atoms: C_11  and  C_12
REMARK    7  A    between atoms: C_14  and  C_15
REMARK                            x       y       z     vdW  Elec       q    Type
REMARK                         _______ _______ _______ _____ _____    ______ ____
ROOT
ATOM      1  N   UNL     1       5.201   3.334  18.504  0.00  0.00    +0.000 N 
ATOM      2  C   UNL     1       5.025   4.521  17.824  0.00  0.00    +0.000 C 
ATOM      3  O   UNL     1       4.258   5.397  18.199  0.00  0.00    +0.000 OA
ATOM      4  H   UNL     1       6.012   2.754  18.320  0.00  0.00    +0.000 HD
ENDROOT
BRANCH   2   5
ATOM      5  C   UNL     1       5.816   4.681  16.581  0.00  0.00    +0.000 A 
ATOM      6  C   UNL     1       5.508   3.949  15.450  0.00  0.00    +0.000 A 
ATOM      7  N   UNL     1       6.152   4.060  14.270  0.00  0.00    +0.000 NA
ATOM      8  C   UNL     1       7.144   4.965  14.222  0.00  0.00    +0.000 A 
ATOM      9  C   UNL     1       7.854   5.151  12.919  0.00  0.00    +0.000 C 
ATOM     10  N   UNL     1       7.529   5.730  15.263  0.00  0.00    +0.000 NA
ATOM     11  C   UNL     1       6.860   5.582  16.440  0.00  0.00    +0.000 A 
ATOM     12  C   UNL     1       7.364   6.425  17.576  0.00  0.00    +0.000 C 
ENDBRANCH   2   5
BRANCH   1  13
ATOM     13  C   UNL     1       4.529   3.059  19.761  0.00  0.00    +0.000 C 
BRANCH  13  14
ATOM     14  C   UNL     1       3.175   2.394  19.516  0.00  0.00    +0.000 C 
BRANCH  14  16
ATOM     15  C   UNL     1       0.851   2.798  19.481  0.00  0.00    +0.000 C 
ATOM     16  O   UNL     1       2.131   3.334  19.804  0.00  0.00    +0.000 OA
ENDBRANCH  14  16
ENDBRANCH  13  14
ENDBRANCH   1  13
TORSDOF 4
ENDMDL
MODEL 3
REMARK VINA RESULT:      -5.7      0.960      1.025
REMARK  Name = 
REMARK  7 active torsions:
REMARK  status: ('A' for Active; 'I' for Inactive)
REMARK    1  A    between atoms: C_1  and  O_2
REMARK    2  A    between atoms: O_2  and  C_3
REMARK    3  A    between atoms: C_3  and  C_4
REMARK    4  A    between atoms: C_4  and  N_5
REMARK    5  A    between atoms: C_6  and  C_8
REMARK    6  A    between atoms: C_11  and  C_12
REMARK    7  A    between atoms: C_14  and  C_15
REMARK                            x       y       z     vdW  Elec       q    Type
REMARK                         _______ _______ _______ _____ _____    ______ ____
ROOT
ATOM      1  N   UNL     1       6.083   4.102  16.794  0.00  0.00    +0.000 N 
ATOM      2  C   UNL     1       6.000   4.382  18.142  0.00  0.00    +0.000 C 
ATOM      3  O   UNL     1       6.943   4.809  18.794  0.00  0.00    +0.000 OA
ATOM      4  H   UNL     1       5.241   4.002  16.239  0.00  0.00    +0.000 HD
ENDROOT
BRANCH   2   5
ATOM      5  C   UNL     1       4.689   4.118  18.781  0.00  0.00    +0.000 A 
ATOM      6  C   UNL     1       4.485   2.973  19.527  0.00  0.00    +0.000 A 
ATOM      7  N   UNL     1       3.337   2.674  20.170  0.00  0.00    +0.000 NA
ATOM      8  C   UNL     1       2.353   3.583  20.070  0.00  0.00    +0.000 A 
ATOM      9  C   UNL     1       1.079   3.311  20.805  0.00  0.00    +0.000 C 
ATOM     10  N   UNL     1       2.442   4.730  19.369  0.00  0.00    +0.000 NA
ATOM     11  C   UNL     1       3.613   4.991  18.726  0.00  0.00    +0.000 A 
ATOM     12  C   UNL     1       3.637   6.259  17.922  0.00  0.00    +0.000 C 
ENDBRANCH   2   5
BRANCH   1  13
ATOM     13  C   UNL     1       7.290   4.356  16.026  0.00  0.00    +0.000 C 
BRANCH  13  14
ATOM     14  C   UNL     1       6.943   4.775  14.599  0.00  0.00    +0.000 C 
BRANCH  14  16
ATOM     15  C   UNL     1       8.075   5.524  12.669  0.00  0.00    +0.000 C 
ATOM     16  O   UNL     1       7.988   5.614  14.088  0.00  0.00    +0.000 OA
ENDBRANCH  14  16
ENDBRANCH  13  14
ENDBRANCH   1  13
TORSDOF 4
ENDMDL
MODEL 4
REMARK VINA RESULT:      -5.6      2.322      5.977
REMARK  Name = 
REMARK  7 active torsions:
REMARK  status: ('A' for Active; 'I' for Inactive)
REMARK    1  A    between atoms: C_1  and  O_2
REMARK    2  A    between atoms: O_2  and  C_3
REMARK    3  A    between atoms: C_3  and  C_4
REMARK    4  A    between atoms: C_4  and  N_5
REMARK    5  A    between atoms: C_6  and  C_8
REMARK    6  A    between atoms: C_11  and  C_12
REMARK    7  A    between atoms: C_14  and  C_15
REMARK                            x       y       z     vdW  Elec       q    Type
REMARK                         _______ _______ _______ _____ _____    ______ ____
ROOT
ATOM      1  N   UNL     1       3.616   4.461  17.870  0.00  0.00    +0.000 N 
ATOM      2  C   UNL     1       4.979   4.277  17.974  0.00  0.00    +0.000 C 
ATOM      3  O   UNL     1       5.532   3.964  19.020  0.00  0.00    +0.000 OA
ATOM      4  H   UNL     1       3.168   4.463  16.961  0.00  0.00    +0.000 HD
ENDROOT
BRANCH   2   5
ATOM      5  C   UNL     1       5.761   4.497  16.735  0.00  0.00    +0.000 A 
ATOM      6  C   UNL     1       5.565   3.695  15.626  0.00  0.00    +0.000 A 
ATOM      7  N   UNL     1       6.207   3.850  14.449  0.00  0.00    +0.000 NA
ATOM      8  C   UNL     1       7.076   4.872  14.381  0.00  0.00    +0.000 A 
ATOM      9  C   UNL     1       7.776   5.104  13.080  0.00  0.00    +0.000 C 
ATOM     10  N   UNL     1       7.346   5.712  15.400  0.00  0.00    +0.000 NA
ATOM     11  C   UNL     1       6.685   5.518  16.574  0.00  0.00    +0.000 A 
ATOM     12  C   UNL     1       7.062   6.454  17.687  0.00  0.00    +0.000 C 
ENDBRANCH   2   5
BRANCH   1  13
ATOM     13  C   UNL     1       2.719   4.234  18.989  0.00  0.00    +0.000 C 
BRANCH  13  14
ATOM     14  C   UNL     1       2.036   2.873  18.866  0.00  0.00    +0.000 C 
BRANCH  14  16
ATOM     15  C   UNL     1       1.463   3.174  21.135  0.00  0.00    +0.000 C 
ATOM     16  O   UNL     1       0.996   2.779  19.848  0.00  0.00    +0.000 OA
ENDBRANCH  14  16
ENDBRANCH  13  14
ENDBRANCH   1  13
TORSDOF 4
ENDMDL
MODEL 5
REMARK VINA RESULT:      -5.6      2.146      5.630
REMARK  Name = 
REMARK  7 active torsions:
REMARK  status: ('A' for Active; 'I' for Inactive)
REMARK    1  A    between atoms: C_1  and  O_2
REMARK    2  A    between atoms: O_2  and  C_3
REMARK    3  A    between atoms: C_3  and  C_4
REMARK    4  A    between atoms: C_4  and  N_5
REMARK    5  A    between atoms: C_6  and  C_8
REMARK    6  A    between atoms: C_11  and  C_12
REMARK    7  A    between atoms: C_14  and  C_15
REMARK                            x       y       z     vdW  Elec       q    Type
REMARK                         _______ _______ _______ _____ _____    ______ ____
ROOT
ATOM      1  N   UNL     1       4.030   4.618  18.670  0.00  0.00    +0.000 N 
ATOM      2  C   UNL     1       5.405   4.716  18.610  0.00  0.00    +0.000 C 
ATOM      3  O   UNL     1       6.113   4.769  19.606  0.00  0.00    +0.000 OA
ATOM      4  H   UNL     1       3.502   4.320  17.858  0.00  0.00    +0.000 HD
ENDROOT
BRANCH   2   5
ATOM      5  C   UNL     1       5.994   4.771  17.252  0.00  0.00    +0.000 A 
ATOM      6  C   UNL     1       5.641   3.841  16.292  0.00  0.00    +0.000 A 
ATOM      7  N   UNL     1       6.101   3.840  15.023  0.00  0.00    +0.000 NA
ATOM      8  C   UNL     1       6.944   4.835  14.702  0.00  0.00    +0.000 A 
ATOM      9  C   UNL     1       7.442   4.896  13.293  0.00  0.00    +0.000 C 
ATOM     10  N   UNL     1       7.356   5.792  15.557  0.00  0.00    +0.000 NA
ATOM     11  C   UNL     1       6.877   5.753  16.831  0.00  0.00    +0.000 A 
ATOM     12  C   UNL     1       7.408   6.815  17.751  0.00  0.00    +0.000 C 
ENDBRANCH   2   5
BRANCH   1  13
ATOM     13  C   UNL     1       3.319   4.506  19.932  0.00  0.00    +0.000 C 
BRANCH  13  14
ATOM     14  C   UNL     1       1.821   4.730  19.729  0.00  0.00    +0.000 C 
BRANCH  14  16
ATOM     15  C   UNL     1       0.977   2.654  18.994  0.00  0.00    +0.000 C 
ATOM     16  O   UNL     1       1.380   3.962  18.601  0.00  0.00    +0.000 OA
ENDBRANCH  14  16
ENDBRANCH  13  14
ENDBRANCH   1  13
TORSDOF 4
ENDMDL
MODEL 6
REMARK VINA RESULT:      -5.6      1.788      2.018
REMARK  Name = 
REMARK  7 active torsions:
REMARK  status: ('A' for Active; 'I' for Inactive)
REMARK    1  A    between atoms: C_1  and  O_2
REMARK    2  A    between atoms: O_2  and  C_3
REMARK    3  A    between atoms: C_3  and  C_4
REMARK    4  A    between atoms: C_4  and  N_5
REMARK    5  A    between atoms: C_6  and  C_8
REMARK    6  A    between atoms: C_11  and  C_12
REMARK    7  A    between atoms: C_14  and  C_15
REMARK                            x       y       z     vdW  Elec       q    Type
REMARK                         _______ _______ _______ _____ _____    ______ ____
ROOT
ATOM      1  N   UNL     1       4.733   5.487  17.361  0.00  0.00    +0.000 N 
ATOM      2  C   UNL     1       4.359   4.160  17.336  0.00  0.00    +0.000 C 
ATOM      3  O   UNL     1       4.637   3.406  16.414  0.00  0.00    +0.000 OA
ATOM      4  H   UNL     1       4.717   6.007  18.231  0.00  0.00    +0.000 HD
ENDROOT
BRANCH   2   5
ATOM      5  C   UNL     1       3.574   3.684  18.499  0.00  0.00    +0.000 A 
ATOM      6  C   UNL     1       4.200   3.074  19.570  0.00  0.00    +0.000 A 
ATOM      7  N   UNL     1       3.566   2.645  20.682  0.00  0.00    +0.000 NA
ATOM      8  C   UNL     1       2.240   2.856  20.723  0.00  0.00    +0.000 A 
ATOM      9  C   UNL     1       1.507   2.435  21.956  0.00  0.00    +0.000 C 
ATOM     10  N   UNL     1       1.530   3.437  19.736  0.00  0.00    +0.000 NA
ATOM     11  C   UNL     1       2.204   3.848  18.626  0.00  0.00    +0.000 A 
ATOM     12  C   UNL     1       1.354   4.444  17.542  0.00  0.00    +0.000 C 
ENDBRANCH   2   5
BRANCH   1  13
ATOM     13  C   UNL     1       5.545   6.080  16.313  0.00  0.00    +0.000 C 
BRANCH  13  14
ATOM     14  C   UNL     1       7.026   5.784  16.546  0.00  0.00    +0.000 C 
BRANCH  14  16
ATOM     15  C   UNL     1       6.971   4.836  14.387  0.00  0.00    +0.000 C 
ATOM     16  O   UNL     1       7.690   5.682  15.280  0.00  0.00    +0.000 OA
ENDBRANCH  14  16
ENDBRANCH  13  14
ENDBRANCH   1  13
TORSDOF 4
ENDMDL
MODEL 7
REMARK VINA RESULT:      -5.5      2.561      3.493
REMARK  Name = 
REMARK  7 active torsions:
REMARK  status: ('A' for Active; 'I' for Inactive)
REMARK    1  A    between atoms: C_1  and  O_2
REMARK    2  A    between atoms: O_2  and  C_3
REMARK    3  A    between atoms: C_3  and  C_4
REMARK    4  A    between atoms: C_4  and  N_5
REMARK    5  A    between atoms: C_6  and  C_8
REMARK    6  A    between atoms: C_11  and  C_12
REMARK    7  A    between atoms: C_14  and  C_15
REMARK                            x       y       z     vdW  Elec       q    Type
REMARK                         _______ _______ _______ _____ _____    ______ ____
ROOT
ATOM      1  N   UNL     1       6.131   5.562  17.723  0.00  0.00    +0.000 N 
ATOM      2  C   UNL     1       5.070   5.455  16.848  0.00  0.00    +0.000 C 
ATOM      3  O   UNL     1       5.082   5.937  15.723  0.00  0.00    +0.000 OA
ATOM      4  H   UNL     1       6.195   4.947  18.526  0.00  0.00    +0.000 HD
ENDROOT
BRANCH   2   5
ATOM      5  C   UNL     1       3.883   4.726  17.351  0.00  0.00    +0.000 A 
ATOM      6  C   UNL     1       3.788   3.353  17.215  0.00  0.00    +0.000 A 
ATOM      7  N   UNL     1       2.761   2.609  17.676  0.00  0.00    +0.000 NA
ATOM      8  C   UNL     1       1.791   3.278  18.322  0.00  0.00    +0.000 A 
ATOM      9  C   UNL     1       0.657   2.485  18.887  0.00  0.00    +0.000 C 
ATOM     10  N   UNL     1       1.781   4.613  18.509  0.00  0.00    +0.000 NA
ATOM     11  C   UNL     1       2.830   5.330  18.021  0.00  0.00    +0.000 A 
ATOM     12  C   UNL     1       2.741   6.816  18.218  0.00  0.00    +0.000 C 
ENDBRANCH   2   5
BRANCH   1  13
ATOM     13  C   UNL     1       7.377   6.207  17.349  0.00  0.00    +0.000 C 
BRANCH  13  14
ATOM     14  C   UNL     1       7.283   7.719  17.546  0.00  0.00    +0.000 C 
BRANCH  14  16
ATOM     15  C   UNL     1       8.546   9.566  18.291  0.00  0.00    +0.000 C 
ATOM     16  O   UNL     1       8.371   8.155  18.370  0.00  0.00    +0.000 OA
ENDBRANCH  14  16
ENDBRANCH  13  14
ENDBRANCH   1  13
TORSDOF 4
ENDMDL
MODEL 8
REMARK VINA RESULT:      -5.5      2.333      2.748
REMARK  Name = 
REMARK  7 active torsions:
REMARK  status: ('A' for Active; 'I' for Inactive)
REMARK    1  A    between atoms: C_1  and  O_2
REMARK    2  A    between atoms: O_2  and  C_3
REMARK    3  A    between atoms: C_3  and  C_4
REMARK    4  A    between atoms: C_4  and  N_5
REMARK    5  A    between atoms: C_6  and  C_8
REMARK    6  A    between atoms: C_11  and  C_12
REMARK    7  A    between atoms: C_14  and  C_15
REMARK                            x       y       z     vdW  Elec       q    Type
REMARK                         _______ _______ _______ _____ _____    ______ ____
ROOT
ATOM      1  N   UNL     1       6.255   4.433  17.582  0.00  0.00    +0.000 N 
ATOM      2  C   UNL     1       5.554   4.475  18.770  0.00  0.00    +0.000 C 
ATOM      3  O   UNL     1       6.012   4.954  19.798  0.00  0.00    +0.000 OA
ATOM      4  H   UNL     1       5.770   4.274  16.706  0.00  0.00    +0.000 HD
ENDROOT
BRANCH   2   5
ATOM      5  C   UNL     1       4.194   3.887  18.743  0.00  0.00    +0.000 A 
ATOM      6  C   UNL     1       3.997   2.554  19.051  0.00  0.00    +0.000 A 
ATOM      7  N   UNL     1       2.791   1.949  19.086  0.00  0.00    +0.000 NA
ATOM      8  C   UNL     1       1.732   2.728  18.813  0.00  0.00    +0.000 A 
ATOM      9  C   UNL     1       0.374   2.106  18.884  0.00  0.00    +0.000 C 
ATOM     10  N   UNL     1       1.810   4.037  18.498  0.00  0.00    +0.000 NA
ATOM     11  C   UNL     1       3.045   4.609  18.464  0.00  0.00    +0.000 A 
ATOM     12  C   UNL     1       3.072   6.055  18.061  0.00  0.00    +0.000 C 
ENDBRANCH   2   5
BRANCH   1  13
ATOM     13  C   UNL     1       7.579   5.015  17.447  0.00  0.00    +0.000 C 
BRANCH  13  14
ATOM     14  C   UNL     1       7.483   6.503  17.114  0.00  0.00    +0.000 C 
BRANCH  14  16
ATOM     15  C   UNL     1       8.106   8.641  17.889  0.00  0.00    +0.000 C 
ATOM     16  O   UNL     1       7.960   7.266  18.229  0.00  0.00    +0.000 OA
ENDBRANCH  14  16
ENDBRANCH  13  14
ENDBRANCH   1  13
TORSDOF 4
ENDMDL
MODEL 9
REMARK VINA RESULT:      -5.5      2.193      5.781
REMARK  Name = 
REMARK  7 active torsions:
REMARK  status: ('A' for Active; 'I' for Inactive)
REMARK    1  A    between atoms: C_1  and  O_2
REMARK    2  A    between atoms: O_2  and  C_3
REMARK    3  A    between atoms: C_3  and  C_4
REMARK    4  A    between atoms: C_4  and  N_5
REMARK    5  A    between atoms: C_6  and  C_8
REMARK    6  A    between atoms: C_11  and  C_12
REMARK    7  A    between atoms: C_14  and  C_15
REMARK                            x       y       z     vdW  Elec       q    Type
REMARK                         _______ _______ _______ _____ _____    ______ ____
ROOT
ATOM      1  N   UNL     1       3.906   4.656  18.094  0.00  0.00    +0.000 N 
ATOM      2  C   UNL     1       5.261   4.398  18.094  0.00  0.00    +0.000 C 
ATOM      3  O   UNL     1       5.875   4.058  19.096  0.00  0.00    +0.000 OA
ATOM      4  H   UNL     1       3.389   4.681  17.222  0.00  0.00    +0.000 HD
ENDROOT
BRANCH   2   5
ATOM      5  C   UNL     1       5.956   4.572  16.797  0.00  0.00    +0.000 A 
ATOM      6  C   UNL     1       5.685   3.730  15.734  0.00  0.00    +0.000 A 
ATOM      7  N   UNL     1       6.244   3.840  14.511  0.00  0.00    +0.000 NA
ATOM      8  C   UNL     1       7.105   4.858  14.346  0.00  0.00    +0.000 A 
ATOM      9  C   UNL     1       7.713   5.042  12.992  0.00  0.00    +0.000 C 
ATOM     10  N   UNL     1       7.443   5.735  15.313  0.00  0.00    +0.000 NA
ATOM     11  C   UNL     1       6.865   5.585  16.536  0.00  0.00    +0.000 A 
ATOM     12  C   UNL     1       7.316   6.561  17.584  0.00  0.00    +0.000 C 
ENDBRANCH   2   5
BRANCH   1  13
ATOM     13  C   UNL     1       3.087   4.482  19.281  0.00  0.00    +0.000 C 
BRANCH  13  14
ATOM     14  C   UNL     1       2.653   5.835  19.841  0.00  0.00    +0.000 C 
BRANCH  14  16
ATOM     15  C   UNL     1       2.129   7.889  18.805  0.00  0.00    +0.000 C 
ATOM     16  O   UNL     1       3.116   6.875  18.969  0.00  0.00    +0.000 OA
ENDBRANCH  14  16
ENDBRANCH  13  14
ENDBRANCH   1  13
TORSDOF 4
ENDMDL
