MODEL 1
REMARK VINA RESULT:      -7.7      0.000      0.000
REMARK  Name = 
REMARK  0 active torsions:
REMARK  status: ('A' for Active; 'I' for Inactive)
REMARK                            x       y       z     vdW  Elec       q    Type
REMARK                         _______ _______ _______ _____ _____    ______ ____
ROOT
ATOM      1  O   UNL     1       8.608   4.040  17.497  0.00  0.00    +0.000 OA
ATOM      2  C   UNL     1       7.509   4.547  17.327  0.00  0.00    +0.000 C 
ATOM      3  C   UNL     1       6.839   5.346  18.408  0.00  0.00    +0.000 C 
ATOM      4  C   UNL     1       6.128   6.337  17.833  0.00  0.00    +0.000 C 
ATOM      5  C   UNL     1       4.931   5.924  16.929  0.00  0.00    +0.000 C 
ATOM      6  C   UNL     1       5.510   4.937  15.911  0.00  0.00    +0.000 C 
ATOM      7  C   UNL     1       6.715   4.345  16.075  0.00  0.00    +0.000 C 
ATOM      8  C   UNL     1       4.399   7.175  16.177  0.00  0.00    +0.000 C 
ATOM      9  C   UNL     1       3.965   8.261  17.168  0.00  0.00    +0.000 C 
ATOM     10  N   UNL     1       3.166   7.677  18.222  0.00  0.00    +0.000 N 
ATOM     11  C   UNL     1       3.087   6.322  18.506  0.00  0.00    +0.000 C 
ATOM     12  C   UNL     1       3.800   5.406  17.823  0.00  0.00    +0.000 C 
ATOM     13  C   UNL     1       3.516   3.961  18.012  0.00  0.00    +0.000 C 
ATOM     14  O   UNL     1       3.920   3.103  17.238  0.00  0.00    +0.000 OA
ATOM     15  C   UNL     1       2.711   3.554  19.180  0.00  0.00    +0.000 A 
ATOM     16  C   UNL     1       2.552   2.192  19.474  0.00  0.00    +0.000 A 
ATOM     17  C   UNL     1       1.872   1.799  20.629  0.00  0.00    +0.000 A 
ATOM     18  C   UNL     1       1.350   2.762  21.491  0.00  0.00    +0.000 A 
ATOM     19  C   UNL     1       1.473   4.116  21.182  0.00  0.00    +0.000 A 
ATOM     20  C   UNL     1       2.141   4.509  20.013  0.00  0.00    +0.000 A 
ATOM     21  C   UNL     1       2.226   5.936  19.669  0.00  0.00    +0.000 C 
ATOM     22  O   UNL     1       1.658   6.790  20.343  0.00  0.00    +0.000 OA
ATOM     23  H   UNL     1       2.766   8.287  18.940  0.00  0.00    +0.000 HD
ENDROOT
TORSDOF 0
ENDMDL
MODEL 2
REMARK VINA RESULT:      -7.5      2.265      3.378
REMARK  Name = 
REMARK  0 active torsions:
REMARK  status: ('A' for Active; 'I' for Inactive)
REMARK                            x       y       z     vdW  Elec       q    Type
REMARK                         _______ _______ _______ _____ _____    ______ ____
ROOT
ATOM      1  O   UNL     1       7.391   9.050  18.003  0.00  0.00    +0.000 OA
ATOM      2  C   UNL     1       7.155   7.880  17.743  0.00  0.00    +0.000 C 
ATOM      3  C   UNL     1       5.927   7.479  16.977  0.00  0.00    +0.000 C 
ATOM      4  C   UNL     1       6.226   6.408  16.213  0.00  0.00    +0.000 C 
ATOM      5  C   UNL     1       6.608   5.092  16.948  0.00  0.00    +0.000 C 
ATOM      6  C   UNL     1       7.737   5.474  17.909  0.00  0.00    +0.000 C 
ATOM      7  C   UNL     1       8.015   6.758  18.233  0.00  0.00    +0.000 C 
ATOM      8  C   UNL     1       7.146   4.064  15.916  0.00  0.00    +0.000 C 
ATOM      9  C   UNL     1       6.097   3.781  14.834  0.00  0.00    +0.000 C 
ATOM     10  N   UNL     1       4.805   3.561  15.443  0.00  0.00    +0.000 N 
ATOM     11  C   UNL     1       4.471   3.891  16.747  0.00  0.00    +0.000 C 
ATOM     12  C   UNL     1       5.342   4.499  17.577  0.00  0.00    +0.000 C 
ATOM     13  C   UNL     1       5.017   4.630  19.019  0.00  0.00    +0.000 C 
ATOM     14  O   UNL     1       5.860   4.911  19.862  0.00  0.00    +0.000 OA
ATOM     15  C   UNL     1       3.622   4.406  19.444  0.00  0.00    +0.000 A 
ATOM     16  C   UNL     1       3.249   4.669  20.771  0.00  0.00    +0.000 A 
ATOM     17  C   UNL     1       1.913   4.550  21.159  0.00  0.00    +0.000 A 
ATOM     18  C   UNL     1       0.948   4.170  20.228  0.00  0.00    +0.000 A 
ATOM     19  C   UNL     1       1.322   3.871  18.918  0.00  0.00    +0.000 A 
ATOM     20  C   UNL     1       2.666   3.973  18.533  0.00  0.00    +0.000 A 
ATOM     21  C   UNL     1       3.060   3.611  17.165  0.00  0.00    +0.000 C 
ATOM     22  O   UNL     1       2.250   3.146  16.369  0.00  0.00    +0.000 OA
ATOM     23  H   UNL     1       4.008   3.319  14.848  0.00  0.00    +0.000 HD
ENDROOT
TORSDOF 0
ENDMDL
MODEL 3
REMARK VINA RESULT:      -6.9      9.239     11.070
REMARK  Name = 
REMARK  0 active torsions:
REMARK  status: ('A' for Active; 'I' for Inactive)
REMARK                            x       y       z     vdW  Elec       q    Type
REMARK                         _______ _______ _______ _____ _____    ______ ____
ROOT
ATOM      1  O   UNL     1       9.604  10.423  20.387  0.00  0.00    +0.000 OA
ATOM      2  C   UNL     1       9.700  11.439  19.716  0.00  0.00    +0.000 C 
ATOM      3  C   UNL     1       9.569  12.803  20.332  0.00  0.00    +0.000 C 
ATOM      4  C   UNL     1      10.387  13.652  19.678  0.00  0.00    +0.000 C 
ATOM      5  C   UNL     1      10.076  13.929  18.179  0.00  0.00    +0.000 C 
ATOM      6  C   UNL     1       9.993  12.552  17.517  0.00  0.00    +0.000 C 
ATOM      7  C   UNL     1       9.870  11.407  18.229  0.00  0.00    +0.000 C 
ATOM      8  C   UNL     1      11.250  14.726  17.549  0.00  0.00    +0.000 C 
ATOM      9  C   UNL     1      11.476  16.046  18.297  0.00  0.00    +0.000 C 
ATOM     10  N   UNL     1      10.211  16.710  18.520  0.00  0.00    +0.000 N 
ATOM     11  C   UNL     1       8.965  16.112  18.403  0.00  0.00    +0.000 C 
ATOM     12  C   UNL     1       8.823  14.808  18.095  0.00  0.00    +0.000 C 
ATOM     13  C   UNL     1       7.479  14.272  17.765  0.00  0.00    +0.000 C 
ATOM     14  O   UNL     1       7.318  13.188  17.216  0.00  0.00    +0.000 OA
ATOM     15  C   UNL     1       6.297  15.084  18.111  0.00  0.00    +0.000 A 
ATOM     16  C   UNL     1       5.012  14.545  17.953  0.00  0.00    +0.000 A 
ATOM     17  C   UNL     1       3.892  15.271  18.365  0.00  0.00    +0.000 A 
ATOM     18  C   UNL     1       4.051  16.533  18.935  0.00  0.00    +0.000 A 
ATOM     19  C   UNL     1       5.325  17.087  19.058  0.00  0.00    +0.000 A 
ATOM     20  C   UNL     1       6.447  16.366  18.627  0.00  0.00    +0.000 A 
ATOM     21  C   UNL     1       7.782  16.975  18.717  0.00  0.00    +0.000 C 
ATOM     22  O   UNL     1       7.930  18.135  19.089  0.00  0.00    +0.000 OA
ATOM     23  H   UNL     1      10.203  17.627  18.974  0.00  0.00    +0.000 HD
ENDROOT
TORSDOF 0
ENDMDL
MODEL 4
REMARK VINA RESULT:      -6.7      9.963     12.812
REMARK  Name = 
REMARK  0 active torsions:
REMARK  status: ('A' for Active; 'I' for Inactive)
REMARK                            x       y       z     vdW  Elec       q    Type
REMARK                         _______ _______ _______ _____ _____    ______ ____
ROOT
ATOM      1  O   UNL     1      -7.572  11.584  23.508  0.00  0.00    +0.000 OA
ATOM      2  C   UNL     1      -7.282  12.087  22.432  0.00  0.00    +0.000 C 
ATOM      3  C   UNL     1      -7.170  11.258  21.184  0.00  0.00    +0.000 C 
ATOM      4  C   UNL     1      -7.581  12.001  20.136  0.00  0.00    +0.000 C 
ATOM      5  C   UNL     1      -6.740  13.260  19.780  0.00  0.00    +0.000 C 
ATOM      6  C   UNL     1      -6.640  14.065  21.079  0.00  0.00    +0.000 C 
ATOM      7  C   UNL     1      -6.937  13.535  22.288  0.00  0.00    +0.000 C 
ATOM      8  C   UNL     1      -7.498  14.102  18.718  0.00  0.00    +0.000 C 
ATOM      9  C   UNL     1      -7.768  13.272  17.458  0.00  0.00    +0.000 C 
ATOM     10  N   UNL     1      -6.573  12.557  17.071  0.00  0.00    +0.000 N 
ATOM     11  C   UNL     1      -5.464  12.360  17.880  0.00  0.00    +0.000 C 
ATOM     12  C   UNL     1      -5.419  12.803  19.152  0.00  0.00    +0.000 C 
ATOM     13  C   UNL     1      -4.137  12.765  19.899  0.00  0.00    +0.000 C 
ATOM     14  O   UNL     1      -3.960  13.393  20.936  0.00  0.00    +0.000 OA
ATOM     15  C   UNL     1      -3.039  11.939  19.363  0.00  0.00    +0.000 A 
ATOM     16  C   UNL     1      -1.872  11.758  20.119  0.00  0.00    +0.000 A 
ATOM     17  C   UNL     1      -0.866  10.903  19.662  0.00  0.00    +0.000 A 
ATOM     18  C   UNL     1      -1.023  10.227  18.453  0.00  0.00    +0.000 A 
ATOM     19  C   UNL     1      -2.166  10.434  17.681  0.00  0.00    +0.000 A 
ATOM     20  C   UNL     1      -3.166  11.306  18.132  0.00  0.00    +0.000 A 
ATOM     21  C   UNL     1      -4.346  11.556  17.292  0.00  0.00    +0.000 C 
ATOM     22  O   UNL     1      -4.441  11.076  16.166  0.00  0.00    +0.000 OA
ATOM     23  H   UNL     1      -6.585  11.989  16.220  0.00  0.00    +0.000 HD
ENDROOT
TORSDOF 0
ENDMDL
MODEL 5
REMARK VINA RESULT:      -6.6      2.251      3.056
REMARK  Name = 
REMARK  0 active torsions:
REMARK  status: ('A' for Active; 'I' for Inactive)
REMARK                            x       y       z     vdW  Elec       q    Type
REMARK                         _______ _______ _______ _____ _____    ______ ____
ROOT
ATOM      1  O   UNL     1       5.773   4.021  13.110  0.00  0.00    +0.000 OA
ATOM      2  C   UNL     1       5.805   4.479  14.242  0.00  0.00    +0.000 C 
ATOM      3  C   UNL     1       6.151   3.622  15.426  0.00  0.00    +0.000 C 
ATOM      4  C   UNL     1       6.821   4.376  16.322  0.00  0.00    +0.000 C 
ATOM      5  C   UNL     1       6.050   5.557  16.977  0.00  0.00    +0.000 C 
ATOM      6  C   UNL     1       5.489   6.375  15.811  0.00  0.00    +0.000 C 
ATOM      7  C   UNL     1       5.424   5.893  14.548  0.00  0.00    +0.000 C 
ATOM      8  C   UNL     1       7.046   6.437  17.782  0.00  0.00    +0.000 C 
ATOM      9  C   UNL     1       7.758   5.608  18.857  0.00  0.00    +0.000 C 
ATOM     10  N   UNL     1       6.799   4.795  19.570  0.00  0.00    +0.000 N 
ATOM     11  C   UNL     1       5.507   4.526  19.142  0.00  0.00    +0.000 C 
ATOM     12  C   UNL     1       5.031   4.986  17.969  0.00  0.00    +0.000 C 
ATOM     13  C   UNL     1       3.585   4.861  17.661  0.00  0.00    +0.000 C 
ATOM     14  O   UNL     1       3.045   5.492  16.760  0.00  0.00    +0.000 OA
ATOM     15  C   UNL     1       2.773   3.941  18.480  0.00  0.00    +0.000 A 
ATOM     16  C   UNL     1       1.441   3.683  18.122  0.00  0.00    +0.000 A 
ATOM     17  C   UNL     1       0.693   2.744  18.835  0.00  0.00    +0.000 A 
ATOM     18  C   UNL     1       1.271   2.060  19.904  0.00  0.00    +0.000 A 
ATOM     19  C   UNL     1       2.582   2.342  20.286  0.00  0.00    +0.000 A 
ATOM     20  C   UNL     1       3.326   3.299  19.581  0.00  0.00    +0.000 A 
ATOM     21  C   UNL     1       4.691   3.625  20.018  0.00  0.00    +0.000 C 
ATOM     22  O   UNL     1       5.170   3.134  21.036  0.00  0.00    +0.000 OA
ATOM     23  H   UNL     1       7.119   4.214  20.349  0.00  0.00    +0.000 HD
ENDROOT
TORSDOF 0
ENDMDL
MODEL 6
REMARK VINA RESULT:      -6.6      1.777      5.282
REMARK  Name = 
REMARK  0 active torsions:
REMARK  status: ('A' for Active; 'I' for Inactive)
REMARK                            x       y       z     vdW  Elec       q    Type
REMARK                         _______ _______ _______ _____ _____    ______ ____
ROOT
ATOM      1  O   UNL     1       0.856   1.089  19.308  0.00  0.00    +0.000 OA
ATOM      2  C   UNL     1       1.371   2.176  19.528  0.00  0.00    +0.000 C 
ATOM      3  C   UNL     1       1.166   3.343  18.606  0.00  0.00    +0.000 C 
ATOM      4  C   UNL     1       1.149   4.474  19.341  0.00  0.00    +0.000 C 
ATOM      5  C   UNL     1       2.459   4.860  20.085  0.00  0.00    +0.000 C 
ATOM      6  C   UNL     1       2.844   3.624  20.902  0.00  0.00    +0.000 C 
ATOM      7  C   UNL     1       2.306   2.404  20.674  0.00  0.00    +0.000 C 
ATOM      8  C   UNL     1       2.171   6.040  21.054  0.00  0.00    +0.000 C 
ATOM      9  C   UNL     1       1.619   7.249  20.289  0.00  0.00    +0.000 C 
ATOM     10  N   UNL     1       2.410   7.486  19.102  0.00  0.00    +0.000 N 
ATOM     11  C   UNL     1       3.299   6.582  18.542  0.00  0.00    +0.000 C 
ATOM     12  C   UNL     1       3.481   5.348  19.053  0.00  0.00    +0.000 C 
ATOM     13  C   UNL     1       4.596   4.503  18.556  0.00  0.00    +0.000 C 
ATOM     14  O   UNL     1       4.986   3.508  19.155  0.00  0.00    +0.000 OA
ATOM     15  C   UNL     1       5.257   4.888  17.295  0.00  0.00    +0.000 A 
ATOM     16  C   UNL     1       6.207   4.032  16.719  0.00  0.00    +0.000 A 
ATOM     17  C   UNL     1       6.769   4.343  15.478  0.00  0.00    +0.000 A 
ATOM     18  C   UNL     1       6.384   5.504  14.810  0.00  0.00    +0.000 A 
ATOM     19  C   UNL     1       5.467   6.375  15.398  0.00  0.00    +0.000 A 
ATOM     20  C   UNL     1       4.918   6.072  16.652  0.00  0.00    +0.000 A 
ATOM     21  C   UNL     1       3.988   7.018  17.286  0.00  0.00    +0.000 C 
ATOM     22  O   UNL     1       3.740   8.107  16.778  0.00  0.00    +0.000 OA
ATOM     23  H   UNL     1       2.188   8.289  18.508  0.00  0.00    +0.000 HD
ENDROOT
TORSDOF 0
ENDMDL
MODEL 7
REMARK VINA RESULT:      -6.5      7.455      9.960
REMARK  Name = 
REMARK  0 active torsions:
REMARK  status: ('A' for Active; 'I' for Inactive)
REMARK                            x       y       z     vdW  Elec       q    Type
REMARK                         _______ _______ _______ _____ _____    ______ ____
ROOT
ATOM      1  O   UNL     1       1.012  15.820  20.253  0.00  0.00    +0.000 OA
ATOM      2  C   UNL     1       0.745  14.635  20.118  0.00  0.00    +0.000 C 
ATOM      3  C   UNL     1       0.430  14.050  18.771  0.00  0.00    +0.000 C 
ATOM      4  C   UNL     1       0.894  12.784  18.733  0.00  0.00    +0.000 C 
ATOM      5  C   UNL     1       0.246  11.757  19.705  0.00  0.00    +0.000 C 
ATOM      6  C   UNL     1       0.351  12.388  21.096  0.00  0.00    +0.000 C 
ATOM      7  C   UNL     1       0.629  13.700  21.281  0.00  0.00    +0.000 C 
ATOM      8  C   UNL     1       1.067  10.439  19.682  0.00  0.00    +0.000 C 
ATOM      9  C   UNL     1       1.127   9.860  18.264  0.00  0.00    +0.000 C 
ATOM     10  N   UNL     1      -0.188   9.884  17.664  0.00  0.00    +0.000 N 
ATOM     11  C   UNL     1      -1.265  10.620  18.132  0.00  0.00    +0.000 C 
ATOM     12  C   UNL     1      -1.165  11.432  19.203  0.00  0.00    +0.000 C 
ATOM     13  C   UNL     1      -2.391  12.023  19.797  0.00  0.00    +0.000 C 
ATOM     14  O   UNL     1      -2.405  12.530  20.912  0.00  0.00    +0.000 OA
ATOM     15  C   UNL     1      -3.637  11.988  19.007  0.00  0.00    +0.000 A 
ATOM     16  C   UNL     1      -4.772  12.669  19.470  0.00  0.00    +0.000 A 
ATOM     17  C   UNL     1      -5.927  12.720  18.686  0.00  0.00    +0.000 A 
ATOM     18  C   UNL     1      -5.951  12.094  17.440  0.00  0.00    +0.000 A 
ATOM     19  C   UNL     1      -4.836  11.385  16.994  0.00  0.00    +0.000 A 
ATOM     20  C   UNL     1      -3.684  11.318  17.791  0.00  0.00    +0.000 A 
ATOM     21  C   UNL     1      -2.530  10.530  17.336  0.00  0.00    +0.000 C 
ATOM     22  O   UNL     1      -2.579   9.862  16.307  0.00  0.00    +0.000 OA
ATOM     23  H   UNL     1      -0.316   9.490  16.728  0.00  0.00    +0.000 HD
ENDROOT
TORSDOF 0
ENDMDL
MODEL 8
REMARK VINA RESULT:      -6.4      6.286      8.783
REMARK  Name = 
REMARK  0 active torsions:
REMARK  status: ('A' for Active; 'I' for Inactive)
REMARK                            x       y       z     vdW  Elec       q    Type
REMARK                         _______ _______ _______ _____ _____    ______ ____
ROOT
ATOM      1  O   UNL     1       2.356  15.750  19.443  0.00  0.00    +0.000 OA
ATOM      2  C   UNL     1       1.481  14.985  19.820  0.00  0.00    +0.000 C 
ATOM      3  C   UNL     1       1.703  14.043  20.968  0.00  0.00    +0.000 C 
ATOM      4  C   UNL     1       0.540  13.896  21.635  0.00  0.00    +0.000 C 
ATOM      5  C   UNL     1      -0.638  13.225  20.874  0.00  0.00    +0.000 C 
ATOM      6  C   UNL     1      -0.793  14.022  19.576  0.00  0.00    +0.000 C 
ATOM      7  C   UNL     1       0.163  14.866  19.122  0.00  0.00    +0.000 C 
ATOM      8  C   UNL     1      -1.938  13.365  21.713  0.00  0.00    +0.000 C 
ATOM      9  C   UNL     1      -1.765  12.723  23.095  0.00  0.00    +0.000 C 
ATOM     10  N   UNL     1      -1.147  11.423  22.962  0.00  0.00    +0.000 N 
ATOM     11  C   UNL     1      -0.492  10.964  21.829  0.00  0.00    +0.000 C 
ATOM     12  C   UNL     1      -0.339  11.729  20.731  0.00  0.00    +0.000 C 
ATOM     13  C   UNL     1       0.168  11.122  19.475  0.00  0.00    +0.000 C 
ATOM     14  O   UNL     1       0.069  11.678  18.388  0.00  0.00    +0.000 OA
ATOM     15  C   UNL     1       0.811   9.796  19.549  0.00  0.00    +0.000 A 
ATOM     16  C   UNL     1       1.436   9.262  18.412  0.00  0.00    +0.000 A 
ATOM     17  C   UNL     1       2.127   8.052  18.497  0.00  0.00    +0.000 A 
ATOM     18  C   UNL     1       2.198   7.373  19.712  0.00  0.00    +0.000 A 
ATOM     19  C   UNL     1       1.546   7.883  20.835  0.00  0.00    +0.000 A 
ATOM     20  C   UNL     1       0.836   9.089  20.745  0.00  0.00    +0.000 A 
ATOM     21  C   UNL     1       0.112   9.596  21.919  0.00  0.00    +0.000 C 
ATOM     22  O   UNL     1       0.049   8.947  22.959  0.00  0.00    +0.000 OA
ATOM     23  H   UNL     1      -1.003  10.851  23.798  0.00  0.00    +0.000 HD
ENDROOT
TORSDOF 0
ENDMDL
MODEL 9
REMARK VINA RESULT:      -6.3      9.707     12.427
REMARK  Name = 
REMARK  0 active torsions:
REMARK  status: ('A' for Active; 'I' for Inactive)
REMARK                            x       y       z     vdW  Elec       q    Type
REMARK                         _______ _______ _______ _____ _____    ______ ____
ROOT
ATOM      1  O   UNL     1       5.677  17.697  20.221  0.00  0.00    +0.000 OA
ATOM      2  C   UNL     1       6.852  17.486  19.958  0.00  0.00    +0.000 C 
ATOM      3  C   UNL     1       7.262  16.832  18.670  0.00  0.00    +0.000 C 
ATOM      4  C   UNL     1       8.445  17.351  18.280  0.00  0.00    +0.000 C 
ATOM      5  C   UNL     1       9.674  17.090  19.196  0.00  0.00    +0.000 C 
ATOM      6  C   UNL     1       9.250  17.553  20.592  0.00  0.00    +0.000 C 
ATOM      7  C   UNL     1       7.957  17.781  20.922  0.00  0.00    +0.000 C 
ATOM      8  C   UNL     1      10.868  17.958  18.714  0.00  0.00    +0.000 C 
ATOM      9  C   UNL     1      11.217  17.641  17.255  0.00  0.00    +0.000 C 
ATOM     10  N   UNL     1      11.259  16.210  17.057  0.00  0.00    +0.000 N 
ATOM     11  C   UNL     1      10.733  15.268  17.928  0.00  0.00    +0.000 C 
ATOM     12  C   UNL     1      10.085  15.620  19.056  0.00  0.00    +0.000 C 
ATOM     13  C   UNL     1       9.738  14.583  20.060  0.00  0.00    +0.000 C 
ATOM     14  O   UNL     1       9.408  14.861  21.207  0.00  0.00    +0.000 OA
ATOM     15  C   UNL     1       9.801  13.167  19.653  0.00  0.00    +0.000 A 
ATOM     16  C   UNL     1       9.335  12.172  20.525  0.00  0.00    +0.000 A 
ATOM     17  C   UNL     1       9.304  10.838  20.113  0.00  0.00    +0.000 A 
ATOM     18  C   UNL     1       9.735  10.494  18.832  0.00  0.00    +0.000 A 
ATOM     19  C   UNL     1      10.234  11.476  17.977  0.00  0.00    +0.000 A 
ATOM     20  C   UNL     1      10.282  12.813  18.398  0.00  0.00    +0.000 A 
ATOM     21  C   UNL     1      10.852  13.835  17.510  0.00  0.00    +0.000 C 
ATOM     22  O   UNL     1      11.360  13.534  16.434  0.00  0.00    +0.000 OA
ATOM     23  H   UNL     1      11.521  15.841  16.139  0.00  0.00    +0.000 HD
ENDROOT
TORSDOF 0
ENDMDL
