MODEL 1
REMARK VINA RESULT:      -7.4      0.000      0.000
REMARK  Name = 
REMARK  7 active torsions:
REMARK  status: ('A' for Active; 'I' for Inactive)
REMARK    1  A    between atoms: C_1  and  O_2
REMARK    2  A    between atoms: O_2  and  C_3
REMARK    3  A    between atoms: C_6  and  C_7
REMARK    4  A    between atoms: C_9  and  C_10
REMARK    5  A    between atoms: N_18  and  C_19
REMARK    6  A    between atoms: C_22  and  C_23
REMARK    7  A    between atoms: C_23  and  O_25
REMARK                            x       y       z     vdW  Elec       q    Type
REMARK                         _______ _______ _______ _____ _____    ______ ____
ROOT
ATOM      1  C   UNL     1       0.066  12.001  19.835  0.00  0.00    +0.000 C 
ATOM      2  C   UNL     1      -1.199  12.772  19.451  0.00  0.00    +0.000 C 
ATOM      3  C   UNL     1      -1.973  11.669  18.792  0.00  0.00    +0.000 C 
ATOM      4  N   UNL     1      -1.272  10.618  18.489  0.00  0.00    +0.000 NA
ATOM      5  N   UNL     1       0.011  10.831  18.943  0.00  0.00    +0.000 N 
ENDROOT
BRANCH   3   6
ATOM      6  C   UNL     1      -3.420  11.794  18.503  0.00  0.00    +0.000 A 
ATOM      7  C   UNL     1      -3.943  11.447  17.251  0.00  0.00    +0.000 A 
ATOM      8  C   UNL     1      -5.306  11.612  16.987  0.00  0.00    +0.000 A 
ATOM      9  C   UNL     1      -6.148  12.120  17.975  0.00  0.00    +0.000 A 
ATOM     10  C   UNL     1      -5.624  12.451  19.220  0.00  0.00    +0.000 A 
ATOM     11  F   UNL     1      -6.437  12.936  20.166  0.00  0.00    +0.000 F 
ATOM     12  C   UNL     1      -4.270  12.292  19.496  0.00  0.00    +0.000 A 
ENDBRANCH   3   6
BRANCH   1  16
ATOM     13  C   UNL     1       3.643  14.410  19.351  0.00  0.00    +0.000 A 
ATOM     14  C   UNL     1       2.938  13.945  18.242  0.00  0.00    +0.000 A 
ATOM     15  C   UNL     1       1.783  13.177  18.406  0.00  0.00    +0.000 A 
ATOM     16  C   UNL     1       1.307  12.862  19.688  0.00  0.00    +0.000 A 
ATOM     17  C   UNL     1       2.023  13.337  20.797  0.00  0.00    +0.000 A 
ATOM     18  C   UNL     1       3.190  14.094  20.630  0.00  0.00    +0.000 A 
BRANCH  13  20
ATOM     19  C   UNL     1       5.406  14.803  17.825  0.00  0.00    +0.000 C 
ATOM     20  O   UNL     1       4.775  15.120  19.060  0.00  0.00    +0.000 OA
ENDBRANCH  13  20
ENDBRANCH   1  16
BRANCH   5  21
ATOM     21  C   UNL     1       0.859   9.719  19.017  0.00  0.00    +0.000 A 
ATOM     22  C   UNL     1       0.983   9.012  20.227  0.00  0.00    +0.000 A 
ATOM     23  C   UNL     1       1.752   7.847  20.336  0.00  0.00    +0.000 A 
ATOM     24  C   UNL     1       2.433   7.349  19.225  0.00  0.00    +0.000 A 
ATOM     25  C   UNL     1       2.349   8.042  18.014  0.00  0.00    +0.000 A 
ATOM     26  C   UNL     1       1.578   9.214  17.924  0.00  0.00    +0.000 A 
BRANCH  24  27
ATOM     27  C   UNL     1       3.160   6.060  19.374  0.00  0.00    +0.000 C 
ATOM     28  O   UNL     1       3.847   5.580  18.485  0.00  0.00    +0.000 OA
BRANCH  27  29
ATOM     29  O   UNL     1       2.979   5.447  20.562  0.00  0.00    +0.000 OA
ATOM     30  H   UNL     1       2.596   6.007  21.263  0.00  0.00    +0.000 HD
ENDBRANCH  27  29
ENDBRANCH  24  27
ENDBRANCH   5  21
TORSDOF 6
ENDMDL
MODEL 2
REMARK VINA RESULT:      -7.3      8.246     10.167
REMARK  Name = 
REMARK  7 active torsions:
REMARK  status: ('A' for Active; 'I' for Inactive)
REMARK    1  A    between atoms: C_1  and  O_2
REMARK    2  A    between atoms: O_2  and  C_3
REMARK    3  A    between atoms: C_6  and  C_7
REMARK    4  A    between atoms: C_9  and  C_10
REMARK    5  A    between atoms: N_18  and  C_19
REMARK    6  A    between atoms: C_22  and  C_23
REMARK    7  A    between atoms: C_23  and  O_25
REMARK                            x       y       z     vdW  Elec       q    Type
REMARK                         _______ _______ _______ _____ _____    ______ ____
ROOT
ATOM      1  C   UNL     1       5.509   5.939  16.206  0.00  0.00    +0.000 C 
ATOM      2  C   UNL     1       6.093   5.654  14.820  0.00  0.00    +0.000 C 
ATOM      3  C   UNL     1       5.529   4.284  14.588  0.00  0.00    +0.000 C 
ATOM      4  N   UNL     1       5.058   3.702  15.650  0.00  0.00    +0.000 NA
ATOM      5  N   UNL     1       5.176   4.592  16.695  0.00  0.00    +0.000 N 
ENDROOT
BRANCH   3   6
ATOM      6  C   UNL     1       5.532   3.654  13.248  0.00  0.00    +0.000 A 
ATOM      7  C   UNL     1       4.353   3.535  12.500  0.00  0.00    +0.000 A 
ATOM      8  C   UNL     1       4.372   2.899  11.255  0.00  0.00    +0.000 A 
ATOM      9  C   UNL     1       5.566   2.385  10.755  0.00  0.00    +0.000 A 
ATOM     10  C   UNL     1       6.735   2.517  11.498  0.00  0.00    +0.000 A 
ATOM     11  F   UNL     1       7.881   2.024  11.012  0.00  0.00    +0.000 F 
ATOM     12  C   UNL     1       6.732   3.147  12.738  0.00  0.00    +0.000 A 
ENDBRANCH   3   6
BRANCH   1  16
ATOM     13  C   UNL     1       8.326   8.201  18.609  0.00  0.00    +0.000 A 
ATOM     14  C   UNL     1       7.510   8.837  17.674  0.00  0.00    +0.000 A 
ATOM     15  C   UNL     1       6.600   8.103  16.911  0.00  0.00    +0.000 A 
ATOM     16  C   UNL     1       6.486   6.714  17.071  0.00  0.00    +0.000 A 
ATOM     17  C   UNL     1       7.310   6.084  18.016  0.00  0.00    +0.000 A 
ATOM     18  C   UNL     1       8.233   6.820  18.770  0.00  0.00    +0.000 A 
BRANCH  13  20
ATOM     19  C   UNL     1       9.225  10.377  18.833  0.00  0.00    +0.000 C 
ATOM     20  O   UNL     1       9.199   9.022  19.268  0.00  0.00    +0.000 OA
ENDBRANCH  13  20
ENDBRANCH   1  16
BRANCH   5  21
ATOM     21  C   UNL     1       4.451   4.313  17.860  0.00  0.00    +0.000 A 
ATOM     22  C   UNL     1       3.165   4.859  18.033  0.00  0.00    +0.000 A 
ATOM     23  C   UNL     1       2.364   4.549  19.138  0.00  0.00    +0.000 A 
ATOM     24  C   UNL     1       2.830   3.675  20.121  0.00  0.00    +0.000 A 
ATOM     25  C   UNL     1       4.112   3.134  19.990  0.00  0.00    +0.000 A 
ATOM     26  C   UNL     1       4.907   3.462  18.878  0.00  0.00    +0.000 A 
BRANCH  24  27
ATOM     27  C   UNL     1       1.904   3.309  21.225  0.00  0.00    +0.000 C 
ATOM     28  O   UNL     1       2.278   3.139  22.375  0.00  0.00    +0.000 OA
BRANCH  27  29
ATOM     29  O   UNL     1       0.617   3.154  20.849  0.00  0.00    +0.000 OA
ATOM     30  H   UNL     1       0.262   2.251  20.948  0.00  0.00    +0.000 HD
ENDBRANCH  27  29
ENDBRANCH  24  27
ENDBRANCH   5  21
TORSDOF 6
ENDMDL
MODEL 3
REMARK VINA RESULT:      -7.2      0.463      1.007
REMARK  Name = 
REMARK  7 active torsions:
REMARK  status: ('A' for Active; 'I' for Inactive)
REMARK    1  A    between atoms: C_1  and  O_2
REMARK    2  A    between atoms: O_2  and  C_3
REMARK    3  A    between atoms: C_6  and  C_7
REMARK    4  A    between atoms: C_9  and  C_10
REMARK    5  A    between atoms: N_18  and  C_19
REMARK    6  A    between atoms: C_22  and  C_23
REMARK    7  A    between atoms: C_23  and  O_25
REMARK                            x       y       z     vdW  Elec       q    Type
REMARK                         _______ _______ _______ _____ _____    ______ ____
ROOT
ATOM      1  C   UNL     1       0.193  11.997  19.779  0.00  0.00    +0.000 C 
ATOM      2  C   UNL     1      -1.072  12.777  19.412  0.00  0.00    +0.000 C 
ATOM      3  C   UNL     1      -1.879  11.669  18.802  0.00  0.00    +0.000 C 
ATOM      4  N   UNL     1      -1.202  10.601  18.507  0.00  0.00    +0.000 NA
ATOM      5  N   UNL     1       0.097  10.807  18.920  0.00  0.00    +0.000 N 
ENDROOT
BRANCH   3   6
ATOM      6  C   UNL     1      -3.332  11.807  18.551  0.00  0.00    +0.000 A 
ATOM      7  C   UNL     1      -3.890  11.467  17.312  0.00  0.00    +0.000 A 
ATOM      8  C   UNL     1      -5.257  11.645  17.084  0.00  0.00    +0.000 A 
ATOM      9  C   UNL     1      -6.069  12.158  18.093  0.00  0.00    +0.000 A 
ATOM     10  C   UNL     1      -5.511  12.482  19.325  0.00  0.00    +0.000 A 
ATOM     11  F   UNL     1      -6.296  12.973  20.293  0.00  0.00    +0.000 F 
ATOM     12  C   UNL     1      -4.151  12.310  19.567  0.00  0.00    +0.000 A 
ENDBRANCH   3   6
BRANCH   1  16
ATOM     13  C   UNL     1       3.732  14.454  19.261  0.00  0.00    +0.000 A 
ATOM     14  C   UNL     1       3.253  14.148  20.534  0.00  0.00    +0.000 A 
ATOM     15  C   UNL     1       2.119  13.350  20.693  0.00  0.00    +0.000 A 
ATOM     16  C   UNL     1       1.441  12.837  19.576  0.00  0.00    +0.000 A 
ATOM     17  C   UNL     1       1.932  13.149  18.299  0.00  0.00    +0.000 A 
ATOM     18  C   UNL     1       3.062  13.962  18.142  0.00  0.00    +0.000 A 
BRANCH  13  20
ATOM     19  C   UNL     1       4.561  16.662  19.093  0.00  0.00    +0.000 C 
ATOM     20  O   UNL     1       4.828  15.272  19.236  0.00  0.00    +0.000 OA
ENDBRANCH  13  20
ENDBRANCH   1  16
BRANCH   5  21
ATOM     21  C   UNL     1       0.931   9.685  18.998  0.00  0.00    +0.000 A 
ATOM     22  C   UNL     1       1.042   8.978  20.209  0.00  0.00    +0.000 A 
ATOM     23  C   UNL     1       1.797   7.804  20.323  0.00  0.00    +0.000 A 
ATOM     24  C   UNL     1       2.477   7.296  19.215  0.00  0.00    +0.000 A 
ATOM     25  C   UNL     1       2.405   7.989  18.003  0.00  0.00    +0.000 A 
ATOM     26  C   UNL     1       1.649   9.170  17.909  0.00  0.00    +0.000 A 
BRANCH  24  27
ATOM     27  C   UNL     1       3.187   5.999  19.368  0.00  0.00    +0.000 C 
ATOM     28  O   UNL     1       3.870   5.509  18.481  0.00  0.00    +0.000 OA
BRANCH  27  29
ATOM     29  O   UNL     1       2.998   5.392  20.557  0.00  0.00    +0.000 OA
ATOM     30  H   UNL     1       2.224   4.800  20.602  0.00  0.00    +0.000 HD
ENDBRANCH  27  29
ENDBRANCH  24  27
ENDBRANCH   5  21
TORSDOF 6
ENDMDL
MODEL 4
REMARK VINA RESULT:      -7.1      4.314      6.881
REMARK  Name = 
REMARK  7 active torsions:
REMARK  status: ('A' for Active; 'I' for Inactive)
REMARK    1  A    between atoms: C_1  and  O_2
REMARK    2  A    between atoms: O_2  and  C_3
REMARK    3  A    between atoms: C_6  and  C_7
REMARK    4  A    between atoms: C_9  and  C_10
REMARK    5  A    between atoms: N_18  and  C_19
REMARK    6  A    between atoms: C_22  and  C_23
REMARK    7  A    between atoms: C_23  and  O_25
REMARK                            x       y       z     vdW  Elec       q    Type
REMARK                         _______ _______ _______ _____ _____    ______ ____
ROOT
ATOM      1  C   UNL     1       0.354  11.655  18.985  0.00  0.00    +0.000 C 
ATOM      2  C   UNL     1       1.496  10.766  18.485  0.00  0.00    +0.000 C 
ATOM      3  C   UNL     1       1.326   9.598  19.411  0.00  0.00    +0.000 C 
ATOM      4  N   UNL     1       0.571   9.826  20.442  0.00  0.00    +0.000 NA
ATOM      5  N   UNL     1       0.091  11.112  20.327  0.00  0.00    +0.000 N 
ENDROOT
BRANCH   3   6
ATOM      6  C   UNL     1       1.989   8.298  19.158  0.00  0.00    +0.000 A 
ATOM      7  C   UNL     1       2.680   8.055  17.965  0.00  0.00    +0.000 A 
ATOM      8  C   UNL     1       3.263   6.806  17.731  0.00  0.00    +0.000 A 
ATOM      9  C   UNL     1       3.159   5.801  18.689  0.00  0.00    +0.000 A 
ATOM     10  C   UNL     1       2.481   6.052  19.877  0.00  0.00    +0.000 A 
ATOM     11  F   UNL     1       2.386   5.083  20.796  0.00  0.00    +0.000 F 
ATOM     12  C   UNL     1       1.896   7.291  20.124  0.00  0.00    +0.000 A 
ENDBRANCH   3   6
BRANCH   1  16
ATOM     13  C   UNL     1       1.402  15.862  18.807  0.00  0.00    +0.000 A 
ATOM     14  C   UNL     1       0.098  15.438  18.553  0.00  0.00    +0.000 A 
ATOM     15  C   UNL     1      -0.233  14.083  18.620  0.00  0.00    +0.000 A 
ATOM     16  C   UNL     1       0.737  13.123  18.949  0.00  0.00    +0.000 A 
ATOM     17  C   UNL     1       2.045  13.561  19.206  0.00  0.00    +0.000 A 
ATOM     18  C   UNL     1       2.378  14.919  19.122  0.00  0.00    +0.000 A 
BRANCH  13  20
ATOM     19  C   UNL     1       0.588  17.927  17.992  0.00  0.00    +0.000 C 
ATOM     20  O   UNL     1       1.608  17.207  18.675  0.00  0.00    +0.000 OA
ENDBRANCH  13  20
ENDBRANCH   1  16
BRANCH   5  21
ATOM     21  C   UNL     1      -0.988  11.470  21.145  0.00  0.00    +0.000 A 
ATOM     22  C   UNL     1      -0.955  11.172  22.520  0.00  0.00    +0.000 A 
ATOM     23  C   UNL     1      -1.968  11.578  23.397  0.00  0.00    +0.000 A 
ATOM     24  C   UNL     1      -3.062  12.300  22.920  0.00  0.00    +0.000 A 
ATOM     25  C   UNL     1      -3.135  12.593  21.556  0.00  0.00    +0.000 A 
ATOM     26  C   UNL     1      -2.114  12.172  20.687  0.00  0.00    +0.000 A 
BRANCH  24  27
ATOM     27  C   UNL     1      -4.062  12.785  23.909  0.00  0.00    +0.000 C 
ATOM     28  O   UNL     1      -4.307  13.970  24.078  0.00  0.00    +0.000 OA
BRANCH  27  29
ATOM     29  O   UNL     1      -4.660  11.811  24.625  0.00  0.00    +0.000 OA
ATOM     30  H   UNL     1      -4.369  11.740  25.553  0.00  0.00    +0.000 HD
ENDBRANCH  27  29
ENDBRANCH  24  27
ENDBRANCH   5  21
TORSDOF 6
ENDMDL
MODEL 5
REMARK VINA RESULT:      -7.1      4.273      6.878
REMARK  Name = 
REMARK  7 active torsions:
REMARK  status: ('A' for Active; 'I' for Inactive)
REMARK    1  A    between atoms: C_1  and  O_2
REMARK    2  A    between atoms: O_2  and  C_3
REMARK    3  A    between atoms: C_6  and  C_7
REMARK    4  A    between atoms: C_9  and  C_10
REMARK    5  A    between atoms: N_18  and  C_19
REMARK    6  A    between atoms: C_22  and  C_23
REMARK    7  A    between atoms: C_23  and  O_25
REMARK                            x       y       z     vdW  Elec       q    Type
REMARK                         _______ _______ _______ _____ _____    ______ ____
ROOT
ATOM      1  C   UNL     1       0.322  11.541  19.031  0.00  0.00    +0.000 C 
ATOM      2  C   UNL     1       1.430  10.603  18.543  0.00  0.00    +0.000 C 
ATOM      3  C   UNL     1       1.229   9.463  19.496  0.00  0.00    +0.000 C 
ATOM      4  N   UNL     1       0.489   9.739  20.527  0.00  0.00    +0.000 NA
ATOM      5  N   UNL     1       0.051  11.038  20.387  0.00  0.00    +0.000 N 
ENDROOT
BRANCH   3   6
ATOM      6  C   UNL     1       1.847   8.137  19.269  0.00  0.00    +0.000 A 
ATOM      7  C   UNL     1       2.488   7.832  18.061  0.00  0.00    +0.000 A 
ATOM      8  C   UNL     1       3.028   6.559  17.854  0.00  0.00    +0.000 A 
ATOM      9  C   UNL     1       2.931   5.592  18.852  0.00  0.00    +0.000 A 
ATOM     10  C   UNL     1       2.304   5.905  20.053  0.00  0.00    +0.000 A 
ATOM     11  F   UNL     1       2.215   4.973  21.010  0.00  0.00    +0.000 F 
ATOM     12  C   UNL     1       1.762   7.167  20.274  0.00  0.00    +0.000 A 
ENDBRANCH   3   6
BRANCH   1  16
ATOM     13  C   UNL     1       1.595  15.687  18.901  0.00  0.00    +0.000 A 
ATOM     14  C   UNL     1       2.483  14.676  19.267  0.00  0.00    +0.000 A 
ATOM     15  C   UNL     1       2.068  13.344  19.298  0.00  0.00    +0.000 A 
ATOM     16  C   UNL     1       0.752  12.994  18.958  0.00  0.00    +0.000 A 
ATOM     17  C   UNL     1      -0.133  14.018  18.590  0.00  0.00    +0.000 A 
ATOM     18  C   UNL     1       0.281  15.356  18.574  0.00  0.00    +0.000 A 
BRANCH  13  20
ATOM     19  C   UNL     1       1.733  17.739  20.068  0.00  0.00    +0.000 C 
ATOM     20  O   UNL     1       2.110  16.953  18.944  0.00  0.00    +0.000 OA
ENDBRANCH  13  20
ENDBRANCH   1  16
BRANCH   5  21
ATOM     21  C   UNL     1      -1.009  11.449  21.203  0.00  0.00    +0.000 A 
ATOM     22  C   UNL     1      -0.973  11.185  22.585  0.00  0.00    +0.000 A 
ATOM     23  C   UNL     1      -1.966  11.644  23.460  0.00  0.00    +0.000 A 
ATOM     24  C   UNL     1      -3.041  12.388  22.973  0.00  0.00    +0.000 A 
ATOM     25  C   UNL     1      -3.117  12.648  21.602  0.00  0.00    +0.000 A 
ATOM     26  C   UNL     1      -2.116  12.173  20.737  0.00  0.00    +0.000 A 
BRANCH  24  27
ATOM     27  C   UNL     1      -4.017  12.928  23.957  0.00  0.00    +0.000 C 
ATOM     28  O   UNL     1      -4.238  14.122  24.083  0.00  0.00    +0.000 OA
BRANCH  27  29
ATOM     29  O   UNL     1      -4.621  11.992  24.719  0.00  0.00    +0.000 OA
ATOM     30  H   UNL     1      -4.060  11.596  25.412  0.00  0.00    +0.000 HD
ENDBRANCH  27  29
ENDBRANCH  24  27
ENDBRANCH   5  21
TORSDOF 6
ENDMDL
MODEL 6
REMARK VINA RESULT:      -7.1      4.368      6.933
REMARK  Name = 
REMARK  7 active torsions:
REMARK  status: ('A' for Active; 'I' for Inactive)
REMARK    1  A    between atoms: C_1  and  O_2
REMARK    2  A    between atoms: O_2  and  C_3
REMARK    3  A    between atoms: C_6  and  C_7
REMARK    4  A    between atoms: C_9  and  C_10
REMARK    5  A    between atoms: N_18  and  C_19
REMARK    6  A    between atoms: C_22  and  C_23
REMARK    7  A    between atoms: C_23  and  O_25
REMARK                            x       y       z     vdW  Elec       q    Type
REMARK                         _______ _______ _______ _____ _____    ______ ____
ROOT
ATOM      1  C   UNL     1       0.582  11.332  18.885  0.00  0.00    +0.000 C 
ATOM      2  C   UNL     1       1.683  10.398  18.376  0.00  0.00    +0.000 C 
ATOM      3  C   UNL     1       1.502   9.256  19.332  0.00  0.00    +0.000 C 
ATOM      4  N   UNL     1       0.781   9.529  20.377  0.00  0.00    +0.000 NA
ATOM      5  N   UNL     1       0.337  10.827  20.246  0.00  0.00    +0.000 N 
ENDROOT
BRANCH   3   6
ATOM      6  C   UNL     1       2.118   7.931  19.092  0.00  0.00    +0.000 A 
ATOM      7  C   UNL     1       1.950   6.877  19.999  0.00  0.00    +0.000 A 
ATOM      8  C   UNL     1       2.576   5.648  19.773  0.00  0.00    +0.000 A 
ATOM      9  C   UNL     1       3.366   5.469  18.639  0.00  0.00    +0.000 A 
ATOM     10  C   UNL     1       3.518   6.515  17.736  0.00  0.00    +0.000 A 
ATOM     11  F   UNL     1       4.277   6.337  16.647  0.00  0.00    +0.000 F 
ATOM     12  C   UNL     1       2.902   7.744  17.948  0.00  0.00    +0.000 A 
ENDBRANCH   3   6
BRANCH   1  16
ATOM     13  C   UNL     1       1.855  15.478  18.730  0.00  0.00    +0.000 A 
ATOM     14  C   UNL     1       2.783  14.450  18.896  0.00  0.00    +0.000 A 
ATOM     15  C   UNL     1       2.366  13.118  18.936  0.00  0.00    +0.000 A 
ATOM     16  C   UNL     1       1.008  12.787  18.807  0.00  0.00    +0.000 A 
ATOM     17  C   UNL     1       0.083  13.828  18.638  0.00  0.00    +0.000 A 
ATOM     18  C   UNL     1       0.502  15.165  18.613  0.00  0.00    +0.000 A 
BRANCH  13  20
ATOM     19  C   UNL     1       3.776  16.827  19.014  0.00  0.00    +0.000 C 
ATOM     20  O   UNL     1       2.382  16.740  18.742  0.00  0.00    +0.000 OA
ENDBRANCH  13  20
ENDBRANCH   1  16
BRANCH   5  21
ATOM     21  C   UNL     1      -0.709  11.236  21.082  0.00  0.00    +0.000 A 
ATOM     22  C   UNL     1      -0.691  10.890  22.446  0.00  0.00    +0.000 A 
ATOM     23  C   UNL     1      -1.668  11.340  23.343  0.00  0.00    +0.000 A 
ATOM     24  C   UNL     1      -2.708  12.156  22.898  0.00  0.00    +0.000 A 
ATOM     25  C   UNL     1      -2.766  12.498  21.544  0.00  0.00    +0.000 A 
ATOM     26  C   UNL     1      -1.782  12.032  20.655  0.00  0.00    +0.000 A 
BRANCH  24  27
ATOM     27  C   UNL     1      -3.665  12.679  23.909  0.00  0.00    +0.000 C 
ATOM     28  O   UNL     1      -4.477  11.969  24.483  0.00  0.00    +0.000 OA
BRANCH  27  29
ATOM     29  O   UNL     1      -3.583  14.009  24.124  0.00  0.00    +0.000 OA
ATOM     30  H   UNL     1      -2.693  14.338  24.347  0.00  0.00    +0.000 HD
ENDBRANCH  27  29
ENDBRANCH  24  27
ENDBRANCH   5  21
TORSDOF 6
ENDMDL
MODEL 7
REMARK VINA RESULT:      -7.0      4.247      6.849
REMARK  Name = 
REMARK  7 active torsions:
REMARK  status: ('A' for Active; 'I' for Inactive)
REMARK    1  A    between atoms: C_1  and  O_2
REMARK    2  A    between atoms: O_2  and  C_3
REMARK    3  A    between atoms: C_6  and  C_7
REMARK    4  A    between atoms: C_9  and  C_10
REMARK    5  A    between atoms: N_18  and  C_19
REMARK    6  A    between atoms: C_22  and  C_23
REMARK    7  A    between atoms: C_23  and  O_25
REMARK                            x       y       z     vdW  Elec       q    Type
REMARK                         _______ _______ _______ _____ _____    ______ ____
ROOT
ATOM      1  C   UNL     1       0.389  11.540  19.119  0.00  0.00    +0.000 C 
ATOM      2  C   UNL     1       1.453  10.559  18.621  0.00  0.00    +0.000 C 
ATOM      3  C   UNL     1       1.234   9.439  19.594  0.00  0.00    +0.000 C 
ATOM      4  N   UNL     1       0.526   9.753  20.637  0.00  0.00    +0.000 NA
ATOM      5  N   UNL     1       0.130  11.064  20.488  0.00  0.00    +0.000 N 
ENDROOT
BRANCH   3   6
ATOM      6  C   UNL     1       1.800   8.089  19.372  0.00  0.00    +0.000 A 
ATOM      7  C   UNL     1       2.384   7.739  18.147  0.00  0.00    +0.000 A 
ATOM      8  C   UNL     1       2.875   6.446  17.946  0.00  0.00    +0.000 A 
ATOM      9  C   UNL     1       2.787   5.503  18.968  0.00  0.00    +0.000 A 
ATOM     10  C   UNL     1       2.218   5.860  20.185  0.00  0.00    +0.000 A 
ATOM     11  F   UNL     1       2.139   4.951  21.165  0.00  0.00    +0.000 F 
ATOM     12  C   UNL     1       1.725   7.144  20.400  0.00  0.00    +0.000 A 
ENDBRANCH   3   6
BRANCH   1  16
ATOM     13  C   UNL     1       1.806  15.636  18.903  0.00  0.00    +0.000 A 
ATOM     14  C   UNL     1       2.685  14.588  19.173  0.00  0.00    +0.000 A 
ATOM     15  C   UNL     1       2.223  13.271  19.232  0.00  0.00    +0.000 A 
ATOM     16  C   UNL     1       0.867  12.977  19.019  0.00  0.00    +0.000 A 
ATOM     17  C   UNL     1      -0.009  14.039  18.746  0.00  0.00    +0.000 A 
ATOM     18  C   UNL     1       0.455  15.360  18.702  0.00  0.00    +0.000 A 
BRANCH  13  20
ATOM     19  C   UNL     1       3.730  16.943  19.329  0.00  0.00    +0.000 C 
ATOM     20  O   UNL     1       2.372  16.881  18.907  0.00  0.00    +0.000 OA
ENDBRANCH  13  20
ENDBRANCH   1  16
BRANCH   5  21
ATOM     21  C   UNL     1      -0.898  11.523  21.321  0.00  0.00    +0.000 A 
ATOM     22  C   UNL     1      -2.003  12.195  20.766  0.00  0.00    +0.000 A 
ATOM     23  C   UNL     1      -3.096  12.602  21.540  0.00  0.00    +0.000 A 
ATOM     24  C   UNL     1      -3.116  12.352  22.913  0.00  0.00    +0.000 A 
ATOM     25  C   UNL     1      -2.022  11.707  23.498  0.00  0.00    +0.000 A 
ATOM     26  C   UNL     1      -0.930  11.312  22.707  0.00  0.00    +0.000 A 
BRANCH  24  27
ATOM     27  C   UNL     1      -4.340  12.724  23.671  0.00  0.00    +0.000 C 
ATOM     28  O   UNL     1      -4.973  13.744  23.448  0.00  0.00    +0.000 OA
BRANCH  27  29
ATOM     29  O   UNL     1      -4.682  11.856  24.645  0.00  0.00    +0.000 OA
ATOM     30  H   UNL     1      -5.309  12.202  25.307  0.00  0.00    +0.000 HD
ENDBRANCH  27  29
ENDBRANCH  24  27
ENDBRANCH   5  21
TORSDOF 6
ENDMDL
MODEL 8
REMARK VINA RESULT:      -7.0      4.267      6.860
REMARK  Name = 
REMARK  7 active torsions:
REMARK  status: ('A' for Active; 'I' for Inactive)
REMARK    1  A    between atoms: C_1  and  O_2
REMARK    2  A    between atoms: O_2  and  C_3
REMARK    3  A    between atoms: C_6  and  C_7
REMARK    4  A    between atoms: C_9  and  C_10
REMARK    5  A    between atoms: N_18  and  C_19
REMARK    6  A    between atoms: C_22  and  C_23
REMARK    7  A    between atoms: C_23  and  O_25
REMARK                            x       y       z     vdW  Elec       q    Type
REMARK                         _______ _______ _______ _____ _____    ______ ____
ROOT
ATOM      1  C   UNL     1       0.405  11.456  19.086  0.00  0.00    +0.000 C 
ATOM      2  C   UNL     1       1.467  10.468  18.595  0.00  0.00    +0.000 C 
ATOM      3  C   UNL     1       1.259   9.365  19.590  0.00  0.00    +0.000 C 
ATOM      4  N   UNL     1       0.561   9.697  20.634  0.00  0.00    +0.000 NA
ATOM      5  N   UNL     1       0.161  11.004  20.465  0.00  0.00    +0.000 N 
ENDROOT
BRANCH   3   6
ATOM      6  C   UNL     1       1.827   8.013  19.387  0.00  0.00    +0.000 A 
ATOM      7  C   UNL     1       2.447   7.659  18.181  0.00  0.00    +0.000 A 
ATOM      8  C   UNL     1       2.938   6.363  17.997  0.00  0.00    +0.000 A 
ATOM      9  C   UNL     1       2.816   5.422  19.017  0.00  0.00    +0.000 A 
ATOM     10  C   UNL     1       2.210   5.783  20.215  0.00  0.00    +0.000 A 
ATOM     11  F   UNL     1       2.097   4.876  21.193  0.00  0.00    +0.000 F 
ATOM     12  C   UNL     1       1.716   7.069  20.413  0.00  0.00    +0.000 A 
ENDBRANCH   3   6
BRANCH   1  16
ATOM     13  C   UNL     1       1.705  15.572  18.642  0.00  0.00    +0.000 A 
ATOM     14  C   UNL     1       0.354  15.236  18.569  0.00  0.00    +0.000 A 
ATOM     15  C   UNL     1      -0.058  13.911  18.722  0.00  0.00    +0.000 A 
ATOM     16  C   UNL     1       0.879  12.892  18.954  0.00  0.00    +0.000 A 
ATOM     17  C   UNL     1       2.236  13.240  19.028  0.00  0.00    +0.000 A 
ATOM     18  C   UNL     1       2.647  14.569  18.860  0.00  0.00    +0.000 A 
BRANCH  13  20
ATOM     19  C   UNL     1       2.740  17.201  17.276  0.00  0.00    +0.000 C 
ATOM     20  O   UNL     1       1.983  16.896  18.441  0.00  0.00    +0.000 OA
ENDBRANCH  13  20
ENDBRANCH   1  16
BRANCH   5  21
ATOM     21  C   UNL     1      -0.860  11.476  21.299  0.00  0.00    +0.000 A 
ATOM     22  C   UNL     1      -1.954  12.168  20.747  0.00  0.00    +0.000 A 
ATOM     23  C   UNL     1      -3.040  12.590  21.522  0.00  0.00    +0.000 A 
ATOM     24  C   UNL     1      -3.066  12.334  22.894  0.00  0.00    +0.000 A 
ATOM     25  C   UNL     1      -1.984  11.668  23.476  0.00  0.00    +0.000 A 
ATOM     26  C   UNL     1      -0.898  11.258  22.684  0.00  0.00    +0.000 A 
BRANCH  24  27
ATOM     27  C   UNL     1      -4.284  12.722  23.652  0.00  0.00    +0.000 C 
ATOM     28  O   UNL     1      -4.908  13.747  23.425  0.00  0.00    +0.000 OA
BRANCH  27  29
ATOM     29  O   UNL     1      -4.633  11.863  24.633  0.00  0.00    +0.000 OA
ATOM     30  H   UNL     1      -3.930  11.664  25.279  0.00  0.00    +0.000 HD
ENDBRANCH  27  29
ENDBRANCH  24  27
ENDBRANCH   5  21
TORSDOF 6
ENDMDL
MODEL 9
REMARK VINA RESULT:      -7.0      4.375      6.972
REMARK  Name = 
REMARK  7 active torsions:
REMARK  status: ('A' for Active; 'I' for Inactive)
REMARK    1  A    between atoms: C_1  and  O_2
REMARK    2  A    between atoms: O_2  and  C_3
REMARK    3  A    between atoms: C_6  and  C_7
REMARK    4  A    between atoms: C_9  and  C_10
REMARK    5  A    between atoms: N_18  and  C_19
REMARK    6  A    between atoms: C_22  and  C_23
REMARK    7  A    between atoms: C_23  and  O_25
REMARK                            x       y       z     vdW  Elec       q    Type
REMARK                         _______ _______ _______ _____ _____    ______ ____
ROOT
ATOM      1  C   UNL     1       0.505  11.444  18.934  0.00  0.00    +0.000 C 
ATOM      2  C   UNL     1       1.622  10.523  18.436  0.00  0.00    +0.000 C 
ATOM      3  C   UNL     1       1.431   9.370  19.375  0.00  0.00    +0.000 C 
ATOM      4  N   UNL     1       0.688   9.626  20.409  0.00  0.00    +0.000 NA
ATOM      5  N   UNL     1       0.238  10.922  20.283  0.00  0.00    +0.000 N 
ENDROOT
BRANCH   3   6
ATOM      6  C   UNL     1       2.062   8.052  19.133  0.00  0.00    +0.000 A 
ATOM      7  C   UNL     1       1.934   7.005  20.056  0.00  0.00    +0.000 A 
ATOM      8  C   UNL     1       2.573   5.783  19.826  0.00  0.00    +0.000 A 
ATOM      9  C   UNL     1       3.336   5.604  18.674  0.00  0.00    +0.000 A 
ATOM     10  C   UNL     1       3.448   6.643  17.756  0.00  0.00    +0.000 A 
ATOM     11  F   UNL     1       4.180   6.464  16.650  0.00  0.00    +0.000 F 
ATOM     12  C   UNL     1       2.818   7.865  17.972  0.00  0.00    +0.000 A 
ENDBRANCH   3   6
BRANCH   1  16
ATOM     13  C   UNL     1       1.643  15.625  18.705  0.00  0.00    +0.000 A 
ATOM     14  C   UNL     1       0.313  15.236  18.554  0.00  0.00    +0.000 A 
ATOM     15  C   UNL     1      -0.047  13.889  18.637  0.00  0.00    +0.000 A 
ATOM     16  C   UNL     1       0.921  12.902  18.878  0.00  0.00    +0.000 A 
ATOM     17  C   UNL     1       2.256  13.304  19.032  0.00  0.00    +0.000 A 
ATOM     18  C   UNL     1       2.617  14.654  18.933  0.00  0.00    +0.000 A 
BRANCH  13  20
ATOM     19  C   UNL     1       0.815  17.720  17.987  0.00  0.00    +0.000 C 
ATOM     20  O   UNL     1       1.873  16.966  18.568  0.00  0.00    +0.000 OA
ENDBRANCH  13  20
ENDBRANCH   1  16
BRANCH   5  21
ATOM     21  C   UNL     1      -0.826  11.314  21.104  0.00  0.00    +0.000 A 
ATOM     22  C   UNL     1      -0.816  10.983  22.472  0.00  0.00    +0.000 A 
ATOM     23  C   UNL     1      -1.812  11.419  23.354  0.00  0.00    +0.000 A 
ATOM     24  C   UNL     1      -2.867  12.205  22.889  0.00  0.00    +0.000 A 
ATOM     25  C   UNL     1      -2.918  12.532  21.531  0.00  0.00    +0.000 A 
ATOM     26  C   UNL     1      -1.914  12.080  20.658  0.00  0.00    +0.000 A 
BRANCH  24  27
ATOM     27  C   UNL     1      -3.847  12.716  23.884  0.00  0.00    +0.000 C 
ATOM     28  O   UNL     1      -4.029  13.907  24.083  0.00  0.00    +0.000 OA
BRANCH  27  29
ATOM     29  O   UNL     1      -4.503  11.756  24.569  0.00  0.00    +0.000 OA
ATOM     30  H   UNL     1      -4.439  11.823  25.540  0.00  0.00    +0.000 HD
ENDBRANCH  27  29
ENDBRANCH  24  27
ENDBRANCH   5  21
TORSDOF 6
ENDMDL
