MODEL 1
REMARK VINA RESULT:      -7.2      0.000      0.000
REMARK  Name = 
REMARK  5 active torsions:
REMARK  status: ('A' for Active; 'I' for Inactive)
REMARK    1  A    between atoms: C_5  and  C_6
REMARK    2  A    between atoms: C_6  and  C_7
REMARK    3  A    between atoms: C_7  and  C_8
REMARK    4  A    between atoms: C_8  and  N_9
REMARK    5  A    between atoms: N_9  and  C_10
REMARK                            x       y       z     vdW  Elec       q    Type
REMARK                         _______ _______ _______ _____ _____    ______ ____
ROOT
ATOM      1  C   UNL     1       4.372   2.317  18.435  0.00  0.00    +0.000 C 
ENDROOT
BRANCH   1   2
ATOM      2  N   UNL     1       4.522   3.019  17.169  0.00  0.00    +0.000 N 
ATOM      3  H   UNL     1       3.642   3.305  16.755  0.00  0.00    +0.000 HD
BRANCH   2   4
ATOM      4  C   UNL     1       5.487   4.022  17.128  0.00  0.00    +0.000 A 
ATOM      5  N   UNL     1       5.860   4.672  18.255  0.00  0.00    +0.000 NA
ATOM      6  C   UNL     1       6.833   5.603  18.184  0.00  0.00    +0.000 A 
ATOM      7  N   UNL     1       7.513   6.003  17.101  0.00  0.00    +0.000 NA
ATOM      8  C   UNL     1       7.106   5.342  16.008  0.00  0.00    +0.000 A 
ATOM      9  O   UNL     1       7.619   5.539  14.758  0.00  0.00    +0.000 OA
ATOM     10  N   UNL     1       6.976   4.694  13.854  0.00  0.00    +0.000 NA
ATOM     11  C   UNL     1       6.097   4.008  14.580  0.00  0.00    +0.000 A 
ATOM     12  C   UNL     1       6.130   4.369  15.940  0.00  0.00    +0.000 A 
ENDBRANCH   2   4
ENDBRANCH   1   2
BRANCH   1  13
ATOM     13  C   UNL     1       3.069   1.518  18.403  0.00  0.00    +0.000 C 
BRANCH  13  14
ATOM     14  C   UNL     1       1.803   2.389  18.236  0.00  0.00    +0.000 C 
BRANCH  14  19
ATOM     15  C   UNL     1       2.260   7.507  19.513  0.00  0.00    +0.000 A 
ATOM     16  C   UNL     1       2.446   6.920  18.192  0.00  0.00    +0.000 A 
ATOM     17  C   UNL     1       2.290   5.589  18.031  0.00  0.00    +0.000 A 
ATOM     18  N   UNL     1       1.951   4.802  19.138  0.00  0.00    +0.000 N 
ATOM     19  C   UNL     1       1.723   3.443  19.303  0.00  0.00    +0.000 A 
ATOM     20  N   UNL     1       1.434   3.208  20.569  0.00  0.00    +0.000 NA
ATOM     21  N   UNL     1       1.462   4.392  21.258  0.00  0.00    +0.000 NA
ATOM     22  C   UNL     1       1.770   5.342  20.407  0.00  0.00    +0.000 A 
ATOM     23  C   UNL     1       1.934   6.744  20.573  0.00  0.00    +0.000 A 
ENDBRANCH  14  19
ENDBRANCH  13  14
ENDBRANCH   1  13
TORSDOF 5
ENDMDL
MODEL 2
REMARK VINA RESULT:      -7.2      2.231      3.325
REMARK  Name = 
REMARK  5 active torsions:
REMARK  status: ('A' for Active; 'I' for Inactive)
REMARK    1  A    between atoms: C_5  and  C_6
REMARK    2  A    between atoms: C_6  and  C_7
REMARK    3  A    between atoms: C_7  and  C_8
REMARK    4  A    between atoms: C_8  and  N_9
REMARK    5  A    between atoms: N_9  and  C_10
REMARK                            x       y       z     vdW  Elec       q    Type
REMARK                         _______ _______ _______ _____ _____    ______ ____
ROOT
ATOM      1  C   UNL     1       2.915   3.985  18.225  0.00  0.00    +0.000 C 
ENDROOT
BRANCH   1   2
ATOM      2  N   UNL     1       3.920   3.502  17.290  0.00  0.00    +0.000 N 
ATOM      3  H   UNL     1       3.581   3.409  16.338  0.00  0.00    +0.000 HD
BRANCH   2   4
ATOM      4  C   UNL     1       5.171   4.108  17.357  0.00  0.00    +0.000 A 
ATOM      5  N   UNL     1       5.797   4.276  18.545  0.00  0.00    +0.000 NA
ATOM      6  C   UNL     1       7.031   4.822  18.566  0.00  0.00    +0.000 A 
ATOM      7  N   UNL     1       7.759   5.251  17.527  0.00  0.00    +0.000 NA
ATOM      8  C   UNL     1       7.099   5.076  16.373  0.00  0.00    +0.000 A 
ATOM      9  O   UNL     1       7.592   5.420  15.148  0.00  0.00    +0.000 OA
ATOM     10  N   UNL     1       6.656   5.103  14.164  0.00  0.00    +0.000 NA
ATOM     11  C   UNL     1       5.626   4.574  14.819  0.00  0.00    +0.000 A 
ATOM     12  C   UNL     1       5.843   4.529  16.209  0.00  0.00    +0.000 A 
ENDBRANCH   2   4
ENDBRANCH   1   2
BRANCH   1  13
ATOM     13  C   UNL     1       2.618   5.452  17.913  0.00  0.00    +0.000 C 
BRANCH  13  14
ATOM     14  C   UNL     1       2.917   6.415  19.085  0.00  0.00    +0.000 C 
BRANCH  14  19
ATOM     15  C   UNL     1       0.011  10.321  21.166  0.00  0.00    +0.000 A 
ATOM     16  C   UNL     1       0.464   9.115  21.847  0.00  0.00    +0.000 A 
ATOM     17  C   UNL     1       1.204   8.210  21.173  0.00  0.00    +0.000 A 
ATOM     18  N   UNL     1       1.522   8.453  19.832  0.00  0.00    +0.000 N 
ATOM     19  C   UNL     1       2.247   7.743  18.884  0.00  0.00    +0.000 A 
ATOM     20  N   UNL     1       2.246   8.418  17.751  0.00  0.00    +0.000 NA
ATOM     21  N   UNL     1       1.532   9.574  17.923  0.00  0.00    +0.000 NA
ATOM     22  C   UNL     1       1.100   9.597  19.161  0.00  0.00    +0.000 A 
ATOM     23  C   UNL     1       0.321  10.548  19.876  0.00  0.00    +0.000 A 
ENDBRANCH  14  19
ENDBRANCH  13  14
ENDBRANCH   1  13
TORSDOF 5
ENDMDL
MODEL 3
REMARK VINA RESULT:      -7.2      2.699      6.760
REMARK  Name = 
REMARK  5 active torsions:
REMARK  status: ('A' for Active; 'I' for Inactive)
REMARK    1  A    between atoms: C_5  and  C_6
REMARK    2  A    between atoms: C_6  and  C_7
REMARK    3  A    between atoms: C_7  and  C_8
REMARK    4  A    between atoms: C_8  and  N_9
REMARK    5  A    between atoms: N_9  and  C_10
REMARK                            x       y       z     vdW  Elec       q    Type
REMARK                         _______ _______ _______ _____ _____    ______ ____
ROOT
ATOM      1  C   UNL     1       5.761   4.664  18.938  0.00  0.00    +0.000 C 
ENDROOT
BRANCH   1   2
ATOM      2  N   UNL     1       5.186   3.348  18.703  0.00  0.00    +0.000 N 
ATOM      3  H   UNL     1       5.868   2.597  18.718  0.00  0.00    +0.000 HD
BRANCH   2   4
ATOM      4  C   UNL     1       4.031   3.040  19.417  0.00  0.00    +0.000 A 
ATOM      5  N   UNL     1       4.104   2.595  20.693  0.00  0.00    +0.000 NA
ATOM      6  C   UNL     1       2.962   2.354  21.370  0.00  0.00    +0.000 A 
ATOM      7  N   UNL     1       1.703   2.492  20.935  0.00  0.00    +0.000 NA
ATOM      8  C   UNL     1       1.677   2.925  19.667  0.00  0.00    +0.000 A 
ATOM      9  O   UNL     1       0.533   3.157  18.959  0.00  0.00    +0.000 OA
ATOM     10  N   UNL     1       0.861   3.597  17.677  0.00  0.00    +0.000 NA
ATOM     11  C   UNL     1       2.191   3.623  17.646  0.00  0.00    +0.000 A 
ATOM     12  C   UNL     1       2.763   3.212  18.865  0.00  0.00    +0.000 A 
ENDBRANCH   2   4
ENDBRANCH   1   2
BRANCH   1  13
ATOM     13  C   UNL     1       5.470   5.551  17.726  0.00  0.00    +0.000 C 
BRANCH  13  14
ATOM     14  C   UNL     1       5.095   4.764  16.449  0.00  0.00    +0.000 C 
BRANCH  14  19
ATOM     15  C   UNL     1       6.671   3.637  11.522  0.00  0.00    +0.000 A 
ATOM     16  C   UNL     1       5.438   3.198  12.164  0.00  0.00    +0.000 A 
ATOM     17  C   UNL     1       5.180   3.576  13.433  0.00  0.00    +0.000 A 
ATOM     18  N   UNL     1       6.105   4.383  14.106  0.00  0.00    +0.000 N 
ATOM     19  C   UNL     1       6.137   4.931  15.381  0.00  0.00    +0.000 A 
ATOM     20  N   UNL     1       7.251   5.623  15.522  0.00  0.00    +0.000 NA
ATOM     21  N   UNL     1       7.969   5.550  14.357  0.00  0.00    +0.000 NA
ATOM     22  C   UNL     1       7.288   4.813  13.513  0.00  0.00    +0.000 A 
ATOM     23  C   UNL     1       7.556   4.413  12.175  0.00  0.00    +0.000 A 
ENDBRANCH  14  19
ENDBRANCH  13  14
ENDBRANCH   1  13
TORSDOF 5
ENDMDL
MODEL 4
REMARK VINA RESULT:      -7.1      0.963      1.042
REMARK  Name = 
REMARK  5 active torsions:
REMARK  status: ('A' for Active; 'I' for Inactive)
REMARK    1  A    between atoms: C_5  and  C_6
REMARK    2  A    between atoms: C_6  and  C_7
REMARK    3  A    between atoms: C_7  and  C_8
REMARK    4  A    between atoms: C_8  and  N_9
REMARK    5  A    between atoms: N_9  and  C_10
REMARK                            x       y       z     vdW  Elec       q    Type
REMARK                         _______ _______ _______ _____ _____    ______ ____
ROOT
ATOM      1  C   UNL     1       4.200   3.117  17.559  0.00  0.00    +0.000 C 
ENDROOT
BRANCH   1   2
ATOM      2  N   UNL     1       5.221   3.240  18.588  0.00  0.00    +0.000 N 
ATOM      3  H   UNL     1       5.724   2.378  18.769  0.00  0.00    +0.000 HD
BRANCH   2   4
ATOM      4  C   UNL     1       6.064   4.344  18.495  0.00  0.00    +0.000 A 
ATOM      5  N   UNL     1       6.572   4.924  19.608  0.00  0.00    +0.000 NA
ATOM      6  C   UNL     1       7.425   5.960  19.477  0.00  0.00    +0.000 A 
ATOM      7  N   UNL     1       7.858   6.533  18.346  0.00  0.00    +0.000 NA
ATOM      8  C   UNL     1       7.325   5.936  17.271  0.00  0.00    +0.000 A 
ATOM      9  O   UNL     1       7.583   6.304  15.983  0.00  0.00    +0.000 OA
ATOM     10  N   UNL     1       6.871   5.480  15.111  0.00  0.00    +0.000 NA
ATOM     11  C   UNL     1       6.205   4.636  15.896  0.00  0.00    +0.000 A 
ATOM     12  C   UNL     1       6.448   4.870  17.262  0.00  0.00    +0.000 A 
ENDBRANCH   2   4
ENDBRANCH   1   2
BRANCH   1  13
ATOM     13  C   UNL     1       3.265   1.964  17.929  0.00  0.00    +0.000 C 
BRANCH  13  14
ATOM     14  C   UNL     1       1.809   2.403  18.207  0.00  0.00    +0.000 C 
BRANCH  14  19
ATOM     15  C   UNL     1       2.170   7.504  19.582  0.00  0.00    +0.000 A 
ATOM     16  C   UNL     1       2.309   6.952  18.240  0.00  0.00    +0.000 A 
ATOM     17  C   UNL     1       2.187   5.620  18.055  0.00  0.00    +0.000 A 
ATOM     18  N   UNL     1       1.927   4.799  19.157  0.00  0.00    +0.000 N 
ATOM     19  C   UNL     1       1.749   3.429  19.301  0.00  0.00    +0.000 A 
ATOM     20  N   UNL     1       1.529   3.158  20.573  0.00  0.00    +0.000 NA
ATOM     21  N   UNL     1       1.555   4.326  21.288  0.00  0.00    +0.000 NA
ATOM     22  C   UNL     1       1.791   5.304  20.447  0.00  0.00    +0.000 A 
ATOM     23  C   UNL     1       1.920   6.707  20.638  0.00  0.00    +0.000 A 
ENDBRANCH  14  19
ENDBRANCH  13  14
ENDBRANCH   1  13
TORSDOF 5
ENDMDL
MODEL 5
REMARK VINA RESULT:      -7.1      4.544      7.919
REMARK  Name = 
REMARK  5 active torsions:
REMARK  status: ('A' for Active; 'I' for Inactive)
REMARK    1  A    between atoms: C_5  and  C_6
REMARK    2  A    between atoms: C_6  and  C_7
REMARK    3  A    between atoms: C_7  and  C_8
REMARK    4  A    between atoms: C_8  and  N_9
REMARK    5  A    between atoms: N_9  and  C_10
REMARK                            x       y       z     vdW  Elec       q    Type
REMARK                         _______ _______ _______ _____ _____    ______ ____
ROOT
ATOM      1  C   UNL     1       1.815   9.375  18.065  0.00  0.00    +0.000 C 
ENDROOT
BRANCH   1   2
ATOM      2  N   UNL     1       1.216   9.116  19.365  0.00  0.00    +0.000 N 
ATOM      3  H   UNL     1       1.809   8.576  19.987  0.00  0.00    +0.000 HD
BRANCH   2   4
ATOM      4  C   UNL     1       0.619  10.201  20.000  0.00  0.00    +0.000 A 
ATOM      5  N   UNL     1       0.245  11.295  19.297  0.00  0.00    +0.000 NA
ATOM      6  C   UNL     1      -0.375  12.307  19.938  0.00  0.00    +0.000 A 
ATOM      7  N   UNL     1      -0.684  12.392  21.238  0.00  0.00    +0.000 NA
ATOM      8  C   UNL     1      -0.289  11.294  21.898  0.00  0.00    +0.000 A 
ATOM      9  O   UNL     1      -0.469  11.098  23.236  0.00  0.00    +0.000 OA
ATOM     10  N   UNL     1       0.056   9.857  23.599  0.00  0.00    +0.000 NA
ATOM     11  C   UNL     1       0.535   9.338  22.472  0.00  0.00    +0.000 A 
ATOM     12  C   UNL     1       0.349  10.191  21.368  0.00  0.00    +0.000 A 
ENDBRANCH   2   4
ENDBRANCH   1   2
BRANCH   1  13
ATOM     13  C   UNL     1       2.666   8.168  17.666  0.00  0.00    +0.000 C 
BRANCH  13  14
ATOM     14  C   UNL     1       2.821   7.113  18.785  0.00  0.00    +0.000 C 
BRANCH  14  19
ATOM     15  C   UNL     1       1.484   1.990  18.831  0.00  0.00    +0.000 A 
ATOM     16  C   UNL     1       0.915   3.046  19.659  0.00  0.00    +0.000 A 
ATOM     17  C   UNL     1       1.367   4.311  19.524  0.00  0.00    +0.000 A 
ATOM     18  N   UNL     1       2.372   4.580  18.589  0.00  0.00    +0.000 N 
ATOM     19  C   UNL     1       3.035   5.741  18.215  0.00  0.00    +0.000 A 
ATOM     20  N   UNL     1       3.911   5.449  17.273  0.00  0.00    +0.000 NA
ATOM     21  N   UNL     1       3.846   4.107  17.006  0.00  0.00    +0.000 NA
ATOM     22  C   UNL     1       2.930   3.588  17.788  0.00  0.00    +0.000 A 
ATOM     23  C   UNL     1       2.451   2.257  17.933  0.00  0.00    +0.000 A 
ENDBRANCH  14  19
ENDBRANCH  13  14
ENDBRANCH   1  13
TORSDOF 5
ENDMDL
MODEL 6
REMARK VINA RESULT:      -7.0      2.462      5.712
REMARK  Name = 
REMARK  5 active torsions:
REMARK  status: ('A' for Active; 'I' for Inactive)
REMARK    1  A    between atoms: C_5  and  C_6
REMARK    2  A    between atoms: C_6  and  C_7
REMARK    3  A    between atoms: C_7  and  C_8
REMARK    4  A    between atoms: C_8  and  N_9
REMARK    5  A    between atoms: N_9  and  C_10
REMARK                            x       y       z     vdW  Elec       q    Type
REMARK                         _______ _______ _______ _____ _____    ______ ____
ROOT
ATOM      1  C   UNL     1       1.454   4.829  17.694  0.00  0.00    +0.000 C 
ENDROOT
BRANCH   1   2
ATOM      2  N   UNL     1       2.009   3.523  18.015  0.00  0.00    +0.000 N 
ATOM      3  H   UNL     1       2.880   3.320  17.537  0.00  0.00    +0.000 HD
BRANCH   2   4
ATOM      4  C   UNL     1       2.045   3.179  19.364  0.00  0.00    +0.000 A 
ATOM      5  N   UNL     1       0.960   3.356  20.153  0.00  0.00    +0.000 NA
ATOM      6  C   UNL     1       1.015   2.965  21.443  0.00  0.00    +0.000 A 
ATOM      7  N   UNL     1       2.046   2.406  22.090  0.00  0.00    +0.000 NA
ATOM      8  C   UNL     1       3.101   2.258  21.276  0.00  0.00    +0.000 A 
ATOM      9  O   UNL     1       4.294   1.716  21.658  0.00  0.00    +0.000 OA
ATOM     10  N   UNL     1       5.170   1.710  20.573  0.00  0.00    +0.000 NA
ATOM     11  C   UNL     1       4.483   2.244  19.566  0.00  0.00    +0.000 A 
ATOM     12  C   UNL     1       3.177   2.608  19.943  0.00  0.00    +0.000 A 
ENDBRANCH   2   4
ENDBRANCH   1   2
BRANCH   1  13
ATOM     13  C   UNL     1       2.016   5.857  18.677  0.00  0.00    +0.000 C 
BRANCH  13  14
ATOM     14  C   UNL     1       3.155   6.724  18.094  0.00  0.00    +0.000 C 
BRANCH  14  19
ATOM     15  C   UNL     1       7.338   4.585  15.651  0.00  0.00    +0.000 A 
ATOM     16  C   UNL     1       6.183   5.207  15.016  0.00  0.00    +0.000 A 
ATOM     17  C   UNL     1       5.194   5.710  15.785  0.00  0.00    +0.000 A 
ATOM     18  N   UNL     1       5.302   5.625  17.178  0.00  0.00    +0.000 N 
ATOM     19  C   UNL     1       4.483   6.035  18.221  0.00  0.00    +0.000 A 
ATOM     20  N   UNL     1       5.053   5.709  19.366  0.00  0.00    +0.000 NA
ATOM     21  N   UNL     1       6.245   5.085  19.107  0.00  0.00    +0.000 NA
ATOM     22  C   UNL     1       6.396   5.035  17.805  0.00  0.00    +0.000 A 
ATOM     23  C   UNL     1       7.435   4.506  16.992  0.00  0.00    +0.000 A 
ENDBRANCH  14  19
ENDBRANCH  13  14
ENDBRANCH   1  13
TORSDOF 5
ENDMDL
MODEL 7
REMARK VINA RESULT:      -7.0      5.472      8.264
REMARK  Name = 
REMARK  5 active torsions:
REMARK  status: ('A' for Active; 'I' for Inactive)
REMARK    1  A    between atoms: C_5  and  C_6
REMARK    2  A    between atoms: C_6  and  C_7
REMARK    3  A    between atoms: C_7  and  C_8
REMARK    4  A    between atoms: C_8  and  N_9
REMARK    5  A    between atoms: N_9  and  C_10
REMARK                            x       y       z     vdW  Elec       q    Type
REMARK                         _______ _______ _______ _____ _____    ______ ____
ROOT
ATOM      1  C   UNL     1       7.908   7.755  17.676  0.00  0.00    +0.000 C 
ENDROOT
BRANCH   1   2
ATOM      2  N   UNL     1       6.555   7.521  17.197  0.00  0.00    +0.000 N 
ATOM      3  H   UNL     1       6.182   8.282  16.640  0.00  0.00    +0.000 HD
BRANCH   2   4
ATOM      4  C   UNL     1       6.303   6.272  16.637  0.00  0.00    +0.000 A 
ATOM      5  N   UNL     1       7.203   5.688  15.812  0.00  0.00    +0.000 NA
ATOM      6  C   UNL     1       6.947   4.455  15.328  0.00  0.00    +0.000 A 
ATOM      7  N   UNL     1       5.871   3.690  15.551  0.00  0.00    +0.000 NA
ATOM      8  C   UNL     1       5.002   4.308  16.364  0.00  0.00    +0.000 A 
ATOM      9  O   UNL     1       3.815   3.771  16.767  0.00  0.00    +0.000 OA
ATOM     10  N   UNL     1       3.157   4.673  17.604  0.00  0.00    +0.000 NA
ATOM     11  C   UNL     1       3.966   5.727  17.686  0.00  0.00    +0.000 A 
ATOM     12  C   UNL     1       5.140   5.559  16.930  0.00  0.00    +0.000 A 
ENDBRANCH   2   4
ENDBRANCH   1   2
BRANCH   1  13
ATOM     13  C   UNL     1       8.122   9.261  17.831  0.00  0.00    +0.000 C 
BRANCH  13  14
ATOM     14  C   UNL     1       8.948   9.652  19.078  0.00  0.00    +0.000 C 
BRANCH  14  19
ATOM     15  C   UNL     1      10.287  14.311  21.207  0.00  0.00    +0.000 A 
ATOM     16  C   UNL     1       9.581  13.222  21.870  0.00  0.00    +0.000 A 
ATOM     17  C   UNL     1       9.315  12.090  21.185  0.00  0.00    +0.000 A 
ATOM     18  N   UNL     1       9.726  11.987  19.850  0.00  0.00    +0.000 N 
ATOM     19  C   UNL     1       9.611  10.986  18.895  0.00  0.00    +0.000 A 
ATOM     20  N   UNL     1      10.173  11.398  17.775  0.00  0.00    +0.000 NA
ATOM     21  N   UNL     1      10.665  12.662  17.963  0.00  0.00    +0.000 NA
ATOM     22  C   UNL     1      10.401  13.015  19.198  0.00  0.00    +0.000 A 
ATOM     23  C   UNL     1      10.679  14.205  19.924  0.00  0.00    +0.000 A 
ENDBRANCH  14  19
ENDBRANCH  13  14
ENDBRANCH   1  13
TORSDOF 5
ENDMDL
MODEL 8
REMARK VINA RESULT:      -7.0      5.553      8.419
REMARK  Name = 
REMARK  5 active torsions:
REMARK  status: ('A' for Active; 'I' for Inactive)
REMARK    1  A    between atoms: C_5  and  C_6
REMARK    2  A    between atoms: C_6  and  C_7
REMARK    3  A    between atoms: C_7  and  C_8
REMARK    4  A    between atoms: C_8  and  N_9
REMARK    5  A    between atoms: N_9  and  C_10
REMARK                            x       y       z     vdW  Elec       q    Type
REMARK                         _______ _______ _______ _____ _____    ______ ____
ROOT
ATOM      1  C   UNL     1       7.403   8.125  17.579  0.00  0.00    +0.000 C 
ENDROOT
BRANCH   1   2
ATOM      2  N   UNL     1       7.541   6.706  17.873  0.00  0.00    +0.000 N 
ATOM      3  H   UNL     1       7.341   6.469  18.839  0.00  0.00    +0.000 HD
BRANCH   2   4
ATOM      4  C   UNL     1       6.949   5.826  16.971  0.00  0.00    +0.000 A 
ATOM      5  N   UNL     1       7.472   5.644  15.736  0.00  0.00    +0.000 NA
ATOM      6  C   UNL     1       6.901   4.746  14.907  0.00  0.00    +0.000 A 
ATOM      7  N   UNL     1       5.831   3.975  15.140  0.00  0.00    +0.000 NA
ATOM      8  C   UNL     1       5.339   4.194  16.368  0.00  0.00    +0.000 A 
ATOM      9  O   UNL     1       4.250   3.552  16.883  0.00  0.00    +0.000 OA
ATOM     10  N   UNL     1       4.009   4.012  18.178  0.00  0.00    +0.000 NA
ATOM     11  C   UNL     1       4.959   4.915  18.410  0.00  0.00    +0.000 A 
ATOM     12  C   UNL     1       5.825   5.074  17.313  0.00  0.00    +0.000 A 
ENDBRANCH   2   4
ENDBRANCH   1   2
BRANCH   1  13
ATOM     13  C   UNL     1       8.501   8.889  18.321  0.00  0.00    +0.000 C 
BRANCH  13  14
ATOM     14  C   UNL     1       8.585  10.386  17.946  0.00  0.00    +0.000 C 
BRANCH  14  19
ATOM     15  C   UNL     1      12.333  14.070  18.592  0.00  0.00    +0.000 A 
ATOM     16  C   UNL     1      11.714  13.668  17.335  0.00  0.00    +0.000 A 
ATOM     17  C   UNL     1      10.765  12.709  17.339  0.00  0.00    +0.000 A 
ATOM     18  N   UNL     1      10.395  12.121  18.554  0.00  0.00    +0.000 N 
ATOM     19  C   UNL     1       9.478  11.135  18.892  0.00  0.00    +0.000 A 
ATOM     20  N   UNL     1       9.519  10.942  20.197  0.00  0.00    +0.000 NA
ATOM     21  N   UNL     1      10.450  11.785  20.742  0.00  0.00    +0.000 NA
ATOM     22  C   UNL     1      10.973  12.488  19.766  0.00  0.00    +0.000 A 
ATOM     23  C   UNL     1      11.972  13.500  19.756  0.00  0.00    +0.000 A 
ENDBRANCH  14  19
ENDBRANCH  13  14
ENDBRANCH   1  13
TORSDOF 5
ENDMDL
MODEL 9
REMARK VINA RESULT:      -7.0      2.213      5.387
REMARK  Name = 
REMARK  5 active torsions:
REMARK  status: ('A' for Active; 'I' for Inactive)
REMARK    1  A    between atoms: C_5  and  C_6
REMARK    2  A    between atoms: C_6  and  C_7
REMARK    3  A    between atoms: C_7  and  C_8
REMARK    4  A    between atoms: C_8  and  N_9
REMARK    5  A    between atoms: N_9  and  C_10
REMARK                            x       y       z     vdW  Elec       q    Type
REMARK                         _______ _______ _______ _____ _____    ______ ____
ROOT
ATOM      1  C   UNL     1       0.966   5.161  20.279  0.00  0.00    +0.000 C 
ENDROOT
BRANCH   1   2
ATOM      2  N   UNL     1       0.912   3.708  20.326  0.00  0.00    +0.000 N 
ATOM      3  H   UNL     1      -0.029   3.333  20.269  0.00  0.00    +0.000 HD
BRANCH   2   4
ATOM      4  C   UNL     1       1.812   3.028  19.510  0.00  0.00    +0.000 A 
ATOM      5  N   UNL     1       1.583   2.901  18.182  0.00  0.00    +0.000 NA
ATOM      6  C   UNL     1       2.502   2.279  17.415  0.00  0.00    +0.000 A 
ATOM      7  N   UNL     1       3.664   1.735  17.799  0.00  0.00    +0.000 NA
ATOM      8  C   UNL     1       3.846   1.875  19.120  0.00  0.00    +0.000 A 
ATOM      9  O   UNL     1       4.941   1.419  19.795  0.00  0.00    +0.000 OA
ATOM     10  N   UNL     1       4.814   1.728  21.149  0.00  0.00    +0.000 NA
ATOM     11  C   UNL     1       3.650   2.365  21.254  0.00  0.00    +0.000 A 
ATOM     12  C   UNL     1       2.995   2.489  20.016  0.00  0.00    +0.000 A 
ENDBRANCH   2   4
ENDBRANCH   1   2
BRANCH   1  13
ATOM     13  C   UNL     1       2.426   5.603  20.389  0.00  0.00    +0.000 C 
BRANCH  13  14
ATOM     14  C   UNL     1       3.033   6.098  19.056  0.00  0.00    +0.000 C 
BRANCH  14  19
ATOM     15  C   UNL     1       6.876   4.729  15.681  0.00  0.00    +0.000 A 
ATOM     16  C   UNL     1       5.560   5.252  15.337  0.00  0.00    +0.000 A 
ATOM     17  C   UNL     1       4.688   5.557  16.321  0.00  0.00    +0.000 A 
ATOM     18  N   UNL     1       5.070   5.364  17.654  0.00  0.00    +0.000 N 
ATOM     19  C   UNL     1       4.427   5.575  18.866  0.00  0.00    +0.000 A 
ATOM     20  N   UNL     1       5.238   5.225  19.847  0.00  0.00    +0.000 NA
ATOM     21  N   UNL     1       6.419   4.783  19.311  0.00  0.00    +0.000 NA
ATOM     22  C   UNL     1       6.321   4.866  18.006  0.00  0.00    +0.000 A 
ATOM     23  C   UNL     1       7.236   4.547  16.966  0.00  0.00    +0.000 A 
ENDBRANCH  14  19
ENDBRANCH  13  14
ENDBRANCH   1  13
TORSDOF 5
ENDMDL
