MODEL 1
REMARK VINA RESULT:      -8.9      0.000      0.000
REMARK  Name = 
REMARK  1 active torsions:
REMARK  status: ('A' for Active; 'I' for Inactive)
REMARK    1  A    between atoms: C_12  and  C_13
REMARK                            x       y       z     vdW  Elec       q    Type
REMARK                         _______ _______ _______ _____ _____    ______ ____
ROOT
ATOM      1  O   UNL     1       5.768   4.805  16.065  0.00  0.00    +0.000 OA
ATOM      2  C   UNL     1       5.146   4.586  17.085  0.00  0.00    +0.000 C 
ATOM      3  N   UNL     1       5.312   3.563  17.979  0.00  0.00    +0.000 N 
ATOM      4  C   UNL     1       4.379   3.609  18.994  0.00  0.00    +0.000 C 
ATOM      5  S   UNL     1       4.241   2.398  20.121  0.00  0.00    +0.000 S 
ATOM      6  N   UNL     1       3.673   4.821  18.856  0.00  0.00    +0.000 N 
ATOM      7  C   UNL     1       4.084   5.432  17.694  0.00  0.00    +0.000 A 
ATOM      8  C   UNL     1       3.674   6.626  17.266  0.00  0.00    +0.000 A 
ATOM      9  C   UNL     1       2.781   7.377  18.152  0.00  0.00    +0.000 A 
ATOM     10  C   UNL     1       2.346   8.666  17.830  0.00  0.00    +0.000 A 
ATOM     11  C   UNL     1       1.580   9.388  18.758  0.00  0.00    +0.000 A 
ATOM     12  C   UNL     1       1.268   8.877  20.030  0.00  0.00    +0.000 A 
ATOM     13  C   UNL     1       1.696   7.592  20.326  0.00  0.00    +0.000 A 
ATOM     14  C   UNL     1       2.423   6.837  19.393  0.00  0.00    +0.000 A 
ATOM     15  C   UNL     1       2.837   5.458  19.778  0.00  0.00    +0.000 A 
ATOM     16  O   UNL     1       2.466   4.994  20.836  0.00  0.00    +0.000 OA
ATOM     17  H   UNL     1       6.107   2.941  17.972  0.00  0.00    +0.000 HD
ENDROOT
BRANCH  12  18
ATOM     18  C   UNL     1       0.529   9.668  21.048  0.00  0.00    +0.000 A 
ATOM     19  C   UNL     1       0.067   9.064  22.238  0.00  0.00    +0.000 A 
ATOM     20  C   UNL     1      -0.526   9.841  23.212  0.00  0.00    +0.000 A 
ATOM     21  N   UNL     1      -0.726  11.165  23.094  0.00  0.00    +0.000 NA
ATOM     22  C   UNL     1      -0.300  11.742  21.948  0.00  0.00    +0.000 A 
ATOM     23  C   UNL     1       0.327  11.051  20.924  0.00  0.00    +0.000 A 
ENDBRANCH  12  18
TORSDOF 1
ENDMDL
MODEL 2
REMARK VINA RESULT:      -8.7      0.186      1.017
REMARK  Name = 
REMARK  1 active torsions:
REMARK  status: ('A' for Active; 'I' for Inactive)
REMARK    1  A    between atoms: C_12  and  C_13
REMARK                            x       y       z     vdW  Elec       q    Type
REMARK                         _______ _______ _______ _____ _____    ______ ____
ROOT
ATOM      1  O   UNL     1       5.550   4.911  16.013  0.00  0.00    +0.000 OA
ATOM      2  C   UNL     1       4.960   4.687  17.051  0.00  0.00    +0.000 C 
ATOM      3  N   UNL     1       5.145   3.655  17.929  0.00  0.00    +0.000 N 
ATOM      4  C   UNL     1       4.247   3.699  18.974  0.00  0.00    +0.000 C 
ATOM      5  S   UNL     1       4.134   2.478  20.094  0.00  0.00    +0.000 S 
ATOM      6  N   UNL     1       3.547   4.918  18.871  0.00  0.00    +0.000 N 
ATOM      7  C   UNL     1       3.926   5.537  17.702  0.00  0.00    +0.000 A 
ATOM      8  C   UNL     1       3.513   6.739  17.299  0.00  0.00    +0.000 A 
ATOM      9  C   UNL     1       2.656   7.489  18.221  0.00  0.00    +0.000 A 
ATOM     10  C   UNL     1       2.222   8.784  17.926  0.00  0.00    +0.000 A 
ATOM     11  C   UNL     1       1.493   9.504  18.885  0.00  0.00    +0.000 A 
ATOM     12  C   UNL     1       1.218   8.983  20.161  0.00  0.00    +0.000 A 
ATOM     13  C   UNL     1       1.644   7.692  20.431  0.00  0.00    +0.000 A 
ATOM     14  C   UNL     1       2.334   6.940  19.468  0.00  0.00    +0.000 A 
ATOM     15  C   UNL     1       2.747   5.553  19.825  0.00  0.00    +0.000 A 
ATOM     16  O   UNL     1       2.407   5.083  20.891  0.00  0.00    +0.000 OA
ATOM     17  H   UNL     1       5.934   3.026  17.891  0.00  0.00    +0.000 HD
ENDROOT
BRANCH  12  18
ATOM     18  C   UNL     1       0.520   9.771  21.210  0.00  0.00    +0.000 A 
ATOM     19  C   UNL     1       0.279  11.152  21.038  0.00  0.00    +0.000 A 
ATOM     20  C   UNL     1      -0.460  11.838  21.980  0.00  0.00    +0.000 A 
ATOM     21  N   UNL     1      -0.957  11.276  23.096  0.00  0.00    +0.000 NA
ATOM     22  C   UNL     1      -0.711   9.959  23.271  0.00  0.00    +0.000 A 
ATOM     23  C   UNL     1      -0.001   9.180  22.372  0.00  0.00    +0.000 A 
ENDBRANCH  12  18
TORSDOF 1
ENDMDL
MODEL 3
REMARK VINA RESULT:      -8.2      3.342      7.677
REMARK  Name = 
REMARK  1 active torsions:
REMARK  status: ('A' for Active; 'I' for Inactive)
REMARK    1  A    between atoms: C_12  and  C_13
REMARK                            x       y       z     vdW  Elec       q    Type
REMARK                         _______ _______ _______ _____ _____    ______ ____
ROOT
ATOM      1  O   UNL     1       0.211   9.934  23.116  0.00  0.00    +0.000 OA
ATOM      2  C   UNL     1       0.440  10.134  21.939  0.00  0.00    +0.000 C 
ATOM      3  N   UNL     1       0.377  11.313  21.249  0.00  0.00    +0.000 N 
ATOM      4  C   UNL     1       0.652  11.142  19.909  0.00  0.00    +0.000 C 
ATOM      5  S   UNL     1       0.482  12.373  18.809  0.00  0.00    +0.000 S 
ATOM      6  N   UNL     1       1.087   9.812  19.740  0.00  0.00    +0.000 N 
ATOM      7  C   UNL     1       0.946   9.154  20.939  0.00  0.00    +0.000 A 
ATOM      8  C   UNL     1       1.312   7.894  21.174  0.00  0.00    +0.000 A 
ATOM      9  C   UNL     1       1.995   7.189  20.086  0.00  0.00    +0.000 A 
ATOM     10  C   UNL     1       2.479   5.888  20.248  0.00  0.00    +0.000 A 
ATOM     11  C   UNL     1       3.222   5.294  19.216  0.00  0.00    +0.000 A 
ATOM     12  C   UNL     1       3.538   5.980  18.031  0.00  0.00    +0.000 A 
ATOM     13  C   UNL     1       3.038   7.264  17.882  0.00  0.00    +0.000 A 
ATOM     14  C   UNL     1       2.254   7.858  18.883  0.00  0.00    +0.000 A 
ATOM     15  C   UNL     1       1.740   9.236  18.646  0.00  0.00    +0.000 A 
ATOM     16  O   UNL     1       1.932   9.771  17.574  0.00  0.00    +0.000 OA
ATOM     17  H   UNL     1       0.284  12.214  21.695  0.00  0.00    +0.000 HD
ENDROOT
BRANCH  12  18
ATOM     18  C   UNL     1       4.394   5.387  16.970  0.00  0.00    +0.000 A 
ATOM     19  C   UNL     1       5.043   6.208  16.021  0.00  0.00    +0.000 A 
ATOM     20  C   UNL     1       5.912   5.642  15.111  0.00  0.00    +0.000 A 
ATOM     21  N   UNL     1       6.171   4.325  15.042  0.00  0.00    +0.000 NA
ATOM     22  C   UNL     1       5.536   3.536  15.938  0.00  0.00    +0.000 A 
ATOM     23  C   UNL     1       4.666   4.012  16.904  0.00  0.00    +0.000 A 
ENDBRANCH  12  18
TORSDOF 1
ENDMDL
MODEL 4
REMARK VINA RESULT:      -8.1      3.524      7.113
REMARK  Name = 
REMARK  1 active torsions:
REMARK  status: ('A' for Active; 'I' for Inactive)
REMARK    1  A    between atoms: C_12  and  C_13
REMARK                            x       y       z     vdW  Elec       q    Type
REMARK                         _______ _______ _______ _____ _____    ______ ____
ROOT
ATOM      1  O   UNL     1      -0.830  12.806  18.153  0.00  0.00    +0.000 OA
ATOM      2  C   UNL     1      -0.665  12.168  19.174  0.00  0.00    +0.000 C 
ATOM      3  N   UNL     1      -1.305  12.305  20.375  0.00  0.00    +0.000 N 
ATOM      4  C   UNL     1      -0.812  11.436  21.325  0.00  0.00    +0.000 C 
ATOM      5  S   UNL     1      -1.288  11.501  22.914  0.00  0.00    +0.000 S 
ATOM      6  N   UNL     1       0.080  10.565  20.668  0.00  0.00    +0.000 N 
ATOM      7  C   UNL     1       0.223  10.989  19.368  0.00  0.00    +0.000 A 
ATOM      8  C   UNL     1       0.945  10.374  18.432  0.00  0.00    +0.000 A 
ATOM      9  C   UNL     1       1.562   9.099  18.803  0.00  0.00    +0.000 A 
ATOM     10  C   UNL     1       2.285   8.339  17.879  0.00  0.00    +0.000 A 
ATOM     11  C   UNL     1       2.766   7.074  18.249  0.00  0.00    +0.000 A 
ATOM     12  C   UNL     1       2.508   6.516  19.514  0.00  0.00    +0.000 A 
ATOM     13  C   UNL     1       1.802   7.290  20.422  0.00  0.00    +0.000 A 
ATOM     14  C   UNL     1       1.354   8.576  20.085  0.00  0.00    +0.000 A 
ATOM     15  C   UNL     1       0.614   9.353  21.119  0.00  0.00    +0.000 A 
ATOM     16  O   UNL     1       0.495   8.900  22.239  0.00  0.00    +0.000 OA
ATOM     17  H   UNL     1      -2.133  12.870  20.504  0.00  0.00    +0.000 HD
ENDROOT
BRANCH  12  18
ATOM     18  C   UNL     1       2.942   5.144  19.884  0.00  0.00    +0.000 A 
ATOM     19  C   UNL     1       2.192   4.370  20.797  0.00  0.00    +0.000 A 
ATOM     20  C   UNL     1       2.560   3.063  21.045  0.00  0.00    +0.000 A 
ATOM     21  N   UNL     1       3.627   2.466  20.486  0.00  0.00    +0.000 NA
ATOM     22  C   UNL     1       4.356   3.212  19.626  0.00  0.00    +0.000 A 
ATOM     23  C   UNL     1       4.054   4.522  19.295  0.00  0.00    +0.000 A 
ENDBRANCH  12  18
TORSDOF 1
ENDMDL
MODEL 5
REMARK VINA RESULT:      -8.1      3.442      7.662
REMARK  Name = 
REMARK  1 active torsions:
REMARK  status: ('A' for Active; 'I' for Inactive)
REMARK    1  A    between atoms: C_12  and  C_13
REMARK                            x       y       z     vdW  Elec       q    Type
REMARK                         _______ _______ _______ _____ _____    ______ ____
ROOT
ATOM      1  O   UNL     1      -0.213  10.733  23.066  0.00  0.00    +0.000 OA
ATOM      2  C   UNL     1       0.079  10.867  21.894  0.00  0.00    +0.000 C 
ATOM      3  N   UNL     1       0.088  12.013  21.146  0.00  0.00    +0.000 N 
ATOM      4  C   UNL     1       0.422  11.767  19.831  0.00  0.00    +0.000 C 
ATOM      5  S   UNL     1       0.345  12.947  18.666  0.00  0.00    +0.000 S 
ATOM      6  N   UNL     1       0.819  10.418  19.747  0.00  0.00    +0.000 N 
ATOM      7  C   UNL     1       0.600   9.824  20.968  0.00  0.00    +0.000 A 
ATOM      8  C   UNL     1       0.912   8.567  21.281  0.00  0.00    +0.000 A 
ATOM      9  C   UNL     1       1.623   7.789  20.263  0.00  0.00    +0.000 A 
ATOM     10  C   UNL     1       2.055   6.483  20.511  0.00  0.00    +0.000 A 
ATOM     11  C   UNL     1       2.826   5.815  19.547  0.00  0.00    +0.000 A 
ATOM     12  C   UNL     1       3.222   6.432  18.347  0.00  0.00    +0.000 A 
ATOM     13  C   UNL     1       2.772   7.722  18.113  0.00  0.00    +0.000 A 
ATOM     14  C   UNL     1       1.961   8.389  19.044  0.00  0.00    +0.000 A 
ATOM     15  C   UNL     1       1.505   9.769  18.716  0.00  0.00    +0.000 A 
ATOM     16  O   UNL     1       1.766  10.243  17.630  0.00  0.00    +0.000 OA
ATOM     17  H   UNL     1       0.004  12.937  21.543  0.00  0.00    +0.000 HD
ENDROOT
BRANCH  12  18
ATOM     18  C   UNL     1       4.107   5.762  17.360  0.00  0.00    +0.000 A 
ATOM     19  C   UNL     1       4.189   4.353  17.301  0.00  0.00    +0.000 A 
ATOM     20  C   UNL     1       4.939   3.754  16.310  0.00  0.00    +0.000 A 
ATOM     21  N   UNL     1       5.640   4.435  15.387  0.00  0.00    +0.000 NA
ATOM     22  C   UNL     1       5.578   5.784  15.454  0.00  0.00    +0.000 A 
ATOM     23  C   UNL     1       4.835   6.476  16.395  0.00  0.00    +0.000 A 
ENDBRANCH  12  18
TORSDOF 1
ENDMDL
MODEL 6
REMARK VINA RESULT:      -8.0      3.567      7.169
REMARK  Name = 
REMARK  1 active torsions:
REMARK  status: ('A' for Active; 'I' for Inactive)
REMARK    1  A    between atoms: C_12  and  C_13
REMARK                            x       y       z     vdW  Elec       q    Type
REMARK                         _______ _______ _______ _____ _____    ______ ____
ROOT
ATOM      1  O   UNL     1      -0.722  12.999  18.263  0.00  0.00    +0.000 OA
ATOM      2  C   UNL     1      -0.618  12.325  19.269  0.00  0.00    +0.000 C 
ATOM      3  N   UNL     1      -1.295  12.450  20.450  0.00  0.00    +0.000 N 
ATOM      4  C   UNL     1      -0.868  11.535  21.389  0.00  0.00    +0.000 C 
ATOM      5  S   UNL     1      -1.398  11.570  22.962  0.00  0.00    +0.000 S 
ATOM      6  N   UNL     1       0.016  10.652  20.737  0.00  0.00    +0.000 N 
ATOM      7  C   UNL     1       0.221  11.110  19.457  0.00  0.00    +0.000 A 
ATOM      8  C   UNL     1       0.955  10.497  18.528  0.00  0.00    +0.000 A 
ATOM      9  C   UNL     1       1.512   9.189  18.881  0.00  0.00    +0.000 A 
ATOM     10  C   UNL     1       2.240   8.431  17.959  0.00  0.00    +0.000 A 
ATOM     11  C   UNL     1       2.662   7.139  18.306  0.00  0.00    +0.000 A 
ATOM     12  C   UNL     1       2.339   6.554  19.543  0.00  0.00    +0.000 A 
ATOM     13  C   UNL     1       1.629   7.325  20.449  0.00  0.00    +0.000 A 
ATOM     14  C   UNL     1       1.239   8.636  20.138  0.00  0.00    +0.000 A 
ATOM     15  C   UNL     1       0.490   9.409  21.169  0.00  0.00    +0.000 A 
ATOM     16  O   UNL     1       0.315   8.927  22.269  0.00  0.00    +0.000 OA
ATOM     17  H   UNL     1      -2.106  13.040  20.568  0.00  0.00    +0.000 HD
ENDROOT
BRANCH  12  18
ATOM     18  C   UNL     1       2.710   5.156  19.885  0.00  0.00    +0.000 A 
ATOM     19  C   UNL     1       3.797   4.519  19.246  0.00  0.00    +0.000 A 
ATOM     20  C   UNL     1       4.185   3.259  19.654  0.00  0.00    +0.000 A 
ATOM     21  N   UNL     1       3.567   2.563  20.623  0.00  0.00    +0.000 NA
ATOM     22  C   UNL     1       2.514   3.163  21.223  0.00  0.00    +0.000 A 
ATOM     23  C   UNL     1       2.066   4.434  20.901  0.00  0.00    +0.000 A 
ENDBRANCH  12  18
TORSDOF 1
ENDMDL
MODEL 7
REMARK VINA RESULT:      -7.9      2.242      3.233
REMARK  Name = 
REMARK  1 active torsions:
REMARK  status: ('A' for Active; 'I' for Inactive)
REMARK    1  A    between atoms: C_12  and  C_13
REMARK                            x       y       z     vdW  Elec       q    Type
REMARK                         _______ _______ _______ _____ _____    ______ ____
ROOT
ATOM      1  O   UNL     1       3.720   2.374  19.976  0.00  0.00    +0.000 OA
ATOM      2  C   UNL     1       3.959   3.247  19.166  0.00  0.00    +0.000 C 
ATOM      3  N   UNL     1       4.572   3.132  17.948  0.00  0.00    +0.000 N 
ATOM      4  C   UNL     1       4.720   4.355  17.328  0.00  0.00    +0.000 C 
ATOM      5  S   UNL     1       5.580   4.533  15.920  0.00  0.00    +0.000 S 
ATOM      6  N   UNL     1       4.014   5.301  18.099  0.00  0.00    +0.000 N 
ATOM      7  C   UNL     1       3.561   4.679  19.239  0.00  0.00    +0.000 A 
ATOM      8  C   UNL     1       2.803   5.248  20.177  0.00  0.00    +0.000 A 
ATOM      9  C   UNL     1       2.351   6.618  19.922  0.00  0.00    +0.000 A 
ATOM     10  C   UNL     1       1.499   7.284  20.808  0.00  0.00    +0.000 A 
ATOM     11  C   UNL     1       1.005   8.553  20.470  0.00  0.00    +0.000 A 
ATOM     12  C   UNL     1       1.303   9.169  19.242  0.00  0.00    +0.000 A 
ATOM     13  C   UNL     1       2.161   8.500  18.382  0.00  0.00    +0.000 A 
ATOM     14  C   UNL     1       2.701   7.251  18.723  0.00  0.00    +0.000 A 
ATOM     15  C   UNL     1       3.627   6.599  17.754  0.00  0.00    +0.000 A 
ATOM     16  O   UNL     1       3.958   7.194  16.749  0.00  0.00    +0.000 OA
ATOM     17  H   UNL     1       4.759   2.247  17.500  0.00  0.00    +0.000 HD
ENDROOT
BRANCH  12  18
ATOM     18  C   UNL     1       0.718  10.475  18.842  0.00  0.00    +0.000 A 
ATOM     19  C   UNL     1      -0.652  10.583  18.514  0.00  0.00    +0.000 A 
ATOM     20  C   UNL     1      -1.192  11.825  18.245  0.00  0.00    +0.000 A 
ATOM     21  N   UNL     1      -0.482  12.966  18.245  0.00  0.00    +0.000 NA
ATOM     22  C   UNL     1       0.833  12.861  18.541  0.00  0.00    +0.000 A 
ATOM     23  C   UNL     1       1.461  11.665  18.848  0.00  0.00    +0.000 A 
ENDBRANCH  12  18
TORSDOF 1
ENDMDL
MODEL 8
REMARK VINA RESULT:      -7.8      3.258      7.792
REMARK  Name = 
REMARK  1 active torsions:
REMARK  status: ('A' for Active; 'I' for Inactive)
REMARK    1  A    between atoms: C_12  and  C_13
REMARK                            x       y       z     vdW  Elec       q    Type
REMARK                         _______ _______ _______ _____ _____    ______ ____
ROOT
ATOM      1  O   UNL     1       1.354   7.208  20.965  0.00  0.00    +0.000 OA
ATOM      2  C   UNL     1       1.748   6.121  20.592  0.00  0.00    +0.000 C 
ATOM      3  N   UNL     1       1.320   4.882  20.982  0.00  0.00    +0.000 N 
ATOM      4  C   UNL     1       2.044   3.874  20.381  0.00  0.00    +0.000 C 
ATOM      5  S   UNL     1       1.851   2.279  20.800  0.00  0.00    +0.000 S 
ATOM      6  N   UNL     1       2.876   4.476  19.417  0.00  0.00    +0.000 N 
ATOM      7  C   UNL     1       2.752   5.842  19.529  0.00  0.00    +0.000 A 
ATOM      8  C   UNL     1       3.348   6.736  18.741  0.00  0.00    +0.000 A 
ATOM      9  C   UNL     1       4.125   6.213  17.615  0.00  0.00    +0.000 A 
ATOM     10  C   UNL     1       4.734   7.065  16.689  0.00  0.00    +0.000 A 
ATOM     11  C   UNL     1       5.377   6.519  15.567  0.00  0.00    +0.000 A 
ATOM     12  C   UNL     1       5.393   5.137  15.313  0.00  0.00    +0.000 A 
ATOM     13  C   UNL     1       4.796   4.307  16.249  0.00  0.00    +0.000 A 
ATOM     14  C   UNL     1       4.189   4.831  17.401  0.00  0.00    +0.000 A 
ATOM     15  C   UNL     1       3.580   3.876  18.369  0.00  0.00    +0.000 A 
ATOM     16  O   UNL     1       3.699   2.682  18.187  0.00  0.00    +0.000 OA
ATOM     17  H   UNL     1       0.484   4.728  21.527  0.00  0.00    +0.000 HD
ENDROOT
BRANCH  12  18
ATOM     18  C   UNL     1       5.998   4.558  14.085  0.00  0.00    +0.000 A 
ATOM     19  C   UNL     1       5.320   3.568  13.341  0.00  0.00    +0.000 A 
ATOM     20  C   UNL     1       5.857   3.122  12.151  0.00  0.00    +0.000 A 
ATOM     21  N   UNL     1       7.026   3.554  11.648  0.00  0.00    +0.000 NA
ATOM     22  C   UNL     1       7.686   4.488  12.369  0.00  0.00    +0.000 A 
ATOM     23  C   UNL     1       7.218   5.015  13.561  0.00  0.00    +0.000 A 
ENDBRANCH  12  18
TORSDOF 1
ENDMDL
MODEL 9
REMARK VINA RESULT:      -7.8      1.007      1.134
REMARK  Name = 
REMARK  1 active torsions:
REMARK  status: ('A' for Active; 'I' for Inactive)
REMARK    1  A    between atoms: C_12  and  C_13
REMARK                            x       y       z     vdW  Elec       q    Type
REMARK                         _______ _______ _______ _____ _____    ______ ____
ROOT
ATOM      1  O   UNL     1       6.308   4.325  17.164  0.00  0.00    +0.000 OA
ATOM      2  C   UNL     1       5.418   4.256  17.988  0.00  0.00    +0.000 C 
ATOM      3  N   UNL     1       5.250   3.332  18.983  0.00  0.00    +0.000 N 
ATOM      4  C   UNL     1       4.085   3.543  19.691  0.00  0.00    +0.000 C 
ATOM      5  S   UNL     1       3.548   2.474  20.843  0.00  0.00    +0.000 S 
ATOM      6  N   UNL     1       3.546   4.768  19.251  0.00  0.00    +0.000 N 
ATOM      7  C   UNL     1       4.305   5.222  18.198  0.00  0.00    +0.000 A 
ATOM      8  C   UNL     1       4.127   6.381  17.564  0.00  0.00    +0.000 A 
ATOM      9  C   UNL     1       3.093   7.274  18.094  0.00  0.00    +0.000 A 
ATOM     10  C   UNL     1       2.870   8.541  17.547  0.00  0.00    +0.000 A 
ATOM     11  C   UNL     1       1.945   9.403  18.155  0.00  0.00    +0.000 A 
ATOM     12  C   UNL     1       1.259   9.055  19.332  0.00  0.00    +0.000 A 
ATOM     13  C   UNL     1       1.483   7.790  19.852  0.00  0.00    +0.000 A 
ATOM     14  C   UNL     1       2.370   6.897  19.232  0.00  0.00    +0.000 A 
ATOM     15  C   UNL     1       2.548   5.549  19.842  0.00  0.00    +0.000 A 
ATOM     16  O   UNL     1       1.868   5.228  20.794  0.00  0.00    +0.000 OA
ATOM     17  H   UNL     1       5.963   2.671  19.255  0.00  0.00    +0.000 HD
ENDROOT
BRANCH  12  18
ATOM     18  C   UNL     1       0.341   9.994  20.028  0.00  0.00    +0.000 A 
ATOM     19  C   UNL     1       0.524  10.306  21.393  0.00  0.00    +0.000 A 
ATOM     20  C   UNL     1      -0.278  11.258  21.988  0.00  0.00    +0.000 A 
ATOM     21  N   UNL     1      -1.268  11.907  21.351  0.00  0.00    +0.000 NA
ATOM     22  C   UNL     1      -1.456  11.596  20.050  0.00  0.00    +0.000 A 
ATOM     23  C   UNL     1      -0.688  10.674  19.358  0.00  0.00    +0.000 A 
ENDBRANCH  12  18
TORSDOF 1
ENDMDL
