MODEL 1
REMARK VINA RESULT:      -7.0      0.000      0.000
REMARK  Name = 
REMARK  8 active torsions:
REMARK  status: ('A' for Active; 'I' for Inactive)
REMARK    1  A    between atoms: C_1  and  C_2
REMARK    2  A    between atoms: N_5  and  C_6
REMARK    3  A    between atoms: C_14  and  O_15
REMARK    4  A    between atoms: C_16  and  C_17
REMARK    5  A    between atoms: C_17  and  C_18
REMARK    6  A    between atoms: C_18  and  C_19
REMARK    7  A    between atoms: C_19  and  C_20
REMARK    8  A    between atoms: C_19  and  C_21
REMARK                            x       y       z     vdW  Elec       q    Type
REMARK                         _______ _______ _______ _____ _____    ______ ____
ROOT
ATOM      1  C   UNL     1       4.263   6.492  16.901  0.00  0.00    +0.000 C 
ATOM      2  C   UNL     1       3.346   7.106  17.915  0.00  0.00    +0.000 A 
ATOM      3  N   UNL     1       2.753   8.250  17.490  0.00  0.00    +0.000 NA
ATOM      4  C   UNL     1       1.853   8.831  18.288  0.00  0.00    +0.000 A 
ATOM      5  N   UNL     1       1.217   9.975  17.813  0.00  0.00    +0.000 N 
ATOM      6  N   UNL     1       1.537   8.367  19.499  0.00  0.00    +0.000 NA
ATOM      7  C   UNL     1       2.153   7.254  19.885  0.00  0.00    +0.000 A 
ATOM      8  C   UNL     1       3.085   6.548  19.161  0.00  0.00    +0.000 A 
ATOM      9  H   UNL     1       1.577  10.253  16.911  0.00  0.00    +0.000 HD
ENDROOT
BRANCH   5  10
ATOM     10  C   UNL     1      -0.030  10.476  18.196  0.00  0.00    +0.000 A 
ATOM     11  C   UNL     1      -1.195   9.947  17.622  0.00  0.00    +0.000 A 
ATOM     12  C   UNL     1      -2.438  10.527  17.890  0.00  0.00    +0.000 A 
ATOM     13  C   UNL     1      -2.523  11.621  18.745  0.00  0.00    +0.000 A 
ATOM     14  F   UNL     1      -3.713  12.190  18.975  0.00  0.00    +0.000 F 
ATOM     15  C   UNL     1      -1.390  12.139  19.351  0.00  0.00    +0.000 A 
ATOM     16  C   UNL     1      -0.156  11.567  19.076  0.00  0.00    +0.000 A 
ENDBRANCH   5  10
BRANCH   7  17
ATOM     17  O   UNL     1       1.724   6.839  21.105  0.00  0.00    +0.000 OA
ATOM     18  H   UNL     1       2.355   6.115  21.267  0.00  0.00    +0.000 HD
ENDBRANCH   7  17
BRANCH   8  19
ATOM     19  C   UNL     1       3.650   5.270  19.705  0.00  0.00    +0.000 C 
BRANCH  19  20
ATOM     20  C   UNL     1       3.029   3.961  19.207  0.00  0.00    +0.000 C 
BRANCH  20  21
ATOM     21  C   UNL     1       1.565   3.690  19.603  0.00  0.00    +0.000 C 
ATOM     22  C   UNL     1       0.910   2.580  18.777  0.00  0.00    +0.000 C 
ATOM     23  C   UNL     1       1.528   3.308  21.088  0.00  0.00    +0.000 C 
ENDBRANCH  20  21
ENDBRANCH  19  20
ENDBRANCH   8  19
TORSDOF 5
ENDMDL
MODEL 2
REMARK VINA RESULT:      -7.0      6.084      7.878
REMARK  Name = 
REMARK  8 active torsions:
REMARK  status: ('A' for Active; 'I' for Inactive)
REMARK    1  A    between atoms: C_1  and  C_2
REMARK    2  A    between atoms: N_5  and  C_6
REMARK    3  A    between atoms: C_14  and  O_15
REMARK    4  A    between atoms: C_16  and  C_17
REMARK    5  A    between atoms: C_17  and  C_18
REMARK    6  A    between atoms: C_18  and  C_19
REMARK    7  A    between atoms: C_19  and  C_20
REMARK    8  A    between atoms: C_19  and  C_21
REMARK                            x       y       z     vdW  Elec       q    Type
REMARK                         _______ _______ _______ _____ _____    ______ ____
ROOT
ATOM      1  C   UNL     1       4.887   6.549  16.424  0.00  0.00    +0.000 C 
ATOM      2  C   UNL     1       6.135   6.748  17.229  0.00  0.00    +0.000 A 
ATOM      3  N   UNL     1       6.756   7.931  16.985  0.00  0.00    +0.000 NA
ATOM      4  C   UNL     1       7.833   8.241  17.713  0.00  0.00    +0.000 A 
ATOM      5  N   UNL     1       8.426   9.480  17.485  0.00  0.00    +0.000 N 
ATOM      6  N   UNL     1       8.353   7.431  18.638  0.00  0.00    +0.000 NA
ATOM      7  C   UNL     1       7.725   6.277  18.833  0.00  0.00    +0.000 A 
ATOM      8  C   UNL     1       6.603   5.839  18.169  0.00  0.00    +0.000 A 
ATOM      9  H   UNL     1       7.973   9.976  16.730  0.00  0.00    +0.000 HD
ENDROOT
BRANCH   5  10
ATOM     10  C   UNL     1       9.208  10.224  18.372  0.00  0.00    +0.000 A 
ATOM     11  C   UNL     1       8.917  10.199  19.743  0.00  0.00    +0.000 A 
ATOM     12  C   UNL     1       9.600  11.042  20.624  0.00  0.00    +0.000 A 
ATOM     13  C   UNL     1      10.588  11.895  20.143  0.00  0.00    +0.000 A 
ATOM     14  F   UNL     1      11.219  12.720  20.988  0.00  0.00    +0.000 F 
ATOM     15  C   UNL     1      10.918  11.912  18.797  0.00  0.00    +0.000 A 
ATOM     16  C   UNL     1      10.231  11.081  17.923  0.00  0.00    +0.000 A 
ENDBRANCH   5  10
BRANCH   7  17
ATOM     17  O   UNL     1       8.301   5.552  19.827  0.00  0.00    +0.000 OA
ATOM     18  H   UNL     1       9.070   6.118  20.024  0.00  0.00    +0.000 HD
ENDBRANCH   7  17
BRANCH   8  19
ATOM     19  C   UNL     1       5.969   4.532  18.543  0.00  0.00    +0.000 C 
BRANCH  19  20
ATOM     20  C   UNL     1       4.672   4.591  19.356  0.00  0.00    +0.000 C 
BRANCH  20  21
ATOM     21  C   UNL     1       3.450   3.857  18.772  0.00  0.00    +0.000 C 
ATOM     22  C   UNL     1       2.280   4.791  18.452  0.00  0.00    +0.000 C 
ATOM     23  C   UNL     1       3.886   3.131  17.495  0.00  0.00    +0.000 C 
ENDBRANCH  20  21
ENDBRANCH  19  20
ENDBRANCH   8  19
TORSDOF 5
ENDMDL
MODEL 3
REMARK VINA RESULT:      -6.9      0.924      1.170
REMARK  Name = 
REMARK  8 active torsions:
REMARK  status: ('A' for Active; 'I' for Inactive)
REMARK    1  A    between atoms: C_1  and  C_2
REMARK    2  A    between atoms: N_5  and  C_6
REMARK    3  A    between atoms: C_14  and  O_15
REMARK    4  A    between atoms: C_16  and  C_17
REMARK    5  A    between atoms: C_17  and  C_18
REMARK    6  A    between atoms: C_18  and  C_19
REMARK    7  A    between atoms: C_19  and  C_20
REMARK    8  A    between atoms: C_19  and  C_21
REMARK                            x       y       z     vdW  Elec       q    Type
REMARK                         _______ _______ _______ _____ _____    ______ ____
ROOT
ATOM      1  C   UNL     1       4.599   5.695  16.794  0.00  0.00    +0.000 C 
ATOM      2  C   UNL     1       3.748   6.340  17.846  0.00  0.00    +0.000 A 
ATOM      3  N   UNL     1       3.276   7.562  17.489  0.00  0.00    +0.000 NA
ATOM      4  C   UNL     1       2.439   8.186  18.323  0.00  0.00    +0.000 A 
ATOM      5  N   UNL     1       1.925   9.414  17.917  0.00  0.00    +0.000 N 
ATOM      6  N   UNL     1       2.076   7.687  19.507  0.00  0.00    +0.000 NA
ATOM      7  C   UNL     1       2.573   6.497  19.826  0.00  0.00    +0.000 A 
ATOM      8  C   UNL     1       3.429   5.742  19.058  0.00  0.00    +0.000 A 
ATOM      9  H   UNL     1       2.313   9.705  17.031  0.00  0.00    +0.000 HD
ENDROOT
BRANCH   5  10
ATOM     10  C   UNL     1       0.735  10.017  18.333  0.00  0.00    +0.000 A 
ATOM     11  C   UNL     1      -0.476   9.653  17.727  0.00  0.00    +0.000 A 
ATOM     12  C   UNL     1      -1.652  10.342  18.033  0.00  0.00    +0.000 A 
ATOM     13  C   UNL     1      -1.627  11.381  18.958  0.00  0.00    +0.000 A 
ATOM     14  F   UNL     1      -2.752  12.056  19.227  0.00  0.00    +0.000 F 
ATOM     15  C   UNL     1      -0.449  11.735  19.597  0.00  0.00    +0.000 A 
ATOM     16  C   UNL     1       0.720  11.055  19.283  0.00  0.00    +0.000 A 
ENDBRANCH   5  10
BRANCH   7  17
ATOM     17  O   UNL     1       2.102   6.059  21.022  0.00  0.00    +0.000 OA
ATOM     18  H   UNL     1       1.282   5.622  20.730  0.00  0.00    +0.000 HD
ENDBRANCH   7  17
BRANCH   8  19
ATOM     19  C   UNL     1       3.859   4.383  19.527  0.00  0.00    +0.000 C 
BRANCH  19  20
ATOM     20  C   UNL     1       3.044   3.183  19.035  0.00  0.00    +0.000 C 
BRANCH  20  21
ATOM     21  C   UNL     1       2.090   2.526  20.051  0.00  0.00    +0.000 C 
ATOM     22  C   UNL     1       2.520   2.731  21.506  0.00  0.00    +0.000 C 
ATOM     23  C   UNL     1       0.688   3.112  19.847  0.00  0.00    +0.000 C 
ENDBRANCH  20  21
ENDBRANCH  19  20
ENDBRANCH   8  19
TORSDOF 5
ENDMDL
MODEL 4
REMARK VINA RESULT:      -6.9      3.277      7.252
REMARK  Name = 
REMARK  8 active torsions:
REMARK  status: ('A' for Active; 'I' for Inactive)
REMARK    1  A    between atoms: C_1  and  C_2
REMARK    2  A    between atoms: N_5  and  C_6
REMARK    3  A    between atoms: C_14  and  O_15
REMARK    4  A    between atoms: C_16  and  C_17
REMARK    5  A    between atoms: C_17  and  C_18
REMARK    6  A    between atoms: C_18  and  C_19
REMARK    7  A    between atoms: C_19  and  C_20
REMARK    8  A    between atoms: C_19  and  C_21
REMARK                            x       y       z     vdW  Elec       q    Type
REMARK                         _______ _______ _______ _____ _____    ______ ____
ROOT
ATOM      1  C   UNL     1      -0.453   9.906  21.989  0.00  0.00    +0.000 C 
ATOM      2  C   UNL     1       0.424   9.485  20.849  0.00  0.00    +0.000 A 
ATOM      3  N   UNL     1       1.126   8.349  21.094  0.00  0.00    +0.000 NA
ATOM      4  C   UNL     1       1.875   7.843  20.110  0.00  0.00    +0.000 A 
ATOM      5  N   UNL     1       2.547   6.651  20.363  0.00  0.00    +0.000 N 
ATOM      6  N   UNL     1       2.000   8.419  18.912  0.00  0.00    +0.000 NA
ATOM      7  C   UNL     1       1.310   9.538  18.719  0.00  0.00    +0.000 A 
ATOM      8  C   UNL     1       0.493  10.157  19.635  0.00  0.00    +0.000 A 
ATOM      9  H   UNL     1       2.414   6.344  21.316  0.00  0.00    +0.000 HD
ENDROOT
BRANCH   5  10
ATOM     10  C   UNL     1       2.976   5.702  19.431  0.00  0.00    +0.000 A 
ATOM     11  C   UNL     1       4.346   5.559  19.167  0.00  0.00    +0.000 A 
ATOM     12  C   UNL     1       4.782   4.715  18.142  0.00  0.00    +0.000 A 
ATOM     13  C   UNL     1       3.855   3.998  17.393  0.00  0.00    +0.000 A 
ATOM     14  F   UNL     1       4.277   3.212  16.394  0.00  0.00    +0.000 F 
ATOM     15  C   UNL     1       2.499   4.095  17.659  0.00  0.00    +0.000 A 
ATOM     16  C   UNL     1       2.068   4.942  18.671  0.00  0.00    +0.000 A 
ENDBRANCH   5  10
BRANCH   7  17
ATOM     17  O   UNL     1       1.466  10.013  17.456  0.00  0.00    +0.000 OA
ATOM     18  H   UNL     1       1.480  10.970  17.637  0.00  0.00    +0.000 HD
ENDBRANCH   7  17
BRANCH   8  19
ATOM     19  C   UNL     1      -0.273  11.389  19.250  0.00  0.00    +0.000 C 
BRANCH  19  20
ATOM     20  C   UNL     1      -1.772  11.225  18.981  0.00  0.00    +0.000 C 
BRANCH  20  21
ATOM     21  C   UNL     1      -2.214  11.170  17.507  0.00  0.00    +0.000 C 
ATOM     22  C   UNL     1      -1.997   9.799  16.861  0.00  0.00    +0.000 C 
ATOM     23  C   UNL     1      -3.700  11.538  17.432  0.00  0.00    +0.000 C 
ENDBRANCH  20  21
ENDBRANCH  19  20
ENDBRANCH   8  19
TORSDOF 5
ENDMDL
MODEL 5
REMARK VINA RESULT:      -6.9      0.995      1.637
REMARK  Name = 
REMARK  8 active torsions:
REMARK  status: ('A' for Active; 'I' for Inactive)
REMARK    1  A    between atoms: C_1  and  C_2
REMARK    2  A    between atoms: N_5  and  C_6
REMARK    3  A    between atoms: C_14  and  O_15
REMARK    4  A    between atoms: C_16  and  C_17
REMARK    5  A    between atoms: C_17  and  C_18
REMARK    6  A    between atoms: C_18  and  C_19
REMARK    7  A    between atoms: C_19  and  C_20
REMARK    8  A    between atoms: C_19  and  C_21
REMARK                            x       y       z     vdW  Elec       q    Type
REMARK                         _______ _______ _______ _____ _____    ______ ____
ROOT
ATOM      1  C   UNL     1       4.604   5.582  16.791  0.00  0.00    +0.000 C 
ATOM      2  C   UNL     1       3.777   6.275  17.830  0.00  0.00    +0.000 A 
ATOM      3  N   UNL     1       3.353   7.509  17.454  0.00  0.00    +0.000 NA
ATOM      4  C   UNL     1       2.538   8.176  18.277  0.00  0.00    +0.000 A 
ATOM      5  N   UNL     1       2.073   9.417  17.852  0.00  0.00    +0.000 N 
ATOM      6  N   UNL     1       2.153   7.709  19.467  0.00  0.00    +0.000 NA
ATOM      7  C   UNL     1       2.603   6.505  19.804  0.00  0.00    +0.000 A 
ATOM      8  C   UNL     1       3.431   5.707  19.050  0.00  0.00    +0.000 A 
ATOM      9  H   UNL     1       2.474   9.680  16.963  0.00  0.00    +0.000 HD
ENDROOT
BRANCH   5  10
ATOM     10  C   UNL     1       0.907  10.071  18.255  0.00  0.00    +0.000 A 
ATOM     11  C   UNL     1       0.973  11.060  19.248  0.00  0.00    +0.000 A 
ATOM     12  C   UNL     1      -0.199  11.625  19.759  0.00  0.00    +0.000 A 
ATOM     13  C   UNL     1      -1.436  11.221  19.267  0.00  0.00    +0.000 A 
ATOM     14  F   UNL     1      -2.556  11.746  19.780  0.00  0.00    +0.000 F 
ATOM     15  C   UNL     1      -1.525  10.272  18.261  0.00  0.00    +0.000 A 
ATOM     16  C   UNL     1      -0.360   9.705  17.763  0.00  0.00    +0.000 A 
ENDBRANCH   5  10
BRANCH   7  17
ATOM     17  O   UNL     1       2.113   6.103  21.005  0.00  0.00    +0.000 OA
ATOM     18  H   UNL     1       2.284   5.145  20.944  0.00  0.00    +0.000 HD
ENDBRANCH   7  17
BRANCH   8  19
ATOM     19  C   UNL     1       3.808   4.339  19.539  0.00  0.00    +0.000 C 
BRANCH  19  20
ATOM     20  C   UNL     1       2.966   3.161  19.040  0.00  0.00    +0.000 C 
BRANCH  20  21
ATOM     21  C   UNL     1       1.979   2.536  20.044  0.00  0.00    +0.000 C 
ATOM     22  C   UNL     1       2.405   2.715  21.503  0.00  0.00    +0.000 C 
ATOM     23  C   UNL     1       0.603   3.177  19.834  0.00  0.00    +0.000 C 
ENDBRANCH  20  21
ENDBRANCH  19  20
ENDBRANCH   8  19
TORSDOF 5
ENDMDL
MODEL 6
REMARK VINA RESULT:      -6.8      4.321      7.661
REMARK  Name = 
REMARK  8 active torsions:
REMARK  status: ('A' for Active; 'I' for Inactive)
REMARK    1  A    between atoms: C_1  and  C_2
REMARK    2  A    between atoms: N_5  and  C_6
REMARK    3  A    between atoms: C_14  and  O_15
REMARK    4  A    between atoms: C_16  and  C_17
REMARK    5  A    between atoms: C_17  and  C_18
REMARK    6  A    between atoms: C_18  and  C_19
REMARK    7  A    between atoms: C_19  and  C_20
REMARK    8  A    between atoms: C_19  and  C_21
REMARK                            x       y       z     vdW  Elec       q    Type
REMARK                         _______ _______ _______ _____ _____    ______ ____
ROOT
ATOM      1  C   UNL     1       2.059   3.703  21.440  0.00  0.00    +0.000 C 
ATOM      2  C   UNL     1       2.686   4.600  20.417  0.00  0.00    +0.000 A 
ATOM      3  N   UNL     1       3.748   4.041  19.781  0.00  0.00    +0.000 NA
ATOM      4  C   UNL     1       4.327   4.728  18.792  0.00  0.00    +0.000 A 
ATOM      5  N   UNL     1       5.381   4.117  18.118  0.00  0.00    +0.000 N 
ATOM      6  N   UNL     1       3.940   5.952  18.424  0.00  0.00    +0.000 NA
ATOM      7  C   UNL     1       2.909   6.469  19.082  0.00  0.00    +0.000 A 
ATOM      8  C   UNL     1       2.214   5.869  20.106  0.00  0.00    +0.000 A 
ATOM      9  H   UNL     1       5.610   3.220  18.521  0.00  0.00    +0.000 HD
ENDROOT
BRANCH   5  10
ATOM     10  C   UNL     1       5.821   4.375  16.817  0.00  0.00    +0.000 A 
ATOM     11  C   UNL     1       5.020   4.006  15.727  0.00  0.00    +0.000 A 
ATOM     12  C   UNL     1       5.504   4.131  14.422  0.00  0.00    +0.000 A 
ATOM     13  C   UNL     1       6.779   4.643  14.202  0.00  0.00    +0.000 A 
ATOM     14  F   UNL     1       7.248   4.734  12.951  0.00  0.00    +0.000 F 
ATOM     15  C   UNL     1       7.575   5.048  15.260  0.00  0.00    +0.000 A 
ATOM     16  C   UNL     1       7.096   4.913  16.556  0.00  0.00    +0.000 A 
ENDBRANCH   5  10
BRANCH   7  17
ATOM     17  O   UNL     1       2.565   7.690  18.597  0.00  0.00    +0.000 OA
ATOM     18  H   UNL     1       2.329   7.449  17.684  0.00  0.00    +0.000 HD
ENDBRANCH   7  17
BRANCH   8  19
ATOM     19  C   UNL     1       1.027   6.556  20.714  0.00  0.00    +0.000 C 
BRANCH  19  20
ATOM     20  C   UNL     1       1.258   7.940  21.329  0.00  0.00    +0.000 C 
BRANCH  20  21
ATOM     21  C   UNL     1       0.019   8.835  21.515  0.00  0.00    +0.000 C 
ATOM     22  C   UNL     1      -0.047   9.499  22.893  0.00  0.00    +0.000 C 
ATOM     23  C   UNL     1       0.035   9.917  20.429  0.00  0.00    +0.000 C 
ENDBRANCH  20  21
ENDBRANCH  19  20
ENDBRANCH   8  19
TORSDOF 5
ENDMDL
MODEL 7
REMARK VINA RESULT:      -6.8      3.410      7.625
REMARK  Name = 
REMARK  8 active torsions:
REMARK  status: ('A' for Active; 'I' for Inactive)
REMARK    1  A    between atoms: C_1  and  C_2
REMARK    2  A    between atoms: N_5  and  C_6
REMARK    3  A    between atoms: C_14  and  O_15
REMARK    4  A    between atoms: C_16  and  C_17
REMARK    5  A    between atoms: C_17  and  C_18
REMARK    6  A    between atoms: C_18  and  C_19
REMARK    7  A    between atoms: C_19  and  C_20
REMARK    8  A    between atoms: C_19  and  C_21
REMARK                            x       y       z     vdW  Elec       q    Type
REMARK                         _______ _______ _______ _____ _____    ______ ____
ROOT
ATOM      1  C   UNL     1      -0.063   9.762  21.623  0.00  0.00    +0.000 C 
ATOM      2  C   UNL     1       0.807   9.016  20.657  0.00  0.00    +0.000 A 
ATOM      3  N   UNL     1       1.239   7.818  21.128  0.00  0.00    +0.000 NA
ATOM      4  C   UNL     1       1.953   7.038  20.312  0.00  0.00    +0.000 A 
ATOM      5  N   UNL     1       2.344   5.792  20.795  0.00  0.00    +0.000 N 
ATOM      6  N   UNL     1       2.297   7.392  19.071  0.00  0.00    +0.000 NA
ATOM      7  C   UNL     1       1.868   8.579  18.655  0.00  0.00    +0.000 A 
ATOM      8  C   UNL     1       1.116   9.472  19.382  0.00  0.00    +0.000 A 
ATOM      9  H   UNL     1       2.069   5.663  21.758  0.00  0.00    +0.000 HD
ENDROOT
BRANCH   5  10
ATOM     10  C   UNL     1       2.653   4.650  20.050  0.00  0.00    +0.000 A 
ATOM     11  C   UNL     1       1.672   3.669  19.847  0.00  0.00    +0.000 A 
ATOM     12  C   UNL     1       2.002   2.462  19.224  0.00  0.00    +0.000 A 
ATOM     13  C   UNL     1       3.303   2.240  18.786  0.00  0.00    +0.000 A 
ATOM     14  F   UNL     1       3.619   1.071  18.215  0.00  0.00    +0.000 F 
ATOM     15  C   UNL     1       4.281   3.209  18.943  0.00  0.00    +0.000 A 
ATOM     16  C   UNL     1       3.953   4.403  19.571  0.00  0.00    +0.000 A 
ENDBRANCH   5  10
BRANCH   7  17
ATOM     17  O   UNL     1       2.226   8.820  17.368  0.00  0.00    +0.000 OA
ATOM     18  H   UNL     1       1.972   7.972  16.960  0.00  0.00    +0.000 HD
ENDBRANCH   7  17
BRANCH   8  19
ATOM     19  C   UNL     1       0.653  10.753  18.753  0.00  0.00    +0.000 C 
BRANCH  19  20
ATOM     20  C   UNL     1      -0.784  10.792  18.221  0.00  0.00    +0.000 C 
BRANCH  20  21
ATOM     21  C   UNL     1      -1.524  12.140  18.315  0.00  0.00    +0.000 C 
ATOM     22  C   UNL     1      -2.391  12.268  19.570  0.00  0.00    +0.000 C 
ATOM     23  C   UNL     1      -0.484  13.266  18.298  0.00  0.00    +0.000 C 
ENDBRANCH  20  21
ENDBRANCH  19  20
ENDBRANCH   8  19
TORSDOF 5
ENDMDL
MODEL 8
REMARK VINA RESULT:      -6.7      6.093      7.878
REMARK  Name = 
REMARK  8 active torsions:
REMARK  status: ('A' for Active; 'I' for Inactive)
REMARK    1  A    between atoms: C_1  and  C_2
REMARK    2  A    between atoms: N_5  and  C_6
REMARK    3  A    between atoms: C_14  and  O_15
REMARK    4  A    between atoms: C_16  and  C_17
REMARK    5  A    between atoms: C_17  and  C_18
REMARK    6  A    between atoms: C_18  and  C_19
REMARK    7  A    between atoms: C_19  and  C_20
REMARK    8  A    between atoms: C_19  and  C_21
REMARK                            x       y       z     vdW  Elec       q    Type
REMARK                         _______ _______ _______ _____ _____    ______ ____
ROOT
ATOM      1  C   UNL     1       5.030   6.311  16.319  0.00  0.00    +0.000 C 
ATOM      2  C   UNL     1       6.228   6.596  17.172  0.00  0.00    +0.000 A 
ATOM      3  N   UNL     1       6.809   7.795  16.911  0.00  0.00    +0.000 NA
ATOM      4  C   UNL     1       7.835   8.181  17.676  0.00  0.00    +0.000 A 
ATOM      5  N   UNL     1       8.384   9.435  17.427  0.00  0.00    +0.000 N 
ATOM      6  N   UNL     1       8.344   7.430  18.655  0.00  0.00    +0.000 NA
ATOM      7  C   UNL     1       7.758   6.256  18.866  0.00  0.00    +0.000 A 
ATOM      8  C   UNL     1       6.689   5.744  18.168  0.00  0.00    +0.000 A 
ATOM      9  H   UNL     1       7.948   9.882  16.633  0.00  0.00    +0.000 HD
ENDROOT
BRANCH   5  10
ATOM     10  C   UNL     1       9.090  10.247  18.319  0.00  0.00    +0.000 A 
ATOM     11  C   UNL     1      10.081  11.113  17.835  0.00  0.00    +0.000 A 
ATOM     12  C   UNL     1      10.888  11.827  18.724  0.00  0.00    +0.000 A 
ATOM     13  C   UNL     1      10.694  11.696  20.095  0.00  0.00    +0.000 A 
ATOM     14  F   UNL     1      11.489  12.362  20.943  0.00  0.00    +0.000 F 
ATOM     15  C   UNL     1       9.698  10.874  20.597  0.00  0.00    +0.000 A 
ATOM     16  C   UNL     1       8.905  10.157  19.712  0.00  0.00    +0.000 A 
ENDBRANCH   5  10
BRANCH   7  17
ATOM     17  O   UNL     1       8.316   5.596  19.914  0.00  0.00    +0.000 OA
ATOM     18  H   UNL     1       7.579   5.634  20.549  0.00  0.00    +0.000 HD
ENDBRANCH   7  17
BRANCH   8  19
ATOM     19  C   UNL     1       6.095   4.425  18.564  0.00  0.00    +0.000 C 
BRANCH  19  20
ATOM     20  C   UNL     1       4.703   4.448  19.205  0.00  0.00    +0.000 C 
BRANCH  20  21
ATOM     21  C   UNL     1       3.581   3.699  18.462  0.00  0.00    +0.000 C 
ATOM     22  C   UNL     1       3.178   2.387  19.139  0.00  0.00    +0.000 C 
ATOM     23  C   UNL     1       2.360   4.621  18.371  0.00  0.00    +0.000 C 
ENDBRANCH  20  21
ENDBRANCH  19  20
ENDBRANCH   8  19
TORSDOF 5
ENDMDL
MODEL 9
REMARK VINA RESULT:      -6.7      0.574      1.340
REMARK  Name = 
REMARK  8 active torsions:
REMARK  status: ('A' for Active; 'I' for Inactive)
REMARK    1  A    between atoms: C_1  and  C_2
REMARK    2  A    between atoms: N_5  and  C_6
REMARK    3  A    between atoms: C_14  and  O_15
REMARK    4  A    between atoms: C_16  and  C_17
REMARK    5  A    between atoms: C_17  and  C_18
REMARK    6  A    between atoms: C_18  and  C_19
REMARK    7  A    between atoms: C_19  and  C_20
REMARK    8  A    between atoms: C_19  and  C_21
REMARK                            x       y       z     vdW  Elec       q    Type
REMARK                         _______ _______ _______ _____ _____    ______ ____
ROOT
ATOM      1  C   UNL     1       4.304   6.423  16.887  0.00  0.00    +0.000 C 
ATOM      2  C   UNL     1       3.399   7.078  17.885  0.00  0.00    +0.000 A 
ATOM      3  N   UNL     1       2.864   8.247  17.449  0.00  0.00    +0.000 NA
ATOM      4  C   UNL     1       1.978   8.869  18.232  0.00  0.00    +0.000 A 
ATOM      5  N   UNL     1       1.402  10.039  17.746  0.00  0.00    +0.000 N 
ATOM      6  N   UNL     1       1.622   8.420  19.438  0.00  0.00    +0.000 NA
ATOM      7  C   UNL     1       2.181   7.282  19.835  0.00  0.00    +0.000 A 
ATOM      8  C   UNL     1       3.092   6.534  19.126  0.00  0.00    +0.000 A 
ATOM      9  H   UNL     1       1.788  10.300  16.850  0.00  0.00    +0.000 HD
ENDROOT
BRANCH   5  10
ATOM     10  C   UNL     1       0.172  10.595  18.108  0.00  0.00    +0.000 A 
ATOM     11  C   UNL     1       0.134  11.679  18.996  0.00  0.00    +0.000 A 
ATOM     12  C   UNL     1      -1.089  12.157  19.474  0.00  0.00    +0.000 A 
ATOM     13  C   UNL     1      -2.276  11.569  19.050  0.00  0.00    +0.000 A 
ATOM     14  F   UNL     1      -3.444  12.013  19.533  0.00  0.00    +0.000 F 
ATOM     15  C   UNL     1      -2.267  10.520  18.145  0.00  0.00    +0.000 A 
ATOM     16  C   UNL     1      -1.050  10.041  17.680  0.00  0.00    +0.000 A 
ENDBRANCH   5  10
BRANCH   7  17
ATOM     17  O   UNL     1       1.715   6.888  21.048  0.00  0.00    +0.000 OA
ATOM     18  H   UNL     1       2.287   6.116  21.205  0.00  0.00    +0.000 HD
ENDBRANCH   7  17
BRANCH   8  19
ATOM     19  C   UNL     1       3.592   5.233  19.681  0.00  0.00    +0.000 C 
BRANCH  19  20
ATOM     20  C   UNL     1       2.583   4.084  19.788  0.00  0.00    +0.000 C 
BRANCH  20  21
ATOM     21  C   UNL     1       1.818   3.707  18.506  0.00  0.00    +0.000 C 
ATOM     22  C   UNL     1       2.727   3.189  17.389  0.00  0.00    +0.000 C 
ATOM     23  C   UNL     1       0.782   2.634  18.858  0.00  0.00    +0.000 C 
ENDBRANCH  20  21
ENDBRANCH  19  20
ENDBRANCH   8  19
TORSDOF 5
ENDMDL
