MODEL 1
REMARK VINA RESULT:      -8.8      0.000      0.000
REMARK  Name = 
REMARK  6 active torsions:
REMARK  status: ('A' for Active; 'I' for Inactive)
REMARK    1  A    between atoms: C_1  and  C_2
REMARK    2  A    between atoms: C_6  and  C_7
REMARK    3  A    between atoms: C_7  and  C_8
REMARK    4  A    between atoms: C_8  and  C_9
REMARK    5  A    between atoms: C_13  and  O_14
REMARK    6  A    between atoms: C_24  and  O_25
REMARK                            x       y       z     vdW  Elec       q    Type
REMARK                         _______ _______ _______ _____ _____    ______ ____
ROOT
ATOM      1  C   UNL     1       3.453   5.504  18.709  0.00  0.00    +0.000 C 
ATOM      2  C   UNL     1       3.183   4.455  19.881  0.00  0.00    +0.000 C 
ATOM      3  C   UNL     1       3.907   3.098  19.578  0.00  0.00    +0.000 C 
ATOM      4  C   UNL     1       3.379   2.476  18.271  0.00  0.00    +0.000 C 
ATOM      5  C   UNL     1       3.586   3.472  17.121  0.00  0.00    +0.000 C 
ATOM      6  C   UNL     1       2.870   4.802  17.421  0.00  0.00    +0.000 C 
ATOM      7  C   UNL     1       1.350   4.490  17.616  0.00  0.00    +0.000 C 
ATOM      8  C   UNL     1       1.135   3.485  18.761  0.00  0.00    +0.000 C 
ATOM      9  C   UNL     1       1.691   4.106  20.052  0.00  0.00    +0.000 C 
ATOM     10  C   UNL     1       1.875   2.180  18.408  0.00  0.00    +0.000 C 
ENDROOT
BRANCH   1  16
ATOM     11  C   UNL     1       0.610   8.527  21.468  0.00  0.00    +0.000 C 
ATOM     12  C   UNL     1       1.410   8.396  20.204  0.00  0.00    +0.000 A 
ATOM     13  C   UNL     1       1.215   9.232  19.102  0.00  0.00    +0.000 A 
ATOM     14  C   UNL     1       1.867   8.952  17.904  0.00  0.00    +0.000 A 
ATOM     15  C   UNL     1       2.658   7.800  17.755  0.00  0.00    +0.000 A 
ATOM     16  C   UNL     1       2.858   6.936  18.835  0.00  0.00    +0.000 A 
ATOM     17  C   UNL     1       2.283   7.312  20.072  0.00  0.00    +0.000 A 
ENDBRANCH   1  16
BRANCH  10  18
ATOM     18  O   UNL     1       1.629   1.155  19.366  0.00  0.00    +0.000 OA
ATOM     19  H   UNL     1       1.681   1.525  20.261  0.00  0.00    +0.000 HD
ENDBRANCH  10  18
BRANCH   1  20
ATOM     20  C   UNL     1       5.005   5.787  18.804  0.00  0.00    +0.000 C 
BRANCH  20  21
ATOM     21  C   UNL     1       5.801   6.354  17.640  0.00  0.00    +0.000 C 
ATOM     22  O   UNL     1       5.970   7.566  17.492  0.00  0.00    +0.000 OA
ATOM     23  N   UNL     1       6.085   5.427  16.651  0.00  0.00    +0.000 N 
ATOM     24  C   UNL     1       6.616   5.798  15.335  0.00  0.00    +0.000 C 
ATOM     25  C   UNL     1       7.098   4.340  15.234  0.00  0.00    +0.000 C 
ATOM     26  C   UNL     1       7.074   4.340  16.778  0.00  0.00    +0.000 C 
BRANCH  25  27
ATOM     27  O   UNL     1       6.208   3.404  14.574  0.00  0.00    +0.000 OA
ATOM     28  H   UNL     1       6.766   2.630  14.380  0.00  0.00    +0.000 HD
ENDBRANCH  25  27
ENDBRANCH  20  21
ENDBRANCH   1  20
TORSDOF 5
ENDMDL
MODEL 2
REMARK VINA RESULT:      -8.6      1.463      1.955
REMARK  Name = 
REMARK  6 active torsions:
REMARK  status: ('A' for Active; 'I' for Inactive)
REMARK    1  A    between atoms: C_1  and  C_2
REMARK    2  A    between atoms: C_6  and  C_7
REMARK    3  A    between atoms: C_7  and  C_8
REMARK    4  A    between atoms: C_8  and  C_9
REMARK    5  A    between atoms: C_13  and  O_14
REMARK    6  A    between atoms: C_24  and  O_25
REMARK                            x       y       z     vdW  Elec       q    Type
REMARK                         _______ _______ _______ _____ _____    ______ ____
ROOT
ATOM      1  C   UNL     1       3.206   5.324  19.170  0.00  0.00    +0.000 C 
ATOM      2  C   UNL     1       2.543   4.287  20.186  0.00  0.00    +0.000 C 
ATOM      3  C   UNL     1       3.240   2.888  20.072  0.00  0.00    +0.000 C 
ATOM      4  C   UNL     1       3.079   2.311  18.653  0.00  0.00    +0.000 C 
ATOM      5  C   UNL     1       3.672   3.299  17.637  0.00  0.00    +0.000 C 
ATOM      6  C   UNL     1       2.982   4.671  17.751  0.00  0.00    +0.000 C 
ATOM      7  C   UNL     1       1.455   4.458  17.488  0.00  0.00    +0.000 C 
ATOM      8  C   UNL     1       0.855   3.460  18.496  0.00  0.00    +0.000 C 
ATOM      9  C   UNL     1       1.048   4.035  19.907  0.00  0.00    +0.000 C 
ATOM     10  C   UNL     1       1.586   2.113  18.339  0.00  0.00    +0.000 C 
ENDROOT
BRANCH   1  16
ATOM     11  C   UNL     1       0.377   8.692  21.515  0.00  0.00    +0.000 C 
ATOM     12  C   UNL     1       1.245   8.424  20.318  0.00  0.00    +0.000 A 
ATOM     13  C   UNL     1       1.167   9.184  19.149  0.00  0.00    +0.000 A 
ATOM     14  C   UNL     1       1.874   8.782  18.020  0.00  0.00    +0.000 A 
ATOM     15  C   UNL     1       2.604   7.582  18.005  0.00  0.00    +0.000 A 
ATOM     16  C   UNL     1       2.687   6.791  19.154  0.00  0.00    +0.000 A 
ATOM     17  C   UNL     1       2.060   7.289  20.321  0.00  0.00    +0.000 A 
ENDBRANCH   1  16
BRANCH  10  18
ATOM     18  O   UNL     1       1.010   1.100  19.158  0.00  0.00    +0.000 OA
ATOM     19  H   UNL     1       0.446   1.507  19.834  0.00  0.00    +0.000 HD
ENDBRANCH  10  18
BRANCH   1  20
ATOM     20  C   UNL     1       4.677   5.505  19.719  0.00  0.00    +0.000 C 
BRANCH  20  21
ATOM     21  C   UNL     1       5.903   5.197  18.875  0.00  0.00    +0.000 C 
ATOM     22  O   UNL     1       6.411   4.074  18.844  0.00  0.00    +0.000 OA
ATOM     23  N   UNL     1       6.530   6.322  18.367  0.00  0.00    +0.000 N 
ATOM     24  C   UNL     1       7.857   6.286  17.742  0.00  0.00    +0.000 C 
ATOM     25  C   UNL     1       7.463   7.615  17.072  0.00  0.00    +0.000 C 
ATOM     26  C   UNL     1       6.002   7.155  17.270  0.00  0.00    +0.000 C 
BRANCH  25  27
ATOM     27  O   UNL     1       7.856   8.831  17.757  0.00  0.00    +0.000 OA
ATOM     28  H   UNL     1       8.508   8.539  18.419  0.00  0.00    +0.000 HD
ENDBRANCH  25  27
ENDBRANCH  20  21
ENDBRANCH   1  20
TORSDOF 5
ENDMDL
MODEL 3
REMARK VINA RESULT:      -8.5      2.261      5.532
REMARK  Name = 
REMARK  6 active torsions:
REMARK  status: ('A' for Active; 'I' for Inactive)
REMARK    1  A    between atoms: C_1  and  C_2
REMARK    2  A    between atoms: C_6  and  C_7
REMARK    3  A    between atoms: C_7  and  C_8
REMARK    4  A    between atoms: C_8  and  C_9
REMARK    5  A    between atoms: C_13  and  O_14
REMARK    6  A    between atoms: C_24  and  O_25
REMARK                            x       y       z     vdW  Elec       q    Type
REMARK                         _______ _______ _______ _____ _____    ______ ____
ROOT
ATOM      1  C   UNL     1       3.610   4.905  18.946  0.00  0.00    +0.000 C 
ATOM      2  C   UNL     1       2.240   4.597  18.187  0.00  0.00    +0.000 C 
ATOM      3  C   UNL     1       1.098   4.300  19.218  0.00  0.00    +0.000 C 
ATOM      4  C   UNL     1       1.440   3.063  20.072  0.00  0.00    +0.000 C 
ATOM      5  C   UNL     1       2.775   3.303  20.792  0.00  0.00    +0.000 C 
ATOM      6  C   UNL     1       3.894   3.591  19.774  0.00  0.00    +0.000 C 
ATOM      7  C   UNL     1       3.996   2.359  18.818  0.00  0.00    +0.000 C 
ATOM      8  C   UNL     1       2.658   2.105  18.099  0.00  0.00    +0.000 C 
ATOM      9  C   UNL     1       2.316   3.356  17.275  0.00  0.00    +0.000 C 
ATOM     10  C   UNL     1       1.579   1.829  19.164  0.00  0.00    +0.000 C 
ENDROOT
BRANCH   1  16
ATOM     11  C   UNL     1       5.743   4.638  14.450  0.00  0.00    +0.000 C 
ATOM     12  C   UNL     1       5.913   5.084  15.874  0.00  0.00    +0.000 A 
ATOM     13  C   UNL     1       7.166   5.306  16.447  0.00  0.00    +0.000 A 
ATOM     14  C   UNL     1       7.263   5.553  17.813  0.00  0.00    +0.000 A 
ATOM     15  C   UNL     1       6.132   5.506  18.645  0.00  0.00    +0.000 A 
ATOM     16  C   UNL     1       4.866   5.269  18.104  0.00  0.00    +0.000 A 
ATOM     17  C   UNL     1       4.784   5.145  16.696  0.00  0.00    +0.000 A 
ENDBRANCH   1  16
BRANCH  10  18
ATOM     18  O   UNL     1       0.333   1.469  18.575  0.00  0.00    +0.000 OA
ATOM     19  H   UNL     1       0.489   1.031  17.724  0.00  0.00    +0.000 HD
ENDBRANCH  10  18
BRANCH   1  20
ATOM     20  C   UNL     1       3.325   6.258  19.710  0.00  0.00    +0.000 C 
BRANCH  20  21
ATOM     21  C   UNL     1       2.359   7.304  19.178  0.00  0.00    +0.000 C 
ATOM     22  O   UNL     1       2.242   7.533  17.972  0.00  0.00    +0.000 OA
ATOM     23  N   UNL     1       1.833   8.131  20.156  0.00  0.00    +0.000 N 
ATOM     24  C   UNL     1       1.085   9.355  19.852  0.00  0.00    +0.000 C 
ATOM     25  C   UNL     1       0.501   9.227  21.270  0.00  0.00    +0.000 C 
ATOM     26  C   UNL     1       0.820   7.721  21.146  0.00  0.00    +0.000 C 
BRANCH  25  27
ATOM     27  O   UNL     1       1.188   9.947  22.325  0.00  0.00    +0.000 OA
ATOM     28  H   UNL     1       2.131   9.749  22.183  0.00  0.00    +0.000 HD
ENDBRANCH  25  27
ENDBRANCH  20  21
ENDBRANCH   1  20
TORSDOF 5
ENDMDL
MODEL 4
REMARK VINA RESULT:      -8.4      2.391      5.616
REMARK  Name = 
REMARK  6 active torsions:
REMARK  status: ('A' for Active; 'I' for Inactive)
REMARK    1  A    between atoms: C_1  and  C_2
REMARK    2  A    between atoms: C_6  and  C_7
REMARK    3  A    between atoms: C_7  and  C_8
REMARK    4  A    between atoms: C_8  and  C_9
REMARK    5  A    between atoms: C_13  and  O_14
REMARK    6  A    between atoms: C_24  and  O_25
REMARK                            x       y       z     vdW  Elec       q    Type
REMARK                         _______ _______ _______ _____ _____    ______ ____
ROOT
ATOM      1  C   UNL     1       3.814   5.662  18.406  0.00  0.00    +0.000 C 
ATOM      2  C   UNL     1       5.243   5.240  18.978  0.00  0.00    +0.000 C 
ATOM      3  C   UNL     1       6.348   6.228  18.471  0.00  0.00    +0.000 C 
ATOM      4  C   UNL     1       6.441   6.203  16.933  0.00  0.00    +0.000 C 
ATOM      5  C   UNL     1       5.072   6.567  16.340  0.00  0.00    +0.000 C 
ATOM      6  C   UNL     1       3.990   5.591  16.839  0.00  0.00    +0.000 C 
ATOM      7  C   UNL     1       4.414   4.150  16.406  0.00  0.00    +0.000 C 
ATOM      8  C   UNL     1       5.790   3.781  16.988  0.00  0.00    +0.000 C 
ATOM      9  C   UNL     1       5.691   3.838  18.519  0.00  0.00    +0.000 C 
ATOM     10  C   UNL     1       6.828   4.791  16.460  0.00  0.00    +0.000 C 
ENDROOT
BRANCH   1  16
ATOM     11  C   UNL     1       1.823   2.764  21.939  0.00  0.00    +0.000 C 
ATOM     12  C   UNL     1       1.624   3.367  20.577  0.00  0.00    +0.000 A 
ATOM     13  C   UNL     1       0.717   2.848  19.652  0.00  0.00    +0.000 A 
ATOM     14  C   UNL     1       0.702   3.345  18.352  0.00  0.00    +0.000 A 
ATOM     15  C   UNL     1       1.634   4.306  17.927  0.00  0.00    +0.000 A 
ATOM     16  C   UNL     1       2.566   4.833  18.826  0.00  0.00    +0.000 A 
ATOM     17  C   UNL     1       2.476   4.397  20.170  0.00  0.00    +0.000 A 
ENDBRANCH   1  16
BRANCH  10  18
ATOM     18  O   UNL     1       8.151   4.449  16.860  0.00  0.00    +0.000 OA
ATOM     19  H   UNL     1       8.475   5.097  17.505  0.00  0.00    +0.000 HD
ENDBRANCH  10  18
BRANCH   1  20
ATOM     20  C   UNL     1       3.526   7.055  19.094  0.00  0.00    +0.000 C 
BRANCH  20  21
ATOM     21  C   UNL     1       2.256   7.847  18.827  0.00  0.00    +0.000 C 
ATOM     22  O   UNL     1       1.857   8.076  17.684  0.00  0.00    +0.000 OA
ATOM     23  N   UNL     1       1.751   8.488  19.945  0.00  0.00    +0.000 N 
ATOM     24  C   UNL     1       0.690   9.499  19.876  0.00  0.00    +0.000 C 
ATOM     25  C   UNL     1       0.440   9.187  21.363  0.00  0.00    +0.000 C 
ATOM     26  C   UNL     1       1.075   7.810  21.068  0.00  0.00    +0.000 C 
BRANCH  25  27
ATOM     27  O   UNL     1       1.129  10.022  22.328  0.00  0.00    +0.000 OA
ATOM     28  H   UNL     1       0.644   9.884  23.162  0.00  0.00    +0.000 HD
ENDBRANCH  25  27
ENDBRANCH  20  21
ENDBRANCH   1  20
TORSDOF 5
ENDMDL
MODEL 5
REMARK VINA RESULT:      -8.4      2.316      5.296
REMARK  Name = 
REMARK  6 active torsions:
REMARK  status: ('A' for Active; 'I' for Inactive)
REMARK    1  A    between atoms: C_1  and  C_2
REMARK    2  A    between atoms: C_6  and  C_7
REMARK    3  A    between atoms: C_7  and  C_8
REMARK    4  A    between atoms: C_8  and  C_9
REMARK    5  A    between atoms: C_13  and  O_14
REMARK    6  A    between atoms: C_24  and  O_25
REMARK                            x       y       z     vdW  Elec       q    Type
REMARK                         _______ _______ _______ _____ _____    ______ ____
ROOT
ATOM      1  C   UNL     1       3.539   4.884  18.931  0.00  0.00    +0.000 C 
ATOM      2  C   UNL     1       2.137   4.604  18.222  0.00  0.00    +0.000 C 
ATOM      3  C   UNL     1       1.035   4.296  19.293  0.00  0.00    +0.000 C 
ATOM      4  C   UNL     1       1.400   3.039  20.107  0.00  0.00    +0.000 C 
ATOM      5  C   UNL     1       2.765   3.252  20.777  0.00  0.00    +0.000 C 
ATOM      6  C   UNL     1       3.845   3.552  19.720  0.00  0.00    +0.000 C 
ATOM      7  C   UNL     1       3.896   2.338  18.736  0.00  0.00    +0.000 C 
ATOM      8  C   UNL     1       2.528   2.111  18.067  0.00  0.00    +0.000 C 
ATOM      9  C   UNL     1       2.164   3.381  17.283  0.00  0.00    +0.000 C 
ATOM     10  C   UNL     1       1.490   1.822  19.169  0.00  0.00    +0.000 C 
ENDROOT
BRANCH   1  16
ATOM     11  C   UNL     1       8.202   6.643  18.922  0.00  0.00    +0.000 C 
ATOM     12  C   UNL     1       7.059   6.168  18.072  0.00  0.00    +0.000 A 
ATOM     13  C   UNL     1       6.940   6.499  16.721  0.00  0.00    +0.000 A 
ATOM     14  C   UNL     1       5.775   6.171  16.033  0.00  0.00    +0.000 A 
ATOM     15  C   UNL     1       4.681   5.583  16.689  0.00  0.00    +0.000 A 
ATOM     16  C   UNL     1       4.764   5.255  18.046  0.00  0.00    +0.000 A 
ATOM     17  C   UNL     1       6.004   5.488  18.687  0.00  0.00    +0.000 A 
ENDBRANCH   1  16
BRANCH  10  18
ATOM     18  O   UNL     1       0.218   1.486  18.624  0.00  0.00    +0.000 OA
ATOM     19  H   UNL     1      -0.414   2.199  18.805  0.00  0.00    +0.000 HD
ENDBRANCH  10  18
BRANCH   1  20
ATOM     20  C   UNL     1       3.299   6.225  19.733  0.00  0.00    +0.000 C 
BRANCH  20  21
ATOM     21  C   UNL     1       2.366   7.315  19.232  0.00  0.00    +0.000 C 
ATOM     22  O   UNL     1       2.279   7.603  18.037  0.00  0.00    +0.000 OA
ATOM     23  N   UNL     1       1.837   8.105  20.238  0.00  0.00    +0.000 N 
ATOM     24  C   UNL     1       1.121   9.359  19.978  0.00  0.00    +0.000 C 
ATOM     25  C   UNL     1       0.504   9.175  21.377  0.00  0.00    +0.000 C 
ATOM     26  C   UNL     1       0.795   7.670  21.187  0.00  0.00    +0.000 C 
BRANCH  25  27
ATOM     27  O   UNL     1       1.183   9.830  22.478  0.00  0.00    +0.000 OA
ATOM     28  H   UNL     1       1.928   9.239  22.693  0.00  0.00    +0.000 HD
ENDBRANCH  25  27
ENDBRANCH  20  21
ENDBRANCH   1  20
TORSDOF 5
ENDMDL
MODEL 6
REMARK VINA RESULT:      -8.3      2.234      5.409
REMARK  Name = 
REMARK  6 active torsions:
REMARK  status: ('A' for Active; 'I' for Inactive)
REMARK    1  A    between atoms: C_1  and  C_2
REMARK    2  A    between atoms: C_6  and  C_7
REMARK    3  A    between atoms: C_7  and  C_8
REMARK    4  A    between atoms: C_8  and  C_9
REMARK    5  A    between atoms: C_13  and  O_14
REMARK    6  A    between atoms: C_24  and  O_25
REMARK                            x       y       z     vdW  Elec       q    Type
REMARK                         _______ _______ _______ _____ _____    ______ ____
ROOT
ATOM      1  C   UNL     1       3.300   5.153  18.494  0.00  0.00    +0.000 C 
ATOM      2  C   UNL     1       2.542   4.127  17.535  0.00  0.00    +0.000 C 
ATOM      3  C   UNL     1       1.031   4.019  17.936  0.00  0.00    +0.000 C 
ATOM      4  C   UNL     1       0.883   3.498  19.378  0.00  0.00    +0.000 C 
ATOM      5  C   UNL     1       1.633   4.439  20.332  0.00  0.00    +0.000 C 
ATOM      6  C   UNL     1       3.118   4.539  19.936  0.00  0.00    +0.000 C 
ATOM      7  C   UNL     1       3.723   3.098  19.992  0.00  0.00    +0.000 C 
ATOM      8  C   UNL     1       2.970   2.146  19.046  0.00  0.00    +0.000 C 
ATOM      9  C   UNL     1       3.101   2.692  17.616  0.00  0.00    +0.000 C 
ATOM     10  C   UNL     1       1.494   2.090  19.486  0.00  0.00    +0.000 C 
ENDROOT
BRANCH   1  16
ATOM     11  C   UNL     1       7.031   4.823  15.206  0.00  0.00    +0.000 C 
ATOM     12  C   UNL     1       6.645   5.225  16.601  0.00  0.00    +0.000 A 
ATOM     13  C   UNL     1       7.576   5.340  17.634  0.00  0.00    +0.000 A 
ATOM     14  C   UNL     1       7.134   5.550  18.937  0.00  0.00    +0.000 A 
ATOM     15  C   UNL     1       5.764   5.570  19.249  0.00  0.00    +0.000 A 
ATOM     16  C   UNL     1       4.808   5.441  18.238  0.00  0.00    +0.000 A 
ATOM     17  C   UNL     1       5.288   5.353  16.910  0.00  0.00    +0.000 A 
ENDBRANCH   1  16
BRANCH  10  18
ATOM     18  O   UNL     1       0.752   1.138  18.730  0.00  0.00    +0.000 OA
ATOM     19  H   UNL     1       1.073   1.125  17.815  0.00  0.00    +0.000 HD
ENDBRANCH  10  18
BRANCH   1  20
ATOM     20  C   UNL     1       2.640   6.548  18.154  0.00  0.00    +0.000 C 
BRANCH  20  21
ATOM     21  C   UNL     1       2.306   7.572  19.226  0.00  0.00    +0.000 C 
ATOM     22  O   UNL     1       2.527   7.364  20.421  0.00  0.00    +0.000 OA
ATOM     23  N   UNL     1       1.517   8.617  18.777  0.00  0.00    +0.000 N 
ATOM     24  C   UNL     1       0.870   9.576  19.678  0.00  0.00    +0.000 C 
ATOM     25  C   UNL     1       0.789  10.510  18.457  0.00  0.00    +0.000 C 
ATOM     26  C   UNL     1       1.986   9.708  17.902  0.00  0.00    +0.000 C 
BRANCH  25  27
ATOM     27  O   UNL     1      -0.435  10.464  17.682  0.00  0.00    +0.000 OA
ATOM     28  H   UNL     1      -0.418   9.591  17.249  0.00  0.00    +0.000 HD
ENDBRANCH  25  27
ENDBRANCH  20  21
ENDBRANCH   1  20
TORSDOF 5
ENDMDL
MODEL 7
REMARK VINA RESULT:      -8.2      1.970      5.394
REMARK  Name = 
REMARK  6 active torsions:
REMARK  status: ('A' for Active; 'I' for Inactive)
REMARK    1  A    between atoms: C_1  and  C_2
REMARK    2  A    between atoms: C_6  and  C_7
REMARK    3  A    between atoms: C_7  and  C_8
REMARK    4  A    between atoms: C_8  and  C_9
REMARK    5  A    between atoms: C_13  and  O_14
REMARK    6  A    between atoms: C_24  and  O_25
REMARK                            x       y       z     vdW  Elec       q    Type
REMARK                         _______ _______ _______ _____ _____    ______ ____
ROOT
ATOM      1  C   UNL     1       3.712   4.974  18.672  0.00  0.00    +0.000 C 
ATOM      2  C   UNL     1       2.449   4.594  17.774  0.00  0.00    +0.000 C 
ATOM      3  C   UNL     1       1.144   4.587  18.641  0.00  0.00    +0.000 C 
ATOM      4  C   UNL     1       1.241   3.539  19.766  0.00  0.00    +0.000 C 
ATOM      5  C   UNL     1       2.469   3.846  20.635  0.00  0.00    +0.000 C 
ATOM      6  C   UNL     1       3.750   3.849  19.779  0.00  0.00    +0.000 C 
ATOM      7  C   UNL     1       3.881   2.439  19.115  0.00  0.00    +0.000 C 
ATOM      8  C   UNL     1       2.648   2.119  18.250  0.00  0.00    +0.000 C 
ATOM      9  C   UNL     1       2.547   3.187  17.151  0.00  0.00    +0.000 C 
ATOM     10  C   UNL     1       1.402   2.135  19.156  0.00  0.00    +0.000 C 
ENDROOT
BRANCH   1  16
ATOM     11  C   UNL     1       6.348   3.996  14.556  0.00  0.00    +0.000 C 
ATOM     12  C   UNL     1       6.396   4.545  15.954  0.00  0.00    +0.000 A 
ATOM     13  C   UNL     1       7.584   4.642  16.681  0.00  0.00    +0.000 A 
ATOM     14  C   UNL     1       7.538   4.998  18.026  0.00  0.00    +0.000 A 
ATOM     15  C   UNL     1       6.315   5.187  18.690  0.00  0.00    +0.000 A 
ATOM     16  C   UNL     1       5.108   5.080  17.993  0.00  0.00    +0.000 A 
ATOM     17  C   UNL     1       5.192   4.838  16.601  0.00  0.00    +0.000 A 
ENDBRANCH   1  16
BRANCH  10  18
ATOM     18  O   UNL     1       0.230   1.733  18.453  0.00  0.00    +0.000 OA
ATOM     19  H   UNL     1       0.229   0.770  18.344  0.00  0.00    +0.000 HD
ENDBRANCH  10  18
BRANCH   1  20
ATOM     20  C   UNL     1       3.441   6.472  19.095  0.00  0.00    +0.000 C 
BRANCH  20  21
ATOM     21  C   UNL     1       3.004   7.532  18.098  0.00  0.00    +0.000 C 
ATOM     22  O   UNL     1       3.442   7.566  16.946  0.00  0.00    +0.000 OA
ATOM     23  N   UNL     1       2.293   8.575  18.665  0.00  0.00    +0.000 N 
ATOM     24  C   UNL     1       1.990   9.820  17.949  0.00  0.00    +0.000 C 
ATOM     25  C   UNL     1       0.860  10.013  18.977  0.00  0.00    +0.000 C 
ATOM     26  C   UNL     1       0.903   8.479  19.149  0.00  0.00    +0.000 C 
BRANCH  25  27
ATOM     27  O   UNL     1       1.176  10.804  20.151  0.00  0.00    +0.000 OA
ATOM     28  H   UNL     1       2.149  10.850  20.160  0.00  0.00    +0.000 HD
ENDBRANCH  25  27
ENDBRANCH  20  21
ENDBRANCH   1  20
TORSDOF 5
ENDMDL
MODEL 8
REMARK VINA RESULT:      -8.0      2.375      5.168
REMARK  Name = 
REMARK  6 active torsions:
REMARK  status: ('A' for Active; 'I' for Inactive)
REMARK    1  A    between atoms: C_1  and  C_2
REMARK    2  A    between atoms: C_6  and  C_7
REMARK    3  A    between atoms: C_7  and  C_8
REMARK    4  A    between atoms: C_8  and  C_9
REMARK    5  A    between atoms: C_13  and  O_14
REMARK    6  A    between atoms: C_24  and  O_25
REMARK                            x       y       z     vdW  Elec       q    Type
REMARK                         _______ _______ _______ _____ _____    ______ ____
ROOT
ATOM      1  C   UNL     1       3.359   5.364  18.380  0.00  0.00    +0.000 C 
ATOM      2  C   UNL     1       2.599   4.287  17.479  0.00  0.00    +0.000 C 
ATOM      3  C   UNL     1       1.139   4.069  18.002  0.00  0.00    +0.000 C 
ATOM      4  C   UNL     1       1.150   3.535  19.447  0.00  0.00    +0.000 C 
ATOM      5  C   UNL     1       1.906   4.526  20.344  0.00  0.00    +0.000 C 
ATOM      6  C   UNL     1       3.342   4.734  19.827  0.00  0.00    +0.000 C 
ATOM      7  C   UNL     1       4.052   3.341  19.821  0.00  0.00    +0.000 C 
ATOM      8  C   UNL     1       3.294   2.339  18.932  0.00  0.00    +0.000 C 
ATOM      9  C   UNL     1       3.265   2.897  17.501  0.00  0.00    +0.000 C 
ATOM     10  C   UNL     1       1.868   2.174  19.493  0.00  0.00    +0.000 C 
ENDROOT
BRANCH   1  16
ATOM     11  C   UNL     1       8.089   5.535  19.939  0.00  0.00    +0.000 C 
ATOM     12  C   UNL     1       7.143   5.869  18.821  0.00  0.00    +0.000 A 
ATOM     13  C   UNL     1       7.437   6.830  17.852  0.00  0.00    +0.000 A 
ATOM     14  C   UNL     1       6.453   7.214  16.945  0.00  0.00    +0.000 A 
ATOM     15  C   UNL     1       5.144   6.711  17.032  0.00  0.00    +0.000 A 
ATOM     16  C   UNL     1       4.815   5.760  18.003  0.00  0.00    +0.000 A 
ATOM     17  C   UNL     1       5.867   5.300  18.830  0.00  0.00    +0.000 A 
ENDBRANCH   1  16
BRANCH  10  18
ATOM     18  O   UNL     1       1.136   1.173  18.793  0.00  0.00    +0.000 OA
ATOM     19  H   UNL     1       1.750   0.575  18.340  0.00  0.00    +0.000 HD
ENDBRANCH  10  18
BRANCH   1  20
ATOM     20  C   UNL     1       2.574   6.708  18.108  0.00  0.00    +0.000 C 
BRANCH  20  21
ATOM     21  C   UNL     1       2.244   7.695  19.215  0.00  0.00    +0.000 C 
ATOM     22  O   UNL     1       2.436   7.432  20.404  0.00  0.00    +0.000 OA
ATOM     23  N   UNL     1       1.489   8.777  18.795  0.00  0.00    +0.000 N 
ATOM     24  C   UNL     1       0.848   9.714  19.723  0.00  0.00    +0.000 C 
ATOM     25  C   UNL     1       0.814  10.699  18.541  0.00  0.00    +0.000 C 
ATOM     26  C   UNL     1       2.002   9.890  17.975  0.00  0.00    +0.000 C 
BRANCH  25  27
ATOM     27  O   UNL     1      -0.396  10.715  17.741  0.00  0.00    +0.000 OA
ATOM     28  H   UNL     1      -0.764  11.608  17.872  0.00  0.00    +0.000 HD
ENDBRANCH  25  27
ENDBRANCH  20  21
ENDBRANCH   1  20
TORSDOF 5
ENDMDL
MODEL 9
REMARK VINA RESULT:      -7.9      0.688      1.418
REMARK  Name = 
REMARK  6 active torsions:
REMARK  status: ('A' for Active; 'I' for Inactive)
REMARK    1  A    between atoms: C_1  and  C_2
REMARK    2  A    between atoms: C_6  and  C_7
REMARK    3  A    between atoms: C_7  and  C_8
REMARK    4  A    between atoms: C_8  and  C_9
REMARK    5  A    between atoms: C_13  and  O_14
REMARK    6  A    between atoms: C_24  and  O_25
REMARK                            x       y       z     vdW  Elec       q    Type
REMARK                         _______ _______ _______ _____ _____    ______ ____
ROOT
ATOM      1  C   UNL     1       3.033   5.420  19.037  0.00  0.00    +0.000 C 
ATOM      2  C   UNL     1       3.144   4.210  20.072  0.00  0.00    +0.000 C 
ATOM      3  C   UNL     1       4.064   3.080  19.496  0.00  0.00    +0.000 C 
ATOM      4  C   UNL     1       3.482   2.515  18.186  0.00  0.00    +0.000 C 
ATOM      5  C   UNL     1       3.323   3.657  17.172  0.00  0.00    +0.000 C 
ATOM      6  C   UNL     1       2.415   4.763  17.741  0.00  0.00    +0.000 C 
ATOM      7  C   UNL     1       1.029   4.118  18.069  0.00  0.00    +0.000 C 
ATOM      8  C   UNL     1       1.181   2.965  19.078  0.00  0.00    +0.000 C 
ATOM      9  C   UNL     1       1.788   3.536  20.367  0.00  0.00    +0.000 C 
ATOM     10  C   UNL     1       2.100   1.895  18.457  0.00  0.00    +0.000 C 
ENDROOT
BRANCH   1  16
ATOM     11  C   UNL     1       1.866  10.115  17.841  0.00  0.00    +0.000 C 
ATOM     12  C   UNL     1       1.670   9.008  18.838  0.00  0.00    +0.000 A 
ATOM     13  C   UNL     1       1.239   9.242  20.145  0.00  0.00    +0.000 A 
ATOM     14  C   UNL     1       1.241   8.199  21.066  0.00  0.00    +0.000 A 
ATOM     15  C   UNL     1       1.742   6.930  20.731  0.00  0.00    +0.000 A 
ATOM     16  C   UNL     1       2.197   6.669  19.435  0.00  0.00    +0.000 A 
ATOM     17  C   UNL     1       2.067   7.714  18.489  0.00  0.00    +0.000 A 
ENDBRANCH   1  16
BRANCH  10  18
ATOM     18  O   UNL     1       2.198   0.738  19.282  0.00  0.00    +0.000 OA
ATOM     19  H   UNL     1       1.740  -0.005  18.860  0.00  0.00    +0.000 HD
ENDBRANCH  10  18
BRANCH   1  20
ATOM     20  C   UNL     1       4.498   6.010  18.986  0.00  0.00    +0.000 C 
BRANCH  20  21
ATOM     21  C   UNL     1       5.148   6.461  17.688  0.00  0.00    +0.000 C 
ATOM     22  O   UNL     1       5.009   7.605  17.251  0.00  0.00    +0.000 OA
ATOM     23  N   UNL     1       5.675   5.426  16.936  0.00  0.00    +0.000 N 
ATOM     24  C   UNL     1       6.122   5.591  15.549  0.00  0.00    +0.000 C 
ATOM     25  C   UNL     1       6.957   4.318  15.776  0.00  0.00    +0.000 C 
ATOM     26  C   UNL     1       6.903   4.682  17.275  0.00  0.00    +0.000 C 
BRANCH  25  27
ATOM     27  O   UNL     1       6.344   3.060  15.394  0.00  0.00    +0.000 OA
ATOM     28  H   UNL     1       5.941   3.238  14.525  0.00  0.00    +0.000 HD
ENDBRANCH  25  27
ENDBRANCH  20  21
ENDBRANCH   1  20
TORSDOF 5
ENDMDL
