MODEL 1
REMARK VINA RESULT:      -8.1      0.000      0.000
REMARK  Name = 
REMARK  6 active torsions:
REMARK  status: ('A' for Active; 'I' for Inactive)
REMARK    1  A    between atoms: C_1  and  C_2
REMARK    2  A    between atoms: C_5  and  C_6
REMARK    3  A    between atoms: C_6  and  O_7
REMARK    4  A    between atoms: O_7  and  C_8
REMARK    5  A    between atoms: N_13  and  C_14
REMARK    6  A    between atoms: N_17  and  C_18
REMARK                            x       y       z     vdW  Elec       q    Type
REMARK                         _______ _______ _______ _____ _____    ______ ____
ROOT
ATOM      1  C   UNL     1       2.781   5.997  18.141  0.00  0.00    +0.000 C 
ATOM      2  C   UNL     1       2.771   6.309  19.657  0.00  0.00    +0.000 C 
ATOM      3  N   UNL     1       2.264   7.624  19.289  0.00  0.00    +0.000 N 
ATOM      4  C   UNL     1       1.558   8.551  19.998  0.00  0.00    +0.000 C 
ATOM      5  O   UNL     1       1.185   8.369  21.152  0.00  0.00    +0.000 OA
ATOM      6  N   UNL     1       1.335   9.724  19.314  0.00  0.00    +0.000 N 
ATOM      7  C   UNL     1       2.742   7.531  17.925  0.00  0.00    +0.000 C 
ATOM      8  H   UNL     1       1.474   9.708  18.313  0.00  0.00    +0.000 HD
ENDROOT
BRANCH   6   9
ATOM      9  C   UNL     1       0.581  10.859  19.857  0.00  0.00    +0.000 C 
ATOM     10  C   UNL     1       0.811  12.110  18.984  0.00  0.00    +0.000 C 
ATOM     11  C   UNL     1      -0.580  12.572  18.543  0.00  0.00    +0.000 C 
ATOM     12  N   UNL     1      -1.351  11.332  18.571  0.00  0.00    +0.000 N 
ATOM     13  C   UNL     1      -0.956  10.646  19.813  0.00  0.00    +0.000 C 
BRANCH  12  14
ATOM     14  C   UNL     1      -2.729  11.445  18.344  0.00  0.00    +0.000 A 
ATOM     15  N   UNL     1      -3.493  12.099  19.260  0.00  0.00    +0.000 NA
ATOM     16  C   UNL     1      -4.816  12.265  19.002  0.00  0.00    +0.000 A 
ATOM     17  C   UNL     1      -5.442  11.820  17.854  0.00  0.00    +0.000 A 
ATOM     18  C   UNL     1      -4.668  11.160  16.910  0.00  0.00    +0.000 A 
ATOM     19  C   UNL     1      -3.304  10.962  17.149  0.00  0.00    +0.000 A 
ATOM     20 CL   UNL     1      -2.376  10.223  15.893  0.00  0.00    +0.000 Cl
ENDBRANCH  12  14
ENDBRANCH   6   9
BRANCH   1  21
ATOM     21  O   UNL     1       3.939   5.347  17.556  0.00  0.00    +0.000 OA
BRANCH  21  22
ATOM     22  C   UNL     1       5.094   6.148  17.307  0.00  0.00    +0.000 C 
BRANCH  22  27
ATOM     23  C   UNL     1       6.434   3.820  13.141  0.00  0.00    +0.000 C 
ATOM     24  C   UNL     1       6.443   4.655  14.357  0.00  0.00    +0.000 A 
ATOM     25  N   UNL     1       7.538   5.293  14.783  0.00  0.00    +0.000 NA
ATOM     26  O   UNL     1       7.102   5.933  15.948  0.00  0.00    +0.000 OA
ATOM     27  C   UNL     1       5.782   5.615  16.100  0.00  0.00    +0.000 A 
ATOM     28  N   UNL     1       5.331   4.822  15.147  0.00  0.00    +0.000 NA
ENDBRANCH  22  27
ENDBRANCH  21  22
ENDBRANCH   1  21
TORSDOF 5
ENDMDL
MODEL 2
REMARK VINA RESULT:      -7.8      1.301      1.521
REMARK  Name = 
REMARK  6 active torsions:
REMARK  status: ('A' for Active; 'I' for Inactive)
REMARK    1  A    between atoms: C_1  and  C_2
REMARK    2  A    between atoms: C_5  and  C_6
REMARK    3  A    between atoms: C_6  and  O_7
REMARK    4  A    between atoms: O_7  and  C_8
REMARK    5  A    between atoms: N_13  and  C_14
REMARK    6  A    between atoms: N_17  and  C_18
REMARK                            x       y       z     vdW  Elec       q    Type
REMARK                         _______ _______ _______ _____ _____    ______ ____
ROOT
ATOM      1  C   UNL     1       3.235   5.324  18.240  0.00  0.00    +0.000 C 
ATOM      2  C   UNL     1       3.147   5.631  19.755  0.00  0.00    +0.000 C 
ATOM      3  N   UNL     1       2.593   6.920  19.367  0.00  0.00    +0.000 N 
ATOM      4  C   UNL     1       1.813   7.810  20.048  0.00  0.00    +0.000 C 
ATOM      5  O   UNL     1       1.402   7.607  21.184  0.00  0.00    +0.000 OA
ATOM      6  N   UNL     1       1.562   8.973  19.356  0.00  0.00    +0.000 N 
ATOM      7  C   UNL     1       3.130   6.856  18.024  0.00  0.00    +0.000 C 
ATOM      8  H   UNL     1       1.744   8.967  18.362  0.00  0.00    +0.000 HD
ENDROOT
BRANCH   6   9
ATOM      9  C   UNL     1       0.732  10.068  19.868  0.00  0.00    +0.000 C 
ATOM     10  C   UNL     1       1.196  11.409  19.262  0.00  0.00    +0.000 C 
ATOM     11  C   UNL     1      -0.038  12.008  18.584  0.00  0.00    +0.000 C 
ATOM     12  N   UNL     1      -0.827  10.825  18.254  0.00  0.00    +0.000 N 
ATOM     13  C   UNL     1      -0.756   9.956  19.441  0.00  0.00    +0.000 C 
BRANCH  12  14
ATOM     14  C   UNL     1      -2.109  11.050  17.734  0.00  0.00    +0.000 A 
ATOM     15  N   UNL     1      -2.420  10.539  16.512  0.00  0.00    +0.000 NA
ATOM     16  C   UNL     1      -3.683  10.701  16.043  0.00  0.00    +0.000 A 
ATOM     17  C   UNL     1      -4.689  11.347  16.735  0.00  0.00    +0.000 A 
ATOM     18  C   UNL     1      -4.383  11.862  17.987  0.00  0.00    +0.000 A 
ATOM     19  C   UNL     1      -3.087  11.723  18.496  0.00  0.00    +0.000 A 
ATOM     20 CL   UNL     1      -2.796  12.298  20.099  0.00  0.00    +0.000 Cl
ENDBRANCH  12  14
ENDBRANCH   6   9
BRANCH   1  21
ATOM     21  O   UNL     1       4.447   4.733  17.703  0.00  0.00    +0.000 OA
BRANCH  21  22
ATOM     22  C   UNL     1       5.539   5.606  17.415  0.00  0.00    +0.000 C 
BRANCH  22  27
ATOM     23  C   UNL     1       6.423   3.794  12.887  0.00  0.00    +0.000 C 
ATOM     24  C   UNL     1       6.538   4.530  14.160  0.00  0.00    +0.000 A 
ATOM     25  N   UNL     1       7.606   5.274  14.467  0.00  0.00    +0.000 NA
ATOM     26  O   UNL     1       7.301   5.761  15.742  0.00  0.00    +0.000 OA
ATOM     27  C   UNL     1       6.072   5.260  16.070  0.00  0.00    +0.000 A 
ATOM     28  N   UNL     1       5.564   4.488  15.129  0.00  0.00    +0.000 NA
ENDBRANCH  22  27
ENDBRANCH  21  22
ENDBRANCH   1  21
TORSDOF 5
ENDMDL
MODEL 3
REMARK VINA RESULT:      -7.7      3.372      9.999
REMARK  Name = 
REMARK  6 active torsions:
REMARK  status: ('A' for Active; 'I' for Inactive)
REMARK    1  A    between atoms: C_1  and  C_2
REMARK    2  A    between atoms: C_5  and  C_6
REMARK    3  A    between atoms: C_6  and  O_7
REMARK    4  A    between atoms: O_7  and  C_8
REMARK    5  A    between atoms: N_13  and  C_14
REMARK    6  A    between atoms: N_17  and  C_18
REMARK                            x       y       z     vdW  Elec       q    Type
REMARK                         _______ _______ _______ _____ _____    ______ ____
ROOT
ATOM      1  C   UNL     1      -3.322  11.299  17.257  0.00  0.00    +0.000 C 
ATOM      2  C   UNL     1      -2.841  11.711  18.669  0.00  0.00    +0.000 C 
ATOM      3  N   UNL     1      -1.750  10.766  18.472  0.00  0.00    +0.000 N 
ATOM      4  C   UNL     1      -0.517  10.677  19.050  0.00  0.00    +0.000 C 
ATOM      5  O   UNL     1      -0.104  11.485  19.874  0.00  0.00    +0.000 OA
ATOM      6  N   UNL     1       0.205   9.575  18.652  0.00  0.00    +0.000 N 
ATOM      7  C   UNL     1      -2.445  10.033  17.435  0.00  0.00    +0.000 C 
ATOM      8  H   UNL     1      -0.107   9.094  17.819  0.00  0.00    +0.000 HD
ENDROOT
BRANCH   6   9
ATOM      9  C   UNL     1       1.564   9.275  19.115  0.00  0.00    +0.000 C 
ATOM     10  C   UNL     1       1.508   8.341  20.342  0.00  0.00    +0.000 C 
ATOM     11  C   UNL     1       2.346   7.115  19.970  0.00  0.00    +0.000 C 
ATOM     12  N   UNL     1       2.240   7.086  18.514  0.00  0.00    +0.000 N 
ATOM     13  C   UNL     1       2.402   8.484  18.076  0.00  0.00    +0.000 C 
BRANCH  12  14
ATOM     14  C   UNL     1       3.027   6.139  17.846  0.00  0.00    +0.000 A 
ATOM     15  N   UNL     1       4.199   6.539  17.284  0.00  0.00    +0.000 NA
ATOM     16  C   UNL     1       4.991   5.605  16.698  0.00  0.00    +0.000 A 
ATOM     17  C   UNL     1       4.688   4.258  16.644  0.00  0.00    +0.000 A 
ATOM     18  C   UNL     1       3.499   3.840  17.225  0.00  0.00    +0.000 A 
ATOM     19  C   UNL     1       2.654   4.778  17.827  0.00  0.00    +0.000 A 
ATOM     20 CL   UNL     1       1.238   4.182  18.617  0.00  0.00    +0.000 Cl
ENDBRANCH  12  14
ENDBRANCH   6   9
BRANCH   1  21
ATOM     21  O   UNL     1      -4.729  11.018  17.037  0.00  0.00    +0.000 OA
BRANCH  21  22
ATOM     22  C   UNL     1      -5.681  11.845  17.706  0.00  0.00    +0.000 C 
BRANCH  22  27
ATOM     23  C   UNL     1      -7.864   8.492  20.634  0.00  0.00    +0.000 C 
ATOM     24  C   UNL     1      -7.206   9.714  20.132  0.00  0.00    +0.000 A 
ATOM     25  N   UNL     1      -6.995  10.785  20.904  0.00  0.00    +0.000 NA
ATOM     26  O   UNL     1      -6.376  11.689  20.034  0.00  0.00    +0.000 OA
ATOM     27  C   UNL     1      -6.275  11.062  18.824  0.00  0.00    +0.000 A 
ATOM     28  N   UNL     1      -6.781   9.844  18.832  0.00  0.00    +0.000 NA
ENDBRANCH  22  27
ENDBRANCH  21  22
ENDBRANCH   1  21
TORSDOF 5
ENDMDL
MODEL 4
REMARK VINA RESULT:      -7.5      2.900      3.382
REMARK  Name = 
REMARK  6 active torsions:
REMARK  status: ('A' for Active; 'I' for Inactive)
REMARK    1  A    between atoms: C_1  and  C_2
REMARK    2  A    between atoms: C_5  and  C_6
REMARK    3  A    between atoms: C_6  and  O_7
REMARK    4  A    between atoms: O_7  and  C_8
REMARK    5  A    between atoms: N_13  and  C_14
REMARK    6  A    between atoms: N_17  and  C_18
REMARK                            x       y       z     vdW  Elec       q    Type
REMARK                         _______ _______ _______ _____ _____    ______ ____
ROOT
ATOM      1  C   UNL     1       4.428   4.569  18.519  0.00  0.00    +0.000 C 
ATOM      2  C   UNL     1       3.519   4.017  19.645  0.00  0.00    +0.000 C 
ATOM      3  N   UNL     1       3.068   5.389  19.827  0.00  0.00    +0.000 N 
ATOM      4  C   UNL     1       1.929   5.901  20.377  0.00  0.00    +0.000 C 
ATOM      5  O   UNL     1       1.020   5.199  20.806  0.00  0.00    +0.000 OA
ATOM      6  N   UNL     1       1.910   7.275  20.441  0.00  0.00    +0.000 N 
ATOM      7  C   UNL     1       4.230   5.959  19.176  0.00  0.00    +0.000 C 
ATOM      8  H   UNL     1       2.582   7.773  19.873  0.00  0.00    +0.000 HD
ENDROOT
BRANCH   6   9
ATOM      9  C   UNL     1       0.786   8.056  20.969  0.00  0.00    +0.000 C 
ATOM     10  C   UNL     1       1.209   8.779  22.264  0.00  0.00    +0.000 C 
ATOM     11  C   UNL     1       0.937  10.266  22.017  0.00  0.00    +0.000 C 
ATOM     12  N   UNL     1       1.052  10.374  20.565  0.00  0.00    +0.000 N 
ATOM     13  C   UNL     1       0.342   9.202  20.022  0.00  0.00    +0.000 C 
BRANCH  12  14
ATOM     14  C   UNL     1       0.716  11.611  20.000  0.00  0.00    +0.000 A 
ATOM     15  N   UNL     1      -0.141  12.427  20.670  0.00  0.00    +0.000 NA
ATOM     16  C   UNL     1      -0.410  13.653  20.152  0.00  0.00    +0.000 A 
ATOM     17  C   UNL     1       0.144  14.137  18.983  0.00  0.00    +0.000 A 
ATOM     18  C   UNL     1       1.028  13.315  18.298  0.00  0.00    +0.000 A 
ATOM     19  C   UNL     1       1.318  12.041  18.798  0.00  0.00    +0.000 A 
ATOM     20 CL   UNL     1       2.499  11.105  17.954  0.00  0.00    +0.000 Cl
ENDBRANCH  12  14
ENDBRANCH   6   9
BRANCH   1  21
ATOM     21  O   UNL     1       5.813   4.140  18.448  0.00  0.00    +0.000 OA
BRANCH  21  22
ATOM     22  C   UNL     1       6.764   5.059  17.910  0.00  0.00    +0.000 C 
BRANCH  22  27
ATOM     23  C   UNL     1       6.194   3.650  13.192  0.00  0.00    +0.000 C 
ATOM     24  C   UNL     1       6.606   4.375  14.409  0.00  0.00    +0.000 A 
ATOM     25  N   UNL     1       7.448   5.413  14.378  0.00  0.00    +0.000 NA
ATOM     26  O   UNL     1       7.566   5.771  15.724  0.00  0.00    +0.000 OA
ATOM     27  C   UNL     1       6.775   4.908  16.430  0.00  0.00    +0.000 A 
ATOM     28  N   UNL     1       6.167   4.023  15.663  0.00  0.00    +0.000 NA
ENDBRANCH  22  27
ENDBRANCH  21  22
ENDBRANCH   1  21
TORSDOF 5
ENDMDL
MODEL 5
REMARK VINA RESULT:      -7.4      2.182      3.102
REMARK  Name = 
REMARK  6 active torsions:
REMARK  status: ('A' for Active; 'I' for Inactive)
REMARK    1  A    between atoms: C_1  and  C_2
REMARK    2  A    between atoms: C_5  and  C_6
REMARK    3  A    between atoms: C_6  and  O_7
REMARK    4  A    between atoms: O_7  and  C_8
REMARK    5  A    between atoms: N_13  and  C_14
REMARK    6  A    between atoms: N_17  and  C_18
REMARK                            x       y       z     vdW  Elec       q    Type
REMARK                         _______ _______ _______ _____ _____    ______ ____
ROOT
ATOM      1  C   UNL     1       4.718   4.566  18.498  0.00  0.00    +0.000 C 
ATOM      2  C   UNL     1       3.662   3.864  19.386  0.00  0.00    +0.000 C 
ATOM      3  N   UNL     1       3.279   5.199  19.823  0.00  0.00    +0.000 N 
ATOM      4  C   UNL     1       2.120   5.673  20.366  0.00  0.00    +0.000 C 
ATOM      5  O   UNL     1       1.129   4.974  20.545  0.00  0.00    +0.000 OA
ATOM      6  N   UNL     1       2.178   7.000  20.730  0.00  0.00    +0.000 N 
ATOM      7  C   UNL     1       4.536   5.795  19.424  0.00  0.00    +0.000 C 
ATOM      8  H   UNL     1       2.936   7.550  20.349  0.00  0.00    +0.000 HD
ENDROOT
BRANCH   6   9
ATOM      9  C   UNL     1       1.053   7.740  21.311  0.00  0.00    +0.000 C 
ATOM     10  C   UNL     1       1.578   8.938  22.129  0.00  0.00    +0.000 C 
ATOM     11  C   UNL     1       0.900  10.175  21.536  0.00  0.00    +0.000 C 
ATOM     12  N   UNL     1       0.639   9.767  20.158  0.00  0.00    +0.000 N 
ATOM     13  C   UNL     1       0.132   8.386  20.243  0.00  0.00    +0.000 C 
BRANCH  12  14
ATOM     14  C   UNL     1      -0.113  10.651  19.374  0.00  0.00    +0.000 A 
ATOM     15  N   UNL     1      -1.384  10.306  19.033  0.00  0.00    +0.000 NA
ATOM     16  C   UNL     1      -2.132  11.195  18.331  0.00  0.00    +0.000 A 
ATOM     17  C   UNL     1      -1.689  12.445  17.945  0.00  0.00    +0.000 A 
ATOM     18  C   UNL     1      -0.397  12.809  18.297  0.00  0.00    +0.000 A 
ATOM     19  C   UNL     1       0.406  11.912  19.011  0.00  0.00    +0.000 A 
ATOM     20 CL   UNL     1       1.967  12.461  19.505  0.00  0.00    +0.000 Cl
ENDBRANCH  12  14
ENDBRANCH   6   9
BRANCH   1  21
ATOM     21  O   UNL     1       6.074   4.049  18.460  0.00  0.00    +0.000 OA
BRANCH  21  22
ATOM     22  C   UNL     1       7.083   4.875  17.878  0.00  0.00    +0.000 C 
BRANCH  22  27
ATOM     23  C   UNL     1       6.140   3.641  13.171  0.00  0.00    +0.000 C 
ATOM     24  C   UNL     1       6.629   4.335  14.378  0.00  0.00    +0.000 A 
ATOM     25  N   UNL     1       7.411   5.417  14.319  0.00  0.00    +0.000 NA
ATOM     26  O   UNL     1       7.638   5.722  15.665  0.00  0.00    +0.000 OA
ATOM     27  C   UNL     1       6.961   4.788  16.398  0.00  0.00    +0.000 A 
ATOM     28  N   UNL     1       6.329   3.905  15.649  0.00  0.00    +0.000 NA
ENDBRANCH  22  27
ENDBRANCH  21  22
ENDBRANCH   1  21
TORSDOF 5
ENDMDL
MODEL 6
REMARK VINA RESULT:      -7.2      2.054      2.841
REMARK  Name = 
REMARK  6 active torsions:
REMARK  status: ('A' for Active; 'I' for Inactive)
REMARK    1  A    between atoms: C_1  and  C_2
REMARK    2  A    between atoms: C_5  and  C_6
REMARK    3  A    between atoms: C_6  and  O_7
REMARK    4  A    between atoms: O_7  and  C_8
REMARK    5  A    between atoms: N_13  and  C_14
REMARK    6  A    between atoms: N_17  and  C_18
REMARK                            x       y       z     vdW  Elec       q    Type
REMARK                         _______ _______ _______ _____ _____    ______ ____
ROOT
ATOM      1  C   UNL     1       2.806   6.458  18.005  0.00  0.00    +0.000 C 
ATOM      2  C   UNL     1       2.628   6.674  19.528  0.00  0.00    +0.000 C 
ATOM      3  N   UNL     1       2.154   8.009  19.190  0.00  0.00    +0.000 N 
ATOM      4  C   UNL     1       1.367   8.889  19.874  0.00  0.00    +0.000 C 
ATOM      5  O   UNL     1       0.872   8.634  20.966  0.00  0.00    +0.000 OA
ATOM      6  N   UNL     1       1.212  10.103  19.245  0.00  0.00    +0.000 N 
ATOM      7  C   UNL     1       2.779   8.003  17.884  0.00  0.00    +0.000 C 
ATOM      8  H   UNL     1       1.460  10.150  18.266  0.00  0.00    +0.000 HD
ENDROOT
BRANCH   6   9
ATOM      9  C   UNL     1       0.394  11.200  19.771  0.00  0.00    +0.000 C 
ATOM     10  C   UNL     1       0.560  12.452  18.886  0.00  0.00    +0.000 C 
ATOM     11  C   UNL     1      -0.852  12.832  18.434  0.00  0.00    +0.000 C 
ATOM     12  N   UNL     1      -1.555  11.552  18.473  0.00  0.00    +0.000 N 
ATOM     13  C   UNL     1      -1.128  10.903  19.724  0.00  0.00    +0.000 C 
BRANCH  12  14
ATOM     14  C   UNL     1      -2.936  11.587  18.239  0.00  0.00    +0.000 A 
ATOM     15  N   UNL     1      -3.751  12.097  19.201  0.00  0.00    +0.000 NA
ATOM     16  C   UNL     1      -5.080  12.192  18.942  0.00  0.00    +0.000 A 
ATOM     17  C   UNL     1      -5.666  11.812  17.750  0.00  0.00    +0.000 A 
ATOM     18  C   UNL     1      -4.840  11.299  16.760  0.00  0.00    +0.000 A 
ATOM     19  C   UNL     1      -3.467  11.177  16.997  0.00  0.00    +0.000 A 
ATOM     20 CL   UNL     1      -2.479  10.626  15.691  0.00  0.00    +0.000 Cl
ENDBRANCH  12  14
ENDBRANCH   6   9
BRANCH   1  21
ATOM     21  O   UNL     1       4.026   5.847  17.511  0.00  0.00    +0.000 OA
BRANCH  21  22
ATOM     22  C   UNL     1       3.917   4.580  16.862  0.00  0.00    +0.000 C 
BRANCH  22  27
ATOM     23  C   UNL     1       4.722   1.654  20.781  0.00  0.00    +0.000 C 
ATOM     24  C   UNL     1       4.202   2.210  19.517  0.00  0.00    +0.000 A 
ATOM     25  N   UNL     1       3.315   1.561  18.757  0.00  0.00    +0.000 NA
ATOM     26  O   UNL     1       3.121   2.429  17.678  0.00  0.00    +0.000 OA
ATOM     27  C   UNL     1       3.914   3.519  17.905  0.00  0.00    +0.000 A 
ATOM     28  N   UNL     1       4.607   3.428  19.024  0.00  0.00    +0.000 NA
ENDBRANCH  22  27
ENDBRANCH  21  22
ENDBRANCH   1  21
TORSDOF 5
ENDMDL
MODEL 7
REMARK VINA RESULT:      -6.9      2.953      3.772
REMARK  Name = 
REMARK  6 active torsions:
REMARK  status: ('A' for Active; 'I' for Inactive)
REMARK    1  A    between atoms: C_1  and  C_2
REMARK    2  A    between atoms: C_5  and  C_6
REMARK    3  A    between atoms: C_6  and  O_7
REMARK    4  A    between atoms: O_7  and  C_8
REMARK    5  A    between atoms: N_13  and  C_14
REMARK    6  A    between atoms: N_17  and  C_18
REMARK                            x       y       z     vdW  Elec       q    Type
REMARK                         _______ _______ _______ _____ _____    ______ ____
ROOT
ATOM      1  C   UNL     1       3.355   5.794  19.561  0.00  0.00    +0.000 C 
ATOM      2  C   UNL     1       2.965   6.245  18.132  0.00  0.00    +0.000 C 
ATOM      3  N   UNL     1       2.283   7.362  18.770  0.00  0.00    +0.000 N 
ATOM      4  C   UNL     1       1.920   8.589  18.296  0.00  0.00    +0.000 C 
ATOM      5  O   UNL     1       2.176   8.970  17.159  0.00  0.00    +0.000 OA
ATOM      6  N   UNL     1       1.206   9.345  19.197  0.00  0.00    +0.000 N 
ATOM      7  C   UNL     1       2.199   6.701  20.055  0.00  0.00    +0.000 C 
ATOM      8  H   UNL     1       1.233   9.057  20.166  0.00  0.00    +0.000 HD
ENDROOT
BRANCH   6   9
ATOM      9  C   UNL     1       0.726  10.705  18.928  0.00  0.00    +0.000 C 
ATOM     10  C   UNL     1      -0.615  10.649  18.167  0.00  0.00    +0.000 C 
ATOM     11  C   UNL     1      -1.608  11.448  19.015  0.00  0.00    +0.000 C 
ATOM     12  N   UNL     1      -1.059  11.313  20.361  0.00  0.00    +0.000 N 
ATOM     13  C   UNL     1       0.396  11.501  20.218  0.00  0.00    +0.000 C 
BRANCH  12  14
ATOM     14  C   UNL     1      -1.678  12.062  21.370  0.00  0.00    +0.000 A 
ATOM     15  N   UNL     1      -2.375  13.178  21.024  0.00  0.00    +0.000 NA
ATOM     16  C   UNL     1      -3.030  13.862  21.996  0.00  0.00    +0.000 A 
ATOM     17  C   UNL     1      -3.047  13.491  23.326  0.00  0.00    +0.000 A 
ATOM     18  C   UNL     1      -2.348  12.348  23.686  0.00  0.00    +0.000 A 
ATOM     19  C   UNL     1      -1.652  11.625  22.712  0.00  0.00    +0.000 A 
ATOM     20 CL   UNL     1      -0.883  10.159  23.205  0.00  0.00    +0.000 Cl
ENDBRANCH  12  14
ENDBRANCH   6   9
BRANCH   1  21
ATOM     21  O   UNL     1       3.212   4.398  19.931  0.00  0.00    +0.000 OA
BRANCH  21  22
ATOM     22  C   UNL     1       4.204   3.484  19.464  0.00  0.00    +0.000 C 
BRANCH  22  27
ATOM     23  C   UNL     1       8.081   6.503  18.811  0.00  0.00    +0.000 C 
ATOM     24  C   UNL     1       6.992   5.535  18.583  0.00  0.00    +0.000 A 
ATOM     25  N   UNL     1       6.714   5.036  17.374  0.00  0.00    +0.000 NA
ATOM     26  O   UNL     1       5.625   4.193  17.619  0.00  0.00    +0.000 OA
ATOM     27  C   UNL     1       5.362   4.270  18.958  0.00  0.00    +0.000 A 
ATOM     28  N   UNL     1       6.174   5.091  19.595  0.00  0.00    +0.000 NA
ENDBRANCH  22  27
ENDBRANCH  21  22
ENDBRANCH   1  21
TORSDOF 5
ENDMDL
MODEL 8
REMARK VINA RESULT:      -6.9      2.803      3.473
REMARK  Name = 
REMARK  6 active torsions:
REMARK  status: ('A' for Active; 'I' for Inactive)
REMARK    1  A    between atoms: C_1  and  C_2
REMARK    2  A    between atoms: C_5  and  C_6
REMARK    3  A    between atoms: C_6  and  O_7
REMARK    4  A    between atoms: O_7  and  C_8
REMARK    5  A    between atoms: N_13  and  C_14
REMARK    6  A    between atoms: N_17  and  C_18
REMARK                            x       y       z     vdW  Elec       q    Type
REMARK                         _______ _______ _______ _____ _____    ______ ____
ROOT
ATOM      1  C   UNL     1       4.505   4.648  18.207  0.00  0.00    +0.000 C 
ATOM      2  C   UNL     1       3.798   4.303  19.541  0.00  0.00    +0.000 C 
ATOM      3  N   UNL     1       3.243   5.648  19.487  0.00  0.00    +0.000 N 
ATOM      4  C   UNL     1       2.136   6.193  20.071  0.00  0.00    +0.000 C 
ATOM      5  O   UNL     1       1.358   5.546  20.763  0.00  0.00    +0.000 OA
ATOM      6  N   UNL     1       1.993   7.542  19.842  0.00  0.00    +0.000 N 
ATOM      7  C   UNL     1       4.256   6.133  18.574  0.00  0.00    +0.000 C 
ATOM      8  H   UNL     1       2.539   7.944  19.092  0.00  0.00    +0.000 HD
ENDROOT
BRANCH   6   9
ATOM      9  C   UNL     1       0.872   8.344  20.344  0.00  0.00    +0.000 C 
ATOM     10  C   UNL     1       1.208   8.901  21.743  0.00  0.00    +0.000 C 
ATOM     11  C   UNL     1       1.055  10.420  21.633  0.00  0.00    +0.000 C 
ATOM     12  N   UNL     1       1.321  10.666  20.218  0.00  0.00    +0.000 N 
ATOM     13  C   UNL     1       0.598   9.610  19.489  0.00  0.00    +0.000 C 
BRANCH  12  14
ATOM     14  C   UNL     1       1.120  11.975  19.761  0.00  0.00    +0.000 A 
ATOM     15  N   UNL     1       2.167  12.644  19.206  0.00  0.00    +0.000 NA
ATOM     16  C   UNL     1       1.952  13.885  18.703  0.00  0.00    +0.000 A 
ATOM     17  C   UNL     1       0.724  14.519  18.705  0.00  0.00    +0.000 A 
ATOM     18  C   UNL     1      -0.352  13.840  19.260  0.00  0.00    +0.000 A 
ATOM     19  C   UNL     1      -0.162  12.563  19.798  0.00  0.00    +0.000 A 
ATOM     20 CL   UNL     1      -1.558  11.731  20.384  0.00  0.00    +0.000 Cl
ENDBRANCH  12  14
ENDBRANCH   6   9
BRANCH   1  21
ATOM     21  O   UNL     1       5.905   4.307  18.034  0.00  0.00    +0.000 OA
BRANCH  21  22
ATOM     22  C   UNL     1       6.758   5.289  17.446  0.00  0.00    +0.000 C 
BRANCH  22  27
ATOM     23  C   UNL     1       6.273   3.615  12.806  0.00  0.00    +0.000 C 
ATOM     24  C   UNL     1       6.690   4.387  13.992  0.00  0.00    +0.000 A 
ATOM     25  N   UNL     1       7.609   5.356  13.933  0.00  0.00    +0.000 NA
ATOM     26  O   UNL     1       7.699   5.792  15.258  0.00  0.00    +0.000 OA
ATOM     27  C   UNL     1       6.817   5.039  15.980  0.00  0.00    +0.000 A 
ATOM     28  N   UNL     1       6.175   4.152  15.245  0.00  0.00    +0.000 NA
ENDBRANCH  22  27
ENDBRANCH  21  22
ENDBRANCH   1  21
TORSDOF 5
ENDMDL
MODEL 9
REMARK VINA RESULT:      -6.9      1.959      2.675
REMARK  Name = 
REMARK  6 active torsions:
REMARK  status: ('A' for Active; 'I' for Inactive)
REMARK    1  A    between atoms: C_1  and  C_2
REMARK    2  A    between atoms: C_5  and  C_6
REMARK    3  A    between atoms: C_6  and  O_7
REMARK    4  A    between atoms: O_7  and  C_8
REMARK    5  A    between atoms: N_13  and  C_14
REMARK    6  A    between atoms: N_17  and  C_18
REMARK                            x       y       z     vdW  Elec       q    Type
REMARK                         _______ _______ _______ _____ _____    ______ ____
ROOT
ATOM      1  C   UNL     1       3.110   4.282  17.537  0.00  0.00    +0.000 C 
ATOM      2  C   UNL     1       3.414   3.979  19.025  0.00  0.00    +0.000 C 
ATOM      3  N   UNL     1       2.758   5.245  19.321  0.00  0.00    +0.000 N 
ATOM      4  C   UNL     1       2.169   5.712  20.459  0.00  0.00    +0.000 C 
ATOM      5  O   UNL     1       2.070   5.046  21.484  0.00  0.00    +0.000 OA
ATOM      6  N   UNL     1       1.730   7.013  20.365  0.00  0.00    +0.000 N 
ATOM      7  C   UNL     1       2.930   5.757  17.977  0.00  0.00    +0.000 C 
ATOM      8  H   UNL     1       1.646   7.406  19.437  0.00  0.00    +0.000 HD
ENDROOT
BRANCH   6   9
ATOM      9  C   UNL     1       1.044   7.727  21.447  0.00  0.00    +0.000 C 
ATOM     10  C   UNL     1       1.927   8.885  21.956  0.00  0.00    +0.000 C 
ATOM     11  C   UNL     1       1.077  10.150  21.816  0.00  0.00    +0.000 C 
ATOM     12  N   UNL     1       0.173   9.807  20.721  0.00  0.00    +0.000 N 
ATOM     13  C   UNL     1      -0.263   8.424  20.985  0.00  0.00    +0.000 C 
BRANCH  12  14
ATOM     14  C   UNL     1      -0.843  10.727  20.435  0.00  0.00    +0.000 A 
ATOM     15  N   UNL     1      -1.292  11.539  21.430  0.00  0.00    +0.000 NA
ATOM     16  C   UNL     1      -2.229  12.475  21.131  0.00  0.00    +0.000 A 
ATOM     17  C   UNL     1      -2.754  12.669  19.868  0.00  0.00    +0.000 A 
ATOM     18  C   UNL     1      -2.294  11.852  18.845  0.00  0.00    +0.000 A 
ATOM     19  C   UNL     1      -1.338  10.869  19.120  0.00  0.00    +0.000 A 
ATOM     20 CL   UNL     1      -0.734   9.951  17.787  0.00  0.00    +0.000 Cl
ENDBRANCH  12  14
ENDBRANCH   6   9
BRANCH   1  21
ATOM     21  O   UNL     1       4.149   4.084  16.543  0.00  0.00    +0.000 OA
BRANCH  21  22
ATOM     22  C   UNL     1       5.420   4.689  16.783  0.00  0.00    +0.000 C 
BRANCH  22  27
ATOM     23  C   UNL     1       7.164   4.145  12.175  0.00  0.00    +0.000 C 
ATOM     24  C   UNL     1       6.967   4.595  13.567  0.00  0.00    +0.000 A 
ATOM     25  N   UNL     1       7.781   5.474  14.161  0.00  0.00    +0.000 NA
ATOM     26  O   UNL     1       7.241   5.593  15.445  0.00  0.00    +0.000 OA
ATOM     27  C   UNL     1       6.150   4.771  15.490  0.00  0.00    +0.000 A 
ATOM     28  N   UNL     1       5.944   4.127  14.357  0.00  0.00    +0.000 NA
ENDBRANCH  22  27
ENDBRANCH  21  22
ENDBRANCH   1  21
TORSDOF 5
ENDMDL
