MODEL 1
REMARK VINA RESULT:      -7.0      0.000      0.000
REMARK  Name = 
REMARK  7 active torsions:
REMARK  status: ('A' for Active; 'I' for Inactive)
REMARK    1  A    between atoms: C_2  and  C_3
REMARK    2  A    between atoms: C_3  and  O_4
REMARK    3  A    between atoms: O_4  and  C_5
REMARK    4  A    between atoms: C_7  and  C_8
REMARK    5  A    between atoms: C_11  and  N_12
REMARK    6  A    between atoms: C_13  and  C_15
REMARK    7  A    between atoms: C_20  and  C_21
REMARK                            x       y       z     vdW  Elec       q    Type
REMARK                         _______ _______ _______ _____ _____    ______ ____
ROOT
ATOM      1  C   UNL     1       4.723   4.548  19.195  0.00  0.00    +0.000 A 
ATOM      2  N   UNL     1       4.166   5.770  19.012  0.00  0.00    +0.000 NA
ATOM      3  C   UNL     1       2.872   5.927  19.350  0.00  0.00    +0.000 A 
ATOM      4  N   UNL     1       2.099   4.929  19.829  0.00  0.00    +0.000 NA
ATOM      5  C   UNL     1       2.672   3.718  20.002  0.00  0.00    +0.000 A 
ATOM      6  C   UNL     1       1.753   2.636  20.494  0.00  0.00    +0.000 C 
ATOM      7  C   UNL     1       4.014   3.478  19.737  0.00  0.00    +0.000 A 
ATOM      8 CL   UNL     1       4.691   1.945  20.162  0.00  0.00    +0.000 Cl
ENDROOT
BRANCH   3   9
ATOM      9  C   UNL     1       2.245   7.274  19.275  0.00  0.00    +0.000 A 
ATOM     10  C   UNL     1       2.271   8.006  18.082  0.00  0.00    +0.000 A 
ATOM     11  C   UNL     1       1.700   9.280  18.023  0.00  0.00    +0.000 A 
ATOM     12  C   UNL     1       1.117   9.830  19.155  0.00  0.00    +0.000 A 
ATOM     13  C   UNL     1       1.128   9.038  20.305  0.00  0.00    +0.000 A 
ATOM     14  N   UNL     1       1.664   7.790  20.392  0.00  0.00    +0.000 NA
BRANCH  12  15
ATOM     15  N   UNL     1       0.532  11.113  19.209  0.00  0.00    +0.000 N 
ATOM     16  C   UNL     1      -0.796  11.442  18.981  0.00  0.00    +0.000 C 
ATOM     17  O   UNL     1      -1.698  10.641  18.746  0.00  0.00    +0.000 OA
ATOM     18  H   UNL     1       1.157  11.897  19.379  0.00  0.00    +0.000 HD
BRANCH  16  19
ATOM     19  C   UNL     1      -1.133  12.918  19.137  0.00  0.00    +0.000 C 
ATOM     20 CL   UNL     1       0.175  13.968  18.545  0.00  0.00    +0.000 Cl
ENDBRANCH  16  19
ENDBRANCH  12  15
ENDBRANCH   3   9
BRANCH   1  21
ATOM     21  O   UNL     1       6.051   4.545  18.847  0.00  0.00    +0.000 OA
BRANCH  21  22
ATOM     22  C   UNL     1       6.892   5.481  19.516  0.00  0.00    +0.000 C 
BRANCH  22  24
ATOM     23  C   UNL     1       7.301   6.564  17.293  0.00  0.00    +0.000 C 
ATOM     24  C   UNL     1       7.728   6.220  18.516  0.00  0.00    +0.000 C 
ENDBRANCH  22  24
ENDBRANCH  21  22
ENDBRANCH   1  21
TORSDOF 6
ENDMDL
MODEL 2
REMARK VINA RESULT:      -7.0      0.974      1.005
REMARK  Name = 
REMARK  7 active torsions:
REMARK  status: ('A' for Active; 'I' for Inactive)
REMARK    1  A    between atoms: C_2  and  C_3
REMARK    2  A    between atoms: C_3  and  O_4
REMARK    3  A    between atoms: O_4  and  C_5
REMARK    4  A    between atoms: C_7  and  C_8
REMARK    5  A    between atoms: C_11  and  N_12
REMARK    6  A    between atoms: C_13  and  C_15
REMARK    7  A    between atoms: C_20  and  C_21
REMARK                            x       y       z     vdW  Elec       q    Type
REMARK                         _______ _______ _______ _____ _____    ______ ____
ROOT
ATOM      1  C   UNL     1       4.726   4.319  19.261  0.00  0.00    +0.000 A 
ATOM      2  N   UNL     1       4.213   5.547  19.009  0.00  0.00    +0.000 NA
ATOM      3  C   UNL     1       2.929   5.774  19.350  0.00  0.00    +0.000 A 
ATOM      4  N   UNL     1       2.126   4.837  19.898  0.00  0.00    +0.000 NA
ATOM      5  C   UNL     1       2.656   3.618  20.140  0.00  0.00    +0.000 A 
ATOM      6  C   UNL     1       1.704   2.604  20.708  0.00  0.00    +0.000 C 
ATOM      7  C   UNL     1       3.985   3.311  19.875  0.00  0.00    +0.000 A 
ATOM      8 CL   UNL     1       4.609   1.783  20.388  0.00  0.00    +0.000 Cl
ENDROOT
BRANCH   3   9
ATOM      9  C   UNL     1       2.352   7.136  19.199  0.00  0.00    +0.000 A 
ATOM     10  C   UNL     1       2.442   7.816  17.978  0.00  0.00    +0.000 A 
ATOM     11  C   UNL     1       1.917   9.105  17.848  0.00  0.00    +0.000 A 
ATOM     12  C   UNL     1       1.318   9.721  18.936  0.00  0.00    +0.000 A 
ATOM     13  C   UNL     1       1.265   8.979  20.118  0.00  0.00    +0.000 A 
ATOM     14  N   UNL     1       1.753   7.718  20.274  0.00  0.00    +0.000 NA
BRANCH  12  15
ATOM     15  N   UNL     1       0.776  11.024  18.917  0.00  0.00    +0.000 N 
ATOM     16  C   UNL     1      -0.549  11.381  18.709  0.00  0.00    +0.000 C 
ATOM     17  O   UNL     1      -1.482  10.597  18.561  0.00  0.00    +0.000 OA
ATOM     18  H   UNL     1       1.431  11.796  19.012  0.00  0.00    +0.000 HD
BRANCH  16  19
ATOM     19  C   UNL     1      -0.832  12.875  18.771  0.00  0.00    +0.000 C 
ATOM     20 CL   UNL     1      -1.954  13.290  20.086  0.00  0.00    +0.000 Cl
ENDBRANCH  16  19
ENDBRANCH  12  15
ENDBRANCH   3   9
BRANCH   1  21
ATOM     21  O   UNL     1       6.048   4.244  18.900  0.00  0.00    +0.000 OA
BRANCH  21  22
ATOM     22  C   UNL     1       6.542   5.276  18.052  0.00  0.00    +0.000 C 
BRANCH  22  24
ATOM     23  C   UNL     1       6.832   4.522  15.679  0.00  0.00    +0.000 C 
ATOM     24  C   UNL     1       7.318   4.677  16.918  0.00  0.00    +0.000 C 
ENDBRANCH  22  24
ENDBRANCH  21  22
ENDBRANCH   1  21
TORSDOF 6
ENDMDL
MODEL 3
REMARK VINA RESULT:      -6.9      1.300      1.335
REMARK  Name = 
REMARK  7 active torsions:
REMARK  status: ('A' for Active; 'I' for Inactive)
REMARK    1  A    between atoms: C_2  and  C_3
REMARK    2  A    between atoms: C_3  and  O_4
REMARK    3  A    between atoms: O_4  and  C_5
REMARK    4  A    between atoms: C_7  and  C_8
REMARK    5  A    between atoms: C_11  and  N_12
REMARK    6  A    between atoms: C_13  and  C_15
REMARK    7  A    between atoms: C_20  and  C_21
REMARK                            x       y       z     vdW  Elec       q    Type
REMARK                         _______ _______ _______ _____ _____    ______ ____
ROOT
ATOM      1  C   UNL     1       4.680   4.565  19.373  0.00  0.00    +0.000 A 
ATOM      2  N   UNL     1       4.168   5.795  19.125  0.00  0.00    +0.000 NA
ATOM      3  C   UNL     1       2.850   5.980  19.328  0.00  0.00    +0.000 A 
ATOM      4  N   UNL     1       2.012   5.001  19.733  0.00  0.00    +0.000 NA
ATOM      5  C   UNL     1       2.541   3.781  19.973  0.00  0.00    +0.000 A 
ATOM      6  C   UNL     1       1.556   2.721  20.377  0.00  0.00    +0.000 C 
ATOM      7  C   UNL     1       3.898   3.513  19.847  0.00  0.00    +0.000 A 
ATOM      8 CL   UNL     1       4.498   1.972  20.351  0.00  0.00    +0.000 Cl
ENDROOT
BRANCH   3   9
ATOM      9  C   UNL     1       2.260   7.337  19.179  0.00  0.00    +0.000 A 
ATOM     10  C   UNL     1       2.317   8.007  17.951  0.00  0.00    +0.000 A 
ATOM     11  C   UNL     1       1.780   9.292  17.823  0.00  0.00    +0.000 A 
ATOM     12  C   UNL     1       1.204   9.913  18.920  0.00  0.00    +0.000 A 
ATOM     13  C   UNL     1       1.183   9.180  20.109  0.00  0.00    +0.000 A 
ATOM     14  N   UNL     1       1.683   7.924  20.263  0.00  0.00    +0.000 NA
BRANCH  12  15
ATOM     15  N   UNL     1       0.653  11.213  18.904  0.00  0.00    +0.000 N 
ATOM     16  C   UNL     1       1.328  12.410  18.709  0.00  0.00    +0.000 C 
ATOM     17  O   UNL     1       2.526  12.519  18.461  0.00  0.00    +0.000 OA
ATOM     18  H   UNL     1      -0.339  11.295  19.111  0.00  0.00    +0.000 HD
BRANCH  16  19
ATOM     19  C   UNL     1       0.452  13.654  18.721  0.00  0.00    +0.000 C 
ATOM     20 CL   UNL     1       1.401  15.137  18.972  0.00  0.00    +0.000 Cl
ENDBRANCH  16  19
ENDBRANCH  12  15
ENDBRANCH   3   9
BRANCH   1  21
ATOM     21  O   UNL     1       6.036   4.534  19.162  0.00  0.00    +0.000 OA
BRANCH  21  22
ATOM     22  C   UNL     1       6.478   4.600  17.810  0.00  0.00    +0.000 C 
BRANCH  22  24
ATOM     23  C   UNL     1       7.831   6.541  18.638  0.00  0.00    +0.000 C 
ATOM     24  C   UNL     1       7.496   5.689  17.659  0.00  0.00    +0.000 C 
ENDBRANCH  22  24
ENDBRANCH  21  22
ENDBRANCH   1  21
TORSDOF 6
ENDMDL
MODEL 4
REMARK VINA RESULT:      -6.9      2.424      2.663
REMARK  Name = 
REMARK  7 active torsions:
REMARK  status: ('A' for Active; 'I' for Inactive)
REMARK    1  A    between atoms: C_2  and  C_3
REMARK    2  A    between atoms: C_3  and  O_4
REMARK    3  A    between atoms: O_4  and  C_5
REMARK    4  A    between atoms: C_7  and  C_8
REMARK    5  A    between atoms: C_11  and  N_12
REMARK    6  A    between atoms: C_13  and  C_15
REMARK    7  A    between atoms: C_20  and  C_21
REMARK                            x       y       z     vdW  Elec       q    Type
REMARK                         _______ _______ _______ _____ _____    ______ ____
ROOT
ATOM      1  C   UNL     1       4.787   6.332  16.878  0.00  0.00    +0.000 A 
ATOM      2  N   UNL     1       4.038   7.327  17.412  0.00  0.00    +0.000 NA
ATOM      3  C   UNL     1       2.874   6.991  18.001  0.00  0.00    +0.000 A 
ATOM      4  N   UNL     1       2.403   5.726  18.056  0.00  0.00    +0.000 NA
ATOM      5  C   UNL     1       3.164   4.749  17.516  0.00  0.00    +0.000 A 
ATOM      6  C   UNL     1       2.570   3.369  17.567  0.00  0.00    +0.000 C 
ATOM      7  C   UNL     1       4.405   4.993  16.941  0.00  0.00    +0.000 A 
ATOM      8 CL   UNL     1       5.375   3.653  16.442  0.00  0.00    +0.000 Cl
ENDROOT
BRANCH   3   9
ATOM      9  C   UNL     1       2.070   8.028  18.700  0.00  0.00    +0.000 A 
ATOM     10  C   UNL     1       1.576   9.137  18.002  0.00  0.00    +0.000 A 
ATOM     11  C   UNL     1       0.840  10.120  18.670  0.00  0.00    +0.000 A 
ATOM     12  C   UNL     1       0.611  10.007  20.032  0.00  0.00    +0.000 A 
ATOM     13  C   UNL     1       1.133   8.872  20.657  0.00  0.00    +0.000 A 
ATOM     14  N   UNL     1       1.841   7.891  20.035  0.00  0.00    +0.000 NA
BRANCH  12  15
ATOM     15  N   UNL     1      -0.101  10.951  20.804  0.00  0.00    +0.000 N 
ATOM     16  C   UNL     1       0.376  12.149  21.316  0.00  0.00    +0.000 C 
ATOM     17  O   UNL     1       1.500  12.607  21.126  0.00  0.00    +0.000 OA
ATOM     18  H   UNL     1      -1.054  10.709  21.063  0.00  0.00    +0.000 HD
BRANCH  16  19
ATOM     19  C   UNL     1      -0.642  12.971  22.093  0.00  0.00    +0.000 C 
ATOM     20 CL   UNL     1      -1.635  11.962  23.168  0.00  0.00    +0.000 Cl
ENDBRANCH  16  19
ENDBRANCH  12  15
ENDBRANCH   3   9
BRANCH   1  21
ATOM     21  O   UNL     1       5.959   6.814  16.351  0.00  0.00    +0.000 OA
BRANCH  21  22
ATOM     22  C   UNL     1       6.942   7.267  17.278  0.00  0.00    +0.000 C 
BRANCH  22  24
ATOM     23  C   UNL     1       7.785   5.946  19.234  0.00  0.00    +0.000 C 
ATOM     24  C   UNL     1       7.625   6.093  17.911  0.00  0.00    +0.000 C 
ENDBRANCH  22  24
ENDBRANCH  21  22
ENDBRANCH   1  21
TORSDOF 6
ENDMDL
MODEL 5
REMARK VINA RESULT:      -6.9      2.456      2.699
REMARK  Name = 
REMARK  7 active torsions:
REMARK  status: ('A' for Active; 'I' for Inactive)
REMARK    1  A    between atoms: C_2  and  C_3
REMARK    2  A    between atoms: C_3  and  O_4
REMARK    3  A    between atoms: O_4  and  C_5
REMARK    4  A    between atoms: C_7  and  C_8
REMARK    5  A    between atoms: C_11  and  N_12
REMARK    6  A    between atoms: C_13  and  C_15
REMARK    7  A    between atoms: C_20  and  C_21
REMARK                            x       y       z     vdW  Elec       q    Type
REMARK                         _______ _______ _______ _____ _____    ______ ____
ROOT
ATOM      1  C   UNL     1       5.202   6.356  16.897  0.00  0.00    +0.000 A 
ATOM      2  N   UNL     1       4.379   7.278  17.454  0.00  0.00    +0.000 NA
ATOM      3  C   UNL     1       3.195   6.854  17.938  0.00  0.00    +0.000 A 
ATOM      4  N   UNL     1       2.777   5.572  17.868  0.00  0.00    +0.000 NA
ATOM      5  C   UNL     1       3.611   4.668  17.308  0.00  0.00    +0.000 A 
ATOM      6  C   UNL     1       3.075   3.267  17.217  0.00  0.00    +0.000 C 
ATOM      7  C   UNL     1       4.874   5.003  16.836  0.00  0.00    +0.000 A 
ATOM      8 CL   UNL     1       5.931   3.743  16.303  0.00  0.00    +0.000 Cl
ENDROOT
BRANCH   3   9
ATOM      9  C   UNL     1       2.306   7.803  18.658  0.00  0.00    +0.000 A 
ATOM     10  C   UNL     1       1.738   8.894  17.990  0.00  0.00    +0.000 A 
ATOM     11  C   UNL     1       0.921   9.795  18.677  0.00  0.00    +0.000 A 
ATOM     12  C   UNL     1       0.682   9.618  20.032  0.00  0.00    +0.000 A 
ATOM     13  C   UNL     1       1.281   8.506  20.627  0.00  0.00    +0.000 A 
ATOM     14  N   UNL     1       2.070   7.603  19.984  0.00  0.00    +0.000 NA
BRANCH  12  15
ATOM     15  N   UNL     1      -0.109  10.480  20.822  0.00  0.00    +0.000 N 
ATOM     16  C   UNL     1       0.267  11.695  21.376  0.00  0.00    +0.000 C 
ATOM     17  O   UNL     1       1.353  12.245  21.215  0.00  0.00    +0.000 OA
ATOM     18  H   UNL     1      -1.043  10.155  21.063  0.00  0.00    +0.000 HD
BRANCH  16  19
ATOM     19  C   UNL     1      -0.821  12.409  22.165  0.00  0.00    +0.000 C 
ATOM     20 CL   UNL     1      -2.373  12.428  21.297  0.00  0.00    +0.000 Cl
ENDBRANCH  16  19
ENDBRANCH  12  15
ENDBRANCH   3   9
BRANCH   1  21
ATOM     21  O   UNL     1       6.383   6.922  16.486  0.00  0.00    +0.000 OA
BRANCH  21  22
ATOM     22  C   UNL     1       7.382   7.119  17.482  0.00  0.00    +0.000 C 
BRANCH  22  24
ATOM     23  C   UNL     1       8.618   9.075  18.444  0.00  0.00    +0.000 C 
ATOM     24  C   UNL     1       7.722   8.575  17.583  0.00  0.00    +0.000 C 
ENDBRANCH  22  24
ENDBRANCH  21  22
ENDBRANCH   1  21
TORSDOF 6
ENDMDL
MODEL 6
REMARK VINA RESULT:      -6.9      0.839      1.168
REMARK  Name = 
REMARK  7 active torsions:
REMARK  status: ('A' for Active; 'I' for Inactive)
REMARK    1  A    between atoms: C_2  and  C_3
REMARK    2  A    between atoms: C_3  and  O_4
REMARK    3  A    between atoms: O_4  and  C_5
REMARK    4  A    between atoms: C_7  and  C_8
REMARK    5  A    between atoms: C_11  and  N_12
REMARK    6  A    between atoms: C_13  and  C_15
REMARK    7  A    between atoms: C_20  and  C_21
REMARK                            x       y       z     vdW  Elec       q    Type
REMARK                         _______ _______ _______ _____ _____    ______ ____
ROOT
ATOM      1  C   UNL     1       4.771   4.397  19.252  0.00  0.00    +0.000 A 
ATOM      2  N   UNL     1       4.244   5.633  19.075  0.00  0.00    +0.000 NA
ATOM      3  C   UNL     1       2.938   5.805  19.356  0.00  0.00    +0.000 A 
ATOM      4  N   UNL     1       2.126   4.809  19.771  0.00  0.00    +0.000 NA
ATOM      5  C   UNL     1       2.671   3.583  19.939  0.00  0.00    +0.000 A 
ATOM      6  C   UNL     1       1.712   2.505  20.359  0.00  0.00    +0.000 C 
ATOM      7  C   UNL     1       4.020   3.326  19.731  0.00  0.00    +0.000 A 
ATOM      8 CL   UNL     1       4.650   1.771  20.147  0.00  0.00    +0.000 Cl
ENDROOT
BRANCH   3   9
ATOM      9  C   UNL     1       2.337   7.163  19.288  0.00  0.00    +0.000 A 
ATOM     10  C   UNL     1       1.740   7.736  20.417  0.00  0.00    +0.000 A 
ATOM     11  C   UNL     1       1.157   9.004  20.341  0.00  0.00    +0.000 A 
ATOM     12  C   UNL     1       1.154   9.693  19.138  0.00  0.00    +0.000 A 
ATOM     13  C   UNL     1       1.770   9.057  18.058  0.00  0.00    +0.000 A 
ATOM     14  N   UNL     1       2.358   7.831  18.102  0.00  0.00    +0.000 NA
BRANCH  12  15
ATOM     15  N   UNL     1       0.576  10.967  18.948  0.00  0.00    +0.000 N 
ATOM     16  C   UNL     1      -0.722  11.250  18.549  0.00  0.00    +0.000 C 
ATOM     17  O   UNL     1      -1.602  10.417  18.347  0.00  0.00    +0.000 OA
ATOM     18  H   UNL     1       1.188  11.771  19.062  0.00  0.00    +0.000 HD
BRANCH  16  19
ATOM     19  C   UNL     1      -1.061  12.731  18.456  0.00  0.00    +0.000 C 
ATOM     20 CL   UNL     1      -1.629  13.385  20.008  0.00  0.00    +0.000 Cl
ENDBRANCH  16  19
ENDBRANCH  12  15
ENDBRANCH   3   9
BRANCH   1  21
ATOM     21  O   UNL     1       6.114   4.380  18.967  0.00  0.00    +0.000 OA
BRANCH  21  22
ATOM     22  C   UNL     1       6.832   5.591  19.183  0.00  0.00    +0.000 C 
BRANCH  22  24
ATOM     23  C   UNL     1       7.633   7.385  17.626  0.00  0.00    +0.000 C 
ATOM     24  C   UNL     1       7.389   6.093  17.885  0.00  0.00    +0.000 C 
ENDBRANCH  22  24
ENDBRANCH  21  22
ENDBRANCH   1  21
TORSDOF 6
ENDMDL
MODEL 7
REMARK VINA RESULT:      -6.9      1.330      1.548
REMARK  Name = 
REMARK  7 active torsions:
REMARK  status: ('A' for Active; 'I' for Inactive)
REMARK    1  A    between atoms: C_2  and  C_3
REMARK    2  A    between atoms: C_3  and  O_4
REMARK    3  A    between atoms: O_4  and  C_5
REMARK    4  A    between atoms: C_7  and  C_8
REMARK    5  A    between atoms: C_11  and  N_12
REMARK    6  A    between atoms: C_13  and  C_15
REMARK    7  A    between atoms: C_20  and  C_21
REMARK                            x       y       z     vdW  Elec       q    Type
REMARK                         _______ _______ _______ _____ _____    ______ ____
ROOT
ATOM      1  C   UNL     1       4.735   4.526  19.310  0.00  0.00    +0.000 A 
ATOM      2  N   UNL     1       4.223   5.753  19.045  0.00  0.00    +0.000 NA
ATOM      3  C   UNL     1       2.917   5.958  19.304  0.00  0.00    +0.000 A 
ATOM      4  N   UNL     1       2.091   5.001  19.779  0.00  0.00    +0.000 NA
ATOM      5  C   UNL     1       2.621   3.784  20.034  0.00  0.00    +0.000 A 
ATOM      6  C   UNL     1       1.646   2.747  20.518  0.00  0.00    +0.000 C 
ATOM      7  C   UNL     1       3.968   3.498  19.854  0.00  0.00    +0.000 A 
ATOM      8 CL   UNL     1       4.577   1.968  20.379  0.00  0.00    +0.000 Cl
ENDROOT
BRANCH   3   9
ATOM      9  C   UNL     1       2.332   7.315  19.138  0.00  0.00    +0.000 A 
ATOM     10  C   UNL     1       1.629   7.919  20.187  0.00  0.00    +0.000 A 
ATOM     11  C   UNL     1       1.062   9.186  20.018  0.00  0.00    +0.000 A 
ATOM     12  C   UNL     1       1.182   9.841  18.802  0.00  0.00    +0.000 A 
ATOM     13  C   UNL     1       1.899   9.175  17.806  0.00  0.00    +0.000 A 
ATOM     14  N   UNL     1       2.474   7.949  17.943  0.00  0.00    +0.000 NA
BRANCH  12  15
ATOM     15  N   UNL     1       0.632  11.110  18.521  0.00  0.00    +0.000 N 
ATOM     16  C   UNL     1       1.011  12.330  19.062  0.00  0.00    +0.000 C 
ATOM     17  O   UNL     1       1.942  12.503  19.845  0.00  0.00    +0.000 OA
ATOM     18  H   UNL     1      -0.169  11.136  17.894  0.00  0.00    +0.000 HD
BRANCH  16  19
ATOM     19  C   UNL     1       0.241  13.535  18.542  0.00  0.00    +0.000 C 
ATOM     20 CL   UNL     1      -0.802  14.252  19.790  0.00  0.00    +0.000 Cl
ENDBRANCH  16  19
ENDBRANCH  12  15
ENDBRANCH   3   9
BRANCH   1  21
ATOM     21  O   UNL     1       6.080   4.475  19.037  0.00  0.00    +0.000 OA
BRANCH  21  22
ATOM     22  C   UNL     1       6.505   5.030  17.796  0.00  0.00    +0.000 C 
BRANCH  22  24
ATOM     23  C   UNL     1       7.569   7.296  17.661  0.00  0.00    +0.000 C 
ATOM     24  C   UNL     1       7.616   6.008  18.029  0.00  0.00    +0.000 C 
ENDBRANCH  22  24
ENDBRANCH  21  22
ENDBRANCH   1  21
TORSDOF 6
ENDMDL
MODEL 8
REMARK VINA RESULT:      -6.8      2.297      3.779
REMARK  Name = 
REMARK  7 active torsions:
REMARK  status: ('A' for Active; 'I' for Inactive)
REMARK    1  A    between atoms: C_2  and  C_3
REMARK    2  A    between atoms: C_3  and  O_4
REMARK    3  A    between atoms: O_4  and  C_5
REMARK    4  A    between atoms: C_7  and  C_8
REMARK    5  A    between atoms: C_11  and  N_12
REMARK    6  A    between atoms: C_13  and  C_15
REMARK    7  A    between atoms: C_20  and  C_21
REMARK                            x       y       z     vdW  Elec       q    Type
REMARK                         _______ _______ _______ _____ _____    ______ ____
ROOT
ATOM      1  C   UNL     1       3.521   4.400  17.329  0.00  0.00    +0.000 A 
ATOM      2  N   UNL     1       2.731   5.319  17.934  0.00  0.00    +0.000 NA
ATOM      3  C   UNL     1       3.221   6.564  18.091  0.00  0.00    +0.000 A 
ATOM      4  N   UNL     1       4.462   6.931  17.707  0.00  0.00    +0.000 NA
ATOM      5  C   UNL     1       5.236   5.999  17.107  0.00  0.00    +0.000 A 
ATOM      6  C   UNL     1       6.622   6.452  16.743  0.00  0.00    +0.000 C 
ATOM      7  C   UNL     1       4.793   4.708  16.851  0.00  0.00    +0.000 A 
ATOM      8 CL   UNL     1       5.794   3.649  15.920  0.00  0.00    +0.000 Cl
ENDROOT
BRANCH   3   9
ATOM      9  C   UNL     1       2.354   7.638  18.645  0.00  0.00    +0.000 A 
ATOM     10  C   UNL     1       1.891   8.673  17.825  0.00  0.00    +0.000 A 
ATOM     11  C   UNL     1       1.095   9.692  18.357  0.00  0.00    +0.000 A 
ATOM     12  C   UNL     1       0.776   9.688  19.706  0.00  0.00    +0.000 A 
ATOM     13  C   UNL     1       1.273   8.622  20.458  0.00  0.00    +0.000 A 
ATOM     14  N   UNL     1       2.038   7.608  19.968  0.00  0.00    +0.000 NA
BRANCH  12  15
ATOM     15  N   UNL     1      -0.002  10.677  20.346  0.00  0.00    +0.000 N 
ATOM     16  C   UNL     1       0.456  11.798  21.024  0.00  0.00    +0.000 C 
ATOM     17  O   UNL     1       1.632  12.137  21.126  0.00  0.00    +0.000 OA
ATOM     18  H   UNL     1      -1.008  10.531  20.364  0.00  0.00    +0.000 HD
BRANCH  16  19
ATOM     19  C   UNL     1      -0.632  12.698  21.591  0.00  0.00    +0.000 C 
ATOM     20 CL   UNL     1      -1.878  13.085  20.383  0.00  0.00    +0.000 Cl
ENDBRANCH  16  19
ENDBRANCH  12  15
ENDBRANCH   3   9
BRANCH   1  21
ATOM     21  O   UNL     1       2.880   3.193  17.202  0.00  0.00    +0.000 OA
BRANCH  21  22
ATOM     22  C   UNL     1       3.192   2.194  18.169  0.00  0.00    +0.000 C 
BRANCH  22  24
ATOM     23  C   UNL     1       0.786   2.468  18.814  0.00  0.00    +0.000 C 
ATOM     24  C   UNL     1       1.975   1.874  18.982  0.00  0.00    +0.000 C 
ENDBRANCH  22  24
ENDBRANCH  21  22
ENDBRANCH   1  21
TORSDOF 6
ENDMDL
MODEL 9
REMARK VINA RESULT:      -6.8      1.276      1.276
REMARK  Name = 
REMARK  7 active torsions:
REMARK  status: ('A' for Active; 'I' for Inactive)
REMARK    1  A    between atoms: C_2  and  C_3
REMARK    2  A    between atoms: C_3  and  O_4
REMARK    3  A    between atoms: O_4  and  C_5
REMARK    4  A    between atoms: C_7  and  C_8
REMARK    5  A    between atoms: C_11  and  N_12
REMARK    6  A    between atoms: C_13  and  C_15
REMARK    7  A    between atoms: C_20  and  C_21
REMARK                            x       y       z     vdW  Elec       q    Type
REMARK                         _______ _______ _______ _____ _____    ______ ____
ROOT
ATOM      1  C   UNL     1       4.712   4.492  19.313  0.00  0.00    +0.000 A 
ATOM      2  N   UNL     1       4.198   5.733  19.128  0.00  0.00    +0.000 NA
ATOM      3  C   UNL     1       2.872   5.896  19.300  0.00  0.00    +0.000 A 
ATOM      4  N   UNL     1       2.031   4.888  19.614  0.00  0.00    +0.000 NA
ATOM      5  C   UNL     1       2.562   3.658  19.792  0.00  0.00    +0.000 A 
ATOM      6  C   UNL     1       1.574   2.567  20.094  0.00  0.00    +0.000 C 
ATOM      7  C   UNL     1       3.925   3.407  19.693  0.00  0.00    +0.000 A 
ATOM      8 CL   UNL     1       4.521   1.841  20.115  0.00  0.00    +0.000 Cl
ENDROOT
BRANCH   3   9
ATOM      9  C   UNL     1       2.276   7.256  19.221  0.00  0.00    +0.000 A 
ATOM     10  C   UNL     1       2.389   8.015  18.050  0.00  0.00    +0.000 A 
ATOM     11  C   UNL     1       1.845   9.301  17.988  0.00  0.00    +0.000 A 
ATOM     12  C   UNL     1       1.206   9.836  19.096  0.00  0.00    +0.000 A 
ATOM     13  C   UNL     1       1.132   9.018  20.225  0.00  0.00    +0.000 A 
ATOM     14  N   UNL     1       1.638   7.757  20.313  0.00  0.00    +0.000 NA
BRANCH  12  15
ATOM     15  N   UNL     1       0.642  11.130  19.146  0.00  0.00    +0.000 N 
ATOM     16  C   UNL     1       0.810  12.082  20.141  0.00  0.00    +0.000 C 
ATOM     17  O   UNL     1       1.534  11.963  21.126  0.00  0.00    +0.000 OA
ATOM     18  H   UNL     1      -0.003  11.379  18.400  0.00  0.00    +0.000 HD
BRANCH  16  19
ATOM     19  C   UNL     1       0.089  13.401  19.900  0.00  0.00    +0.000 C 
ATOM     20 CL   UNL     1      -0.599  14.069  21.397  0.00  0.00    +0.000 Cl
ENDBRANCH  16  19
ENDBRANCH  12  15
ENDBRANCH   3   9
BRANCH   1  21
ATOM     21  O   UNL     1       6.074   4.484  19.144  0.00  0.00    +0.000 OA
BRANCH  21  22
ATOM     22  C   UNL     1       6.578   5.083  17.954  0.00  0.00    +0.000 C 
BRANCH  22  24
ATOM     23  C   UNL     1       7.618   7.344  17.653  0.00  0.00    +0.000 C 
ATOM     24  C   UNL     1       7.545   6.174  18.302  0.00  0.00    +0.000 C 
ENDBRANCH  22  24
ENDBRANCH  21  22
ENDBRANCH   1  21
TORSDOF 6
ENDMDL
