MODEL 1
REMARK VINA RESULT:      -7.0      0.000      0.000
REMARK  Name = 
REMARK  8 active torsions:
REMARK  status: ('A' for Active; 'I' for Inactive)
REMARK    1  A    between atoms: C_1  and  C_2
REMARK    2  A    between atoms: C_2  and  C_3
REMARK    3  A    between atoms: C_3  and  N_4
REMARK    4  A    between atoms: C_3  and  C_15
REMARK    5  A    between atoms: N_4  and  C_5
REMARK    6  A    between atoms: C_12  and  C_13
REMARK    7  A    between atoms: C_18  and  C_19
REMARK    8  A    between atoms: N_28  and  C_29
REMARK                            x       y       z     vdW  Elec       q    Type
REMARK                         _______ _______ _______ _____ _____    ______ ____
ROOT
ATOM      1  C   UNL     1      -1.624  12.803  19.795  0.00  0.00    +0.000 A 
ATOM      2  N   UNL     1      -2.171  12.119  18.832  0.00  0.00    +0.000 NA
ATOM      3  C   UNL     1      -3.556  11.968  18.744  0.00  0.00    +0.000 A 
ATOM      4  C   UNL     1      -4.118  11.198  17.711  0.00  0.00    +0.000 A 
ATOM      5  C   UNL     1      -5.506  11.033  17.624  0.00  0.00    +0.000 A 
ATOM      6  C   UNL     1      -6.326  11.633  18.571  0.00  0.00    +0.000 A 
ATOM      7  F   UNL     1      -7.652  11.474  18.485  0.00  0.00    +0.000 F 
ATOM      8  C   UNL     1      -5.791  12.386  19.606  0.00  0.00    +0.000 A 
ATOM      9  C   UNL     1      -4.402  12.543  19.685  0.00  0.00    +0.000 A 
ATOM     10  C   UNL     1      -3.785  13.319  20.774  0.00  0.00    +0.000 A 
ATOM     11  O   UNL     1      -4.531  13.795  21.629  0.00  0.00    +0.000 OA
ATOM     12  N   UNL     1      -2.386  13.463  20.747  0.00  0.00    +0.000 N 
ENDROOT
BRANCH  12  13
ATOM     13  C   UNL     1      -1.831  14.253  21.795  0.00  0.00    +0.000 A 
ATOM     14  C   UNL     1      -1.452  13.657  23.006  0.00  0.00    +0.000 A 
ATOM     15  N   UNL     1      -0.837  14.310  24.022  0.00  0.00    +0.000 NA
ATOM     16  C   UNL     1      -0.644  15.637  23.850  0.00  0.00    +0.000 A 
ATOM     17  C   UNL     1      -1.059  16.327  22.723  0.00  0.00    +0.000 A 
ATOM     18  F   UNL     1      -0.866  17.648  22.631  0.00  0.00    +0.000 F 
ATOM     19  C   UNL     1      -1.664  15.634  21.679  0.00  0.00    +0.000 A 
ENDBRANCH  12  13
BRANCH   4  20
ATOM     20  C   UNL     1      -3.281  10.553  16.740  0.00  0.00    +0.000 C 
ATOM     21  N   UNL     1      -2.572  10.035  15.982  0.00  0.00    +0.000 NA
ENDBRANCH   4  20
BRANCH   1  22
ATOM     22  C   UNL     1      -0.045  12.778  19.743  0.00  0.00    +0.000 C 
BRANCH  22  24
ATOM     23  C   UNL     1       1.523  14.769  20.007  0.00  0.00    +0.000 C 
ATOM     24  C   UNL     1       0.663  13.951  19.053  0.00  0.00    +0.000 C 
ENDBRANCH  22  24
BRANCH  22  25
ATOM     25  N   UNL     1       0.389  11.466  19.207  0.00  0.00    +0.000 N 
ATOM     26  H   UNL     1      -0.259  11.155  18.481  0.00  0.00    +0.000 HD
BRANCH  25  27
ATOM     27  C   UNL     1       0.522  10.399  20.141  0.00  0.00    +0.000 A 
ATOM     28  N   UNL     1       0.026  10.527  21.386  0.00  0.00    +0.000 NA
ATOM     29  C   UNL     1       0.194   9.508  22.238  0.00  0.00    +0.000 A 
ATOM     30  N   UNL     1      -0.343   9.621  23.502  0.00  0.00    +0.000 N 
ATOM     31  N   UNL     1       0.869   8.391  21.966  0.00  0.00    +0.000 NA
ATOM     32  C   UNL     1       1.369   8.264  20.731  0.00  0.00    +0.000 A 
ATOM     33  N   UNL     1       2.122   7.108  20.515  0.00  0.00    +0.000 N 
ATOM     34  C   UNL     1       1.215   9.248  19.771  0.00  0.00    +0.000 A 
ATOM     35  H   UNL     1      -0.472  10.589  23.759  0.00  0.00    +0.000 HD
ATOM     36  H   UNL     1       0.156   9.029  24.151  0.00  0.00    +0.000 HD
ATOM     37  H   UNL     1       2.056   6.517  21.341  0.00  0.00    +0.000 HD
ATOM     38  H   UNL     1       1.885   6.606  19.666  0.00  0.00    +0.000 HD
BRANCH  34  39
ATOM     39  C   UNL     1       1.718   9.080  18.449  0.00  0.00    +0.000 C 
ATOM     40  N   UNL     1       2.138   9.015  17.370  0.00  0.00    +0.000 NA
ENDBRANCH  34  39
ENDBRANCH  25  27
ENDBRANCH  22  25
ENDBRANCH   1  22
TORSDOF 7
ENDMDL
MODEL 2
REMARK VINA RESULT:      -6.8      3.084      7.091
REMARK  Name = 
REMARK  8 active torsions:
REMARK  status: ('A' for Active; 'I' for Inactive)
REMARK    1  A    between atoms: C_1  and  C_2
REMARK    2  A    between atoms: C_2  and  C_3
REMARK    3  A    between atoms: C_3  and  N_4
REMARK    4  A    between atoms: C_3  and  C_15
REMARK    5  A    between atoms: N_4  and  C_5
REMARK    6  A    between atoms: C_12  and  C_13
REMARK    7  A    between atoms: C_18  and  C_19
REMARK    8  A    between atoms: N_28  and  C_29
REMARK                            x       y       z     vdW  Elec       q    Type
REMARK                         _______ _______ _______ _____ _____    ______ ____
ROOT
ATOM      1  C   UNL     1      -0.620  13.295  19.866  0.00  0.00    +0.000 A 
ATOM      2  N   UNL     1      -0.572  14.528  19.454  0.00  0.00    +0.000 NA
ATOM      3  C   UNL     1       0.587  15.294  19.584  0.00  0.00    +0.000 A 
ATOM      4  C   UNL     1       0.600  16.634  19.157  0.00  0.00    +0.000 A 
ATOM      5  C   UNL     1       1.757  17.411  19.297  0.00  0.00    +0.000 A 
ATOM      6  C   UNL     1       2.894  16.849  19.865  0.00  0.00    +0.000 A 
ATOM      7  F   UNL     1       3.997  17.595  19.997  0.00  0.00    +0.000 F 
ATOM      8  C   UNL     1       2.897  15.534  20.305  0.00  0.00    +0.000 A 
ATOM      9  C   UNL     1       1.735  14.765  20.163  0.00  0.00    +0.000 A 
ATOM     10  C   UNL     1       1.685  13.369  20.629  0.00  0.00    +0.000 A 
ATOM     11  O   UNL     1       2.688  12.914  21.176  0.00  0.00    +0.000 OA
ATOM     12  N   UNL     1       0.492  12.660  20.403  0.00  0.00    +0.000 N 
ENDROOT
BRANCH  12  13
ATOM     13  C   UNL     1       0.495  11.302  20.832  0.00  0.00    +0.000 A 
ATOM     14  C   UNL     1       0.946  10.290  19.973  0.00  0.00    +0.000 A 
ATOM     15  N   UNL     1       1.068   8.986  20.322  0.00  0.00    +0.000 NA
ATOM     16  C   UNL     1       0.663   8.661  21.571  0.00  0.00    +0.000 A 
ATOM     17  C   UNL     1       0.126   9.578  22.460  0.00  0.00    +0.000 A 
ATOM     18  F   UNL     1      -0.286   9.183  23.671  0.00  0.00    +0.000 F 
ATOM     19  C   UNL     1       0.035  10.917  22.093  0.00  0.00    +0.000 A 
ENDBRANCH  12  13
BRANCH   4  20
ATOM     20  C   UNL     1      -0.573  17.233  18.591  0.00  0.00    +0.000 C 
ATOM     21  N   UNL     1      -1.503  17.754  18.134  0.00  0.00    +0.000 NA
ENDBRANCH   4  20
BRANCH   1  22
ATOM     22  C   UNL     1      -2.048  12.644  19.690  0.00  0.00    +0.000 C 
BRANCH  22  24
ATOM     23  C   UNL     1      -2.181  10.509  18.307  0.00  0.00    +0.000 C 
ATOM     24  C   UNL     1      -2.383  12.019  18.331  0.00  0.00    +0.000 C 
ENDBRANCH  22  24
BRANCH  22  25
ATOM     25  N   UNL     1      -3.071  13.627  20.123  0.00  0.00    +0.000 N 
ATOM     26  H   UNL     1      -2.616  14.433  20.556  0.00  0.00    +0.000 HD
BRANCH  25  27
ATOM     27  C   UNL     1      -4.067  13.165  21.029  0.00  0.00    +0.000 A 
ATOM     28  N   UNL     1      -5.253  12.730  20.563  0.00  0.00    +0.000 NA
ATOM     29  C   UNL     1      -6.168  12.325  21.452  0.00  0.00    +0.000 A 
ATOM     30  N   UNL     1      -7.370  11.846  20.977  0.00  0.00    +0.000 N 
ATOM     31  N   UNL     1      -6.018  12.373  22.776  0.00  0.00    +0.000 NA
ATOM     32  C   UNL     1      -4.844  12.812  23.242  0.00  0.00    +0.000 A 
ATOM     33  N   UNL     1      -4.758  12.906  24.632  0.00  0.00    +0.000 N 
ATOM     34  C   UNL     1      -3.823  13.217  22.400  0.00  0.00    +0.000 A 
ATOM     35  H   UNL     1      -7.563  12.198  20.050  0.00  0.00    +0.000 HD
ATOM     36  H   UNL     1      -8.093  11.950  21.675  0.00  0.00    +0.000 HD
ATOM     37  H   UNL     1      -5.604  12.511  25.038  0.00  0.00    +0.000 HD
ATOM     38  H   UNL     1      -3.918  12.498  25.030  0.00  0.00    +0.000 HD
BRANCH  34  39
ATOM     39  C   UNL     1      -2.565  13.643  22.912  0.00  0.00    +0.000 C 
ATOM     40  N   UNL     1      -1.572  13.998  23.394  0.00  0.00    +0.000 NA
ENDBRANCH  34  39
ENDBRANCH  25  27
ENDBRANCH  22  25
ENDBRANCH   1  22
TORSDOF 7
ENDMDL
MODEL 3
REMARK VINA RESULT:      -6.7      3.068      7.030
REMARK  Name = 
REMARK  8 active torsions:
REMARK  status: ('A' for Active; 'I' for Inactive)
REMARK    1  A    between atoms: C_1  and  C_2
REMARK    2  A    between atoms: C_2  and  C_3
REMARK    3  A    between atoms: C_3  and  N_4
REMARK    4  A    between atoms: C_3  and  C_15
REMARK    5  A    between atoms: N_4  and  C_5
REMARK    6  A    between atoms: C_12  and  C_13
REMARK    7  A    between atoms: C_18  and  C_19
REMARK    8  A    between atoms: N_28  and  C_29
REMARK                            x       y       z     vdW  Elec       q    Type
REMARK                         _______ _______ _______ _____ _____    ______ ____
ROOT
ATOM      1  C   UNL     1      -0.630  13.344  19.877  0.00  0.00    +0.000 A 
ATOM      2  N   UNL     1      -0.610  14.591  19.507  0.00  0.00    +0.000 NA
ATOM      3  C   UNL     1       0.502  15.401  19.741  0.00  0.00    +0.000 A 
ATOM      4  C   UNL     1       0.483  16.754  19.359  0.00  0.00    +0.000 A 
ATOM      5  C   UNL     1       1.591  17.575  19.602  0.00  0.00    +0.000 A 
ATOM      6  C   UNL     1       2.711  17.043  20.229  0.00  0.00    +0.000 A 
ATOM      7  F   UNL     1       3.769  17.830  20.459  0.00  0.00    +0.000 F 
ATOM      8  C   UNL     1       2.745  15.715  20.625  0.00  0.00    +0.000 A 
ATOM      9  C   UNL     1       1.631  14.903  20.380  0.00  0.00    +0.000 A 
ATOM     10  C   UNL     1       1.612  13.491  20.797  0.00  0.00    +0.000 A 
ATOM     11  O   UNL     1       2.596  13.060  21.396  0.00  0.00    +0.000 OA
ATOM     12  N   UNL     1       0.470  12.739  20.467  0.00  0.00    +0.000 N 
ENDROOT
BRANCH  12  13
ATOM     13  C   UNL     1       0.506  11.368  20.852  0.00  0.00    +0.000 A 
ATOM     14  C   UNL     1       0.953  10.392  19.950  0.00  0.00    +0.000 A 
ATOM     15  N   UNL     1       1.105   9.080  20.255  0.00  0.00    +0.000 NA
ATOM     16  C   UNL     1       0.735   8.709  21.501  0.00  0.00    +0.000 A 
ATOM     17  C   UNL     1       0.205   9.587  22.431  0.00  0.00    +0.000 A 
ATOM     18  F   UNL     1      -0.172   9.147  23.638  0.00  0.00    +0.000 F 
ATOM     19  C   UNL     1       0.083  10.935  22.110  0.00  0.00    +0.000 A 
ENDBRANCH  12  13
BRANCH   4  20
ATOM     20  C   UNL     1      -0.676  17.322  18.733  0.00  0.00    +0.000 C 
ATOM     21  N   UNL     1      -1.633  17.780  18.264  0.00  0.00    +0.000 NA
ENDBRANCH   4  20
BRANCH   1  22
ATOM     22  C   UNL     1      -2.013  12.639  19.583  0.00  0.00    +0.000 C 
BRANCH  22  24
ATOM     23  C   UNL     1      -2.319  10.453  18.309  0.00  0.00    +0.000 C 
ATOM     24  C   UNL     1      -2.194  11.969  18.215  0.00  0.00    +0.000 C 
ENDBRANCH  22  24
BRANCH  22  25
ATOM     25  N   UNL     1      -3.104  13.596  19.888  0.00  0.00    +0.000 N 
ATOM     26  H   UNL     1      -2.710  14.506  20.130  0.00  0.00    +0.000 HD
BRANCH  25  27
ATOM     27  C   UNL     1      -4.007  13.234  20.928  0.00  0.00    +0.000 A 
ATOM     28  N   UNL     1      -3.670  13.439  22.215  0.00  0.00    +0.000 NA
ATOM     29  C   UNL     1      -4.540  13.064  23.161  0.00  0.00    +0.000 A 
ATOM     30  N   UNL     1      -4.214  13.304  24.478  0.00  0.00    +0.000 N 
ATOM     31  N   UNL     1      -5.699  12.446  22.928  0.00  0.00    +0.000 NA
ATOM     32  C   UNL     1      -6.033  12.235  21.650  0.00  0.00    +0.000 A 
ATOM     33  N   UNL     1      -7.222  11.528  21.460  0.00  0.00    +0.000 N 
ATOM     34  C   UNL     1      -5.215  12.620  20.603  0.00  0.00    +0.000 A 
ATOM     35  H   UNL     1      -3.215  13.391  24.597  0.00  0.00    +0.000 HD
ATOM     36  H   UNL     1      -4.702  12.660  25.085  0.00  0.00    +0.000 HD
ATOM     37  H   UNL     1      -7.670  11.394  22.364  0.00  0.00    +0.000 HD
ATOM     38  H   UNL     1      -7.851  11.940  20.779  0.00  0.00    +0.000 HD
BRANCH  34  39
ATOM     39  C   UNL     1      -5.605  12.425  19.247  0.00  0.00    +0.000 C 
ATOM     40  N   UNL     1      -5.991  12.271  18.165  0.00  0.00    +0.000 NA
ENDBRANCH  34  39
ENDBRANCH  25  27
ENDBRANCH  22  25
ENDBRANCH   1  22
TORSDOF 7
ENDMDL
MODEL 4
REMARK VINA RESULT:      -6.7      0.890      1.088
REMARK  Name = 
REMARK  8 active torsions:
REMARK  status: ('A' for Active; 'I' for Inactive)
REMARK    1  A    between atoms: C_1  and  C_2
REMARK    2  A    between atoms: C_2  and  C_3
REMARK    3  A    between atoms: C_3  and  N_4
REMARK    4  A    between atoms: C_3  and  C_15
REMARK    5  A    between atoms: N_4  and  C_5
REMARK    6  A    between atoms: C_12  and  C_13
REMARK    7  A    between atoms: C_18  and  C_19
REMARK    8  A    between atoms: N_28  and  C_29
REMARK                            x       y       z     vdW  Elec       q    Type
REMARK                         _______ _______ _______ _____ _____    ______ ____
ROOT
ATOM      1  C   UNL     1      -1.663  12.934  19.894  0.00  0.00    +0.000 A 
ATOM      2  N   UNL     1      -2.194  12.156  18.996  0.00  0.00    +0.000 NA
ATOM      3  C   UNL     1      -3.578  12.027  18.872  0.00  0.00    +0.000 A 
ATOM      4  C   UNL     1      -4.123  11.155  17.913  0.00  0.00    +0.000 A 
ATOM      5  C   UNL     1      -5.510  11.012  17.792  0.00  0.00    +0.000 A 
ATOM      6  C   UNL     1      -6.348  11.735  18.632  0.00  0.00    +0.000 A 
ATOM      7  F   UNL     1      -7.674  11.596  18.514  0.00  0.00    +0.000 F 
ATOM      8  C   UNL     1      -5.831  12.589  19.594  0.00  0.00    +0.000 A 
ATOM      9  C   UNL     1      -4.441  12.724  19.708  0.00  0.00    +0.000 A 
ATOM     10  C   UNL     1      -3.844  13.607  20.725  0.00  0.00    +0.000 A 
ATOM     11  O   UNL     1      -4.607  14.194  21.490  0.00  0.00    +0.000 OA
ATOM     12  N   UNL     1      -2.442  13.716  20.735  0.00  0.00    +0.000 N 
ENDROOT
BRANCH  12  13
ATOM     13  C   UNL     1      -1.903  14.608  21.706  0.00  0.00    +0.000 A 
ATOM     14  C   UNL     1      -1.569  15.923  21.351  0.00  0.00    +0.000 A 
ATOM     15  N   UNL     1      -1.135  16.866  22.222  0.00  0.00    +0.000 NA
ATOM     16  C   UNL     1      -0.967  16.464  23.502  0.00  0.00    +0.000 A 
ATOM     17  C   UNL     1      -1.192  15.166  23.929  0.00  0.00    +0.000 A 
ATOM     18  F   UNL     1      -0.974  14.827  25.205  0.00  0.00    +0.000 F 
ATOM     19  C   UNL     1      -1.664  14.219  23.025  0.00  0.00    +0.000 A 
ENDBRANCH  12  13
BRANCH   4  20
ATOM     20  C   UNL     1      -3.269  10.385  17.055  0.00  0.00    +0.000 C 
ATOM     21  N   UNL     1      -2.592   9.727  16.381  0.00  0.00    +0.000 NA
ENDBRANCH   4  20
BRANCH   1  22
ATOM     22  C   UNL     1      -0.085  12.869  19.907  0.00  0.00    +0.000 C 
BRANCH  22  24
ATOM     23  C   UNL     1       1.819  14.537  20.199  0.00  0.00    +0.000 C 
ATOM     24  C   UNL     1       0.681  14.055  19.307  0.00  0.00    +0.000 C 
ENDBRANCH  22  24
BRANCH  22  25
ATOM     25  N   UNL     1       0.338  11.574  19.321  0.00  0.00    +0.000 N 
ATOM     26  H   UNL     1      -0.323  11.287  18.598  0.00  0.00    +0.000 HD
BRANCH  25  27
ATOM     27  C   UNL     1       0.487  10.478  20.219  0.00  0.00    +0.000 A 
ATOM     28  N   UNL     1       0.005  10.563  21.473  0.00  0.00    +0.000 NA
ATOM     29  C   UNL     1       0.186   9.517  22.289  0.00  0.00    +0.000 A 
ATOM     30  N   UNL     1      -0.337   9.587  23.562  0.00  0.00    +0.000 N 
ATOM     31  N   UNL     1       0.862   8.413  21.973  0.00  0.00    +0.000 NA
ATOM     32  C   UNL     1       1.349   8.329  20.730  0.00  0.00    +0.000 A 
ATOM     33  N   UNL     1       2.104   7.184  20.467  0.00  0.00    +0.000 N 
ATOM     34  C   UNL     1       1.180   9.343  19.804  0.00  0.00    +0.000 A 
ATOM     35  H   UNL     1      -0.467  10.545  23.852  0.00  0.00    +0.000 HD
ATOM     36  H   UNL     1       0.172   8.976  24.186  0.00  0.00    +0.000 HD
ATOM     37  H   UNL     1       2.049   6.566  21.274  0.00  0.00    +0.000 HD
ATOM     38  H   UNL     1       1.859   6.708  19.605  0.00  0.00    +0.000 HD
BRANCH  34  39
ATOM     39  C   UNL     1       1.669   9.219  18.472  0.00  0.00    +0.000 C 
ATOM     40  N   UNL     1       2.053   9.190  17.378  0.00  0.00    +0.000 NA
ENDBRANCH  34  39
ENDBRANCH  25  27
ENDBRANCH  22  25
ENDBRANCH   1  22
TORSDOF 7
ENDMDL
MODEL 5
REMARK VINA RESULT:      -6.6      3.247      6.427
REMARK  Name = 
REMARK  8 active torsions:
REMARK  status: ('A' for Active; 'I' for Inactive)
REMARK    1  A    between atoms: C_1  and  C_2
REMARK    2  A    between atoms: C_2  and  C_3
REMARK    3  A    between atoms: C_3  and  N_4
REMARK    4  A    between atoms: C_3  and  C_15
REMARK    5  A    between atoms: N_4  and  C_5
REMARK    6  A    between atoms: C_12  and  C_13
REMARK    7  A    between atoms: C_18  and  C_19
REMARK    8  A    between atoms: N_28  and  C_29
REMARK                            x       y       z     vdW  Elec       q    Type
REMARK                         _______ _______ _______ _____ _____    ______ ____
ROOT
ATOM      1  C   UNL     1      -0.098  12.972  20.596  0.00  0.00    +0.000 A 
ATOM      2  N   UNL     1      -0.055  11.685  20.783  0.00  0.00    +0.000 NA
ATOM      3  C   UNL     1       0.683  10.852  19.942  0.00  0.00    +0.000 A 
ATOM      4  C   UNL     1       0.686   9.461  20.149  0.00  0.00    +0.000 A 
ATOM      5  C   UNL     1       1.416   8.619  19.301  0.00  0.00    +0.000 A 
ATOM      6  C   UNL     1       2.136   9.168  18.247  0.00  0.00    +0.000 A 
ATOM      7  F   UNL     1       2.832   8.360  17.438  0.00  0.00    +0.000 F 
ATOM      8  C   UNL     1       2.135  10.535  18.017  0.00  0.00    +0.000 A 
ATOM      9  C   UNL     1       1.401  11.369  18.869  0.00  0.00    +0.000 A 
ATOM     10  C   UNL     1       1.355  12.825  18.656  0.00  0.00    +0.000 A 
ATOM     11  O   UNL     1       1.958  13.278  17.685  0.00  0.00    +0.000 OA
ATOM     12  N   UNL     1       0.631  13.588  19.589  0.00  0.00    +0.000 N 
ENDROOT
BRANCH  12  13
ATOM     13  C   UNL     1       0.644  14.996  19.372  0.00  0.00    +0.000 A 
ATOM     14  C   UNL     1       1.657  15.789  19.928  0.00  0.00    +0.000 A 
ATOM     15  N   UNL     1       1.801  17.118  19.704  0.00  0.00    +0.000 NA
ATOM     16  C   UNL     1       0.852  17.701  18.938  0.00  0.00    +0.000 A 
ATOM     17  C   UNL     1      -0.232  17.015  18.415  0.00  0.00    +0.000 A 
ATOM     18  F   UNL     1      -1.154  17.660  17.691  0.00  0.00    +0.000 F 
ATOM     19  C   UNL     1      -0.346  15.646  18.632  0.00  0.00    +0.000 A 
ENDBRANCH  12  13
BRANCH   4  20
ATOM     20  C   UNL     1      -0.071   8.879  21.219  0.00  0.00    +0.000 C 
ATOM     21  N   UNL     1      -0.686   8.373  22.063  0.00  0.00    +0.000 NA
ENDBRANCH   4  20
BRANCH   1  22
ATOM     22  C   UNL     1      -1.053  13.709  21.616  0.00  0.00    +0.000 C 
BRANCH  22  24
ATOM     23  C   UNL     1      -1.234  14.611  23.992  0.00  0.00    +0.000 C 
ATOM     24  C   UNL     1      -0.402  14.555  22.717  0.00  0.00    +0.000 C 
ENDBRANCH  22  24
BRANCH  22  25
ATOM     25  N   UNL     1      -2.013  12.719  22.162  0.00  0.00    +0.000 N 
ATOM     26  H   UNL     1      -1.623  11.778  22.085  0.00  0.00    +0.000 HD
BRANCH  25  27
ATOM     27  C   UNL     1      -3.312  12.689  21.579  0.00  0.00    +0.000 A 
ATOM     28  N   UNL     1      -3.449  12.684  20.240  0.00  0.00    +0.000 NA
ATOM     29  C   UNL     1      -4.690  12.678  19.735  0.00  0.00    +0.000 A 
ATOM     30  N   UNL     1      -4.835  12.637  18.365  0.00  0.00    +0.000 N 
ATOM     31  N   UNL     1      -5.808  12.736  20.459  0.00  0.00    +0.000 NA
ATOM     32  C   UNL     1      -5.673  12.749  21.790  0.00  0.00    +0.000 A 
ATOM     33  N   UNL     1      -6.867  12.876  22.503  0.00  0.00    +0.000 N 
ATOM     34  C   UNL     1      -4.433  12.720  22.405  0.00  0.00    +0.000 A 
ATOM     35  H   UNL     1      -4.010  12.988  17.900  0.00  0.00    +0.000 HD
ATOM     36  H   UNL     1      -5.726  13.028  18.093  0.00  0.00    +0.000 HD
ATOM     37  H   UNL     1      -7.644  12.831  21.848  0.00  0.00    +0.000 HD
ATOM     38  H   UNL     1      -6.972  12.216  23.266  0.00  0.00    +0.000 HD
BRANCH  34  39
ATOM     39  C   UNL     1      -4.310  12.693  23.823  0.00  0.00    +0.000 C 
ATOM     40  N   UNL     1      -4.146  12.708  24.971  0.00  0.00    +0.000 NA
ENDBRANCH  34  39
ENDBRANCH  25  27
ENDBRANCH  22  25
ENDBRANCH   1  22
TORSDOF 7
ENDMDL
MODEL 6
REMARK VINA RESULT:      -6.6      3.429      7.373
REMARK  Name = 
REMARK  8 active torsions:
REMARK  status: ('A' for Active; 'I' for Inactive)
REMARK    1  A    between atoms: C_1  and  C_2
REMARK    2  A    between atoms: C_2  and  C_3
REMARK    3  A    between atoms: C_3  and  N_4
REMARK    4  A    between atoms: C_3  and  C_15
REMARK    5  A    between atoms: N_4  and  C_5
REMARK    6  A    between atoms: C_12  and  C_13
REMARK    7  A    between atoms: C_18  and  C_19
REMARK    8  A    between atoms: N_28  and  C_29
REMARK                            x       y       z     vdW  Elec       q    Type
REMARK                         _______ _______ _______ _____ _____    ______ ____
ROOT
ATOM      1  C   UNL     1      -2.456  12.415  19.683  0.00  0.00    +0.000 A 
ATOM      2  N   UNL     1      -1.167  12.360  19.855  0.00  0.00    +0.000 NA
ATOM      3  C   UNL     1      -0.388  11.400  19.209  0.00  0.00    +0.000 A 
ATOM      4  C   UNL     1       0.999  11.346  19.438  0.00  0.00    +0.000 A 
ATOM      5  C   UNL     1       1.785  10.377  18.802  0.00  0.00    +0.000 A 
ATOM      6  C   UNL     1       1.183   9.463  17.945  0.00  0.00    +0.000 A 
ATOM      7  F   UNL     1       1.937   8.538  17.339  0.00  0.00    +0.000 F 
ATOM      8  C   UNL     1      -0.184   9.491  17.717  0.00  0.00    +0.000 A 
ATOM      9  C   UNL     1      -0.962  10.463  18.359  0.00  0.00    +0.000 A 
ATOM     10  C   UNL     1      -2.420  10.523  18.161  0.00  0.00    +0.000 A 
ATOM     11  O   UNL     1      -2.933   9.670  17.439  0.00  0.00    +0.000 OA
ATOM     12  N   UNL     1      -3.113  11.561  18.809  0.00  0.00    +0.000 N 
ENDROOT
BRANCH  12  13
ATOM     13  C   UNL     1      -4.515  11.610  18.562  0.00  0.00    +0.000 A 
ATOM     14  C   UNL     1      -5.388  10.768  19.266  0.00  0.00    +0.000 A 
ATOM     15  N   UNL     1      -6.739  10.806  19.163  0.00  0.00    +0.000 NA
ATOM     16  C   UNL     1      -7.245  11.682  18.267  0.00  0.00    +0.000 A 
ATOM     17  C   UNL     1      -6.459  12.494  17.466  0.00  0.00    +0.000 A 
ATOM     18  F   UNL     1      -7.025  13.317  16.575  0.00  0.00    +0.000 F 
ATOM     19  C   UNL     1      -5.075  12.462  17.607  0.00  0.00    +0.000 A 
ENDBRANCH  12  13
BRANCH   4  20
ATOM     20  C   UNL     1       1.629  12.267  20.339  0.00  0.00    +0.000 C 
ATOM     21  N   UNL     1       2.115  12.997  21.098  0.00  0.00    +0.000 NA
ENDBRANCH   4  20
BRANCH   1  22
ATOM     22  C   UNL     1      -3.146  13.527  20.568  0.00  0.00    +0.000 C 
BRANCH  22  24
ATOM     23  C   UNL     1      -3.076  15.869  21.568  0.00  0.00    +0.000 C 
ATOM     24  C   UNL     1      -2.267  14.671  21.087  0.00  0.00    +0.000 C 
ENDBRANCH  22  24
BRANCH  22  25
ATOM     25  N   UNL     1      -3.903  12.862  21.656  0.00  0.00    +0.000 N 
ATOM     26  H   UNL     1      -3.963  11.858  21.475  0.00  0.00    +0.000 HD
BRANCH  25  27
ATOM     27  C   UNL     1      -5.226  13.328  21.901  0.00  0.00    +0.000 A 
ATOM     28  N   UNL     1      -5.939  13.887  20.905  0.00  0.00    +0.000 NA
ATOM     29  C   UNL     1      -7.170  14.331  21.186  0.00  0.00    +0.000 A 
ATOM     30  N   UNL     1      -7.916  14.872  20.161  0.00  0.00    +0.000 N 
ATOM     31  N   UNL     1      -7.729  14.315  22.396  0.00  0.00    +0.000 NA
ATOM     32  C   UNL     1      -7.019  13.767  23.389  0.00  0.00    +0.000 A 
ATOM     33  N   UNL     1      -7.618  13.833  24.649  0.00  0.00    +0.000 N 
ATOM     34  C   UNL     1      -5.752  13.248  23.188  0.00  0.00    +0.000 A 
ATOM     35  H   UNL     1      -7.324  15.208  19.415  0.00  0.00    +0.000 HD
ATOM     36  H   UNL     1      -8.611  15.508  20.528  0.00  0.00    +0.000 HD
ATOM     37  H   UNL     1      -8.557  14.210  24.544  0.00  0.00    +0.000 HD
ATOM     38  H   UNL     1      -7.613  12.957  25.162  0.00  0.00    +0.000 HD
BRANCH  34  39
ATOM     39  C   UNL     1      -5.028  12.631  24.247  0.00  0.00    +0.000 C 
ATOM     40  N   UNL     1      -4.396  12.096  25.060  0.00  0.00    +0.000 NA
ENDBRANCH  34  39
ENDBRANCH  25  27
ENDBRANCH  22  25
ENDBRANCH   1  22
TORSDOF 7
ENDMDL
MODEL 7
REMARK VINA RESULT:      -6.6      3.028      7.003
REMARK  Name = 
REMARK  8 active torsions:
REMARK  status: ('A' for Active; 'I' for Inactive)
REMARK    1  A    between atoms: C_1  and  C_2
REMARK    2  A    between atoms: C_2  and  C_3
REMARK    3  A    between atoms: C_3  and  N_4
REMARK    4  A    between atoms: C_3  and  C_15
REMARK    5  A    between atoms: N_4  and  C_5
REMARK    6  A    between atoms: C_12  and  C_13
REMARK    7  A    between atoms: C_18  and  C_19
REMARK    8  A    between atoms: N_28  and  C_29
REMARK                            x       y       z     vdW  Elec       q    Type
REMARK                         _______ _______ _______ _____ _____    ______ ____
ROOT
ATOM      1  C   UNL     1      -0.517  13.275  19.808  0.00  0.00    +0.000 A 
ATOM      2  N   UNL     1      -0.447  14.494  19.359  0.00  0.00    +0.000 NA
ATOM      3  C   UNL     1       0.727  15.241  19.464  0.00  0.00    +0.000 A 
ATOM      4  C   UNL     1       0.764  16.567  18.997  0.00  0.00    +0.000 A 
ATOM      5  C   UNL     1       1.936  17.326  19.111  0.00  0.00    +0.000 A 
ATOM      6  C   UNL     1       3.063  16.760  19.693  0.00  0.00    +0.000 A 
ATOM      7  F   UNL     1       4.181  17.488  19.800  0.00  0.00    +0.000 F 
ATOM      8  C   UNL     1       3.043  15.459  20.171  0.00  0.00    +0.000 A 
ATOM      9  C   UNL     1       1.866  14.708  20.055  0.00  0.00    +0.000 A 
ATOM     10  C   UNL     1       1.791  13.328  20.563  0.00  0.00    +0.000 A 
ATOM     11  O   UNL     1       2.787  12.870  21.121  0.00  0.00    +0.000 OA
ATOM     12  N   UNL     1       0.584  12.636  20.360  0.00  0.00    +0.000 N 
ENDROOT
BRANCH  12  13
ATOM     13  C   UNL     1       0.563  11.290  20.830  0.00  0.00    +0.000 A 
ATOM     14  C   UNL     1       0.979  10.243  19.995  0.00  0.00    +0.000 A 
ATOM     15  N   UNL     1       1.076   8.948  20.382  0.00  0.00    +0.000 NA
ATOM     16  C   UNL     1       0.681   8.670  21.644  0.00  0.00    +0.000 A 
ATOM     17  C   UNL     1       0.178   9.624  22.513  0.00  0.00    +0.000 A 
ATOM     18  F   UNL     1      -0.227   9.275  23.740  0.00  0.00    +0.000 F 
ATOM     19  C   UNL     1       0.112  10.953  22.107  0.00  0.00    +0.000 A 
ENDBRANCH  12  13
BRANCH   4  20
ATOM     20  C   UNL     1      -0.399  17.171  18.416  0.00  0.00    +0.000 C 
ATOM     21  N   UNL     1      -1.317  17.694  17.935  0.00  0.00    +0.000 NA
ENDBRANCH   4  20
BRANCH   1  22
ATOM     22  C   UNL     1      -1.958  12.646  19.654  0.00  0.00    +0.000 C 
BRANCH  22  24
ATOM     23  C   UNL     1      -2.124  10.537  18.235  0.00  0.00    +0.000 C 
ATOM     24  C   UNL     1      -2.332  12.045  18.294  0.00  0.00    +0.000 C 
ENDBRANCH  22  24
BRANCH  22  25
ATOM     25  N   UNL     1      -2.956  13.637  20.124  0.00  0.00    +0.000 N 
ATOM     26  H   UNL     1      -2.654  14.580  19.875  0.00  0.00    +0.000 HD
BRANCH  25  27
ATOM     27  C   UNL     1      -3.256  13.642  21.516  0.00  0.00    +0.000 A 
ATOM     28  N   UNL     1      -2.398  14.205  22.388  0.00  0.00    +0.000 NA
ATOM     29  C   UNL     1      -2.710  14.166  23.690  0.00  0.00    +0.000 A 
ATOM     30  N   UNL     1      -1.853  14.772  24.582  0.00  0.00    +0.000 N 
ATOM     31  N   UNL     1      -3.783  13.560  24.199  0.00  0.00    +0.000 NA
ATOM     32  C   UNL     1      -4.632  12.993  23.335  0.00  0.00    +0.000 A 
ATOM     33  N   UNL     1      -5.704  12.315  23.919  0.00  0.00    +0.000 N 
ATOM     34  C   UNL     1      -4.414  13.013  21.969  0.00  0.00    +0.000 A 
ATOM     35  H   UNL     1      -0.920  14.846  24.201  0.00  0.00    +0.000 HD
ATOM     36  H   UNL     1      -1.950  14.360  25.500  0.00  0.00    +0.000 HD
ATOM     37  H   UNL     1      -5.683  12.477  24.924  0.00  0.00    +0.000 HD
ATOM     38  H   UNL     1      -6.609  12.535  23.516  0.00  0.00    +0.000 HD
BRANCH  34  39
ATOM     39  C   UNL     1      -5.350  12.441  21.060  0.00  0.00    +0.000 C 
ATOM     40  N   UNL     1      -6.058  11.973  20.271  0.00  0.00    +0.000 NA
ENDBRANCH  34  39
ENDBRANCH  25  27
ENDBRANCH  22  25
ENDBRANCH   1  22
TORSDOF 7
ENDMDL
MODEL 8
REMARK VINA RESULT:      -6.6      3.185      7.147
REMARK  Name = 
REMARK  8 active torsions:
REMARK  status: ('A' for Active; 'I' for Inactive)
REMARK    1  A    between atoms: C_1  and  C_2
REMARK    2  A    between atoms: C_2  and  C_3
REMARK    3  A    between atoms: C_3  and  N_4
REMARK    4  A    between atoms: C_3  and  C_15
REMARK    5  A    between atoms: N_4  and  C_5
REMARK    6  A    between atoms: C_12  and  C_13
REMARK    7  A    between atoms: C_18  and  C_19
REMARK    8  A    between atoms: N_28  and  C_29
REMARK                            x       y       z     vdW  Elec       q    Type
REMARK                         _______ _______ _______ _____ _____    ______ ____
ROOT
ATOM      1  C   UNL     1      -0.529  13.237  19.806  0.00  0.00    +0.000 A 
ATOM      2  N   UNL     1      -0.425  14.446  19.336  0.00  0.00    +0.000 NA
ATOM      3  C   UNL     1       0.739  15.196  19.507  0.00  0.00    +0.000 A 
ATOM      4  C   UNL     1       0.812  16.511  19.015  0.00  0.00    +0.000 A 
ATOM      5  C   UNL     1       1.974  17.272  19.195  0.00  0.00    +0.000 A 
ATOM      6  C   UNL     1       3.056  16.719  19.869  0.00  0.00    +0.000 A 
ATOM      7  F   UNL     1       4.164  17.449  20.039  0.00  0.00    +0.000 F 
ATOM      8  C   UNL     1       3.000  15.429  20.374  0.00  0.00    +0.000 A 
ATOM      9  C   UNL     1       1.833  14.676  20.191  0.00  0.00    +0.000 A 
ATOM     10  C   UNL     1       1.719  13.308  20.722  0.00  0.00    +0.000 A 
ATOM     11  O   UNL     1       2.671  12.863  21.360  0.00  0.00    +0.000 OA
ATOM     12  N   UNL     1       0.528  12.611  20.450  0.00  0.00    +0.000 N 
ENDROOT
BRANCH  12  13
ATOM     13  C   UNL     1       0.471  11.277  20.947  0.00  0.00    +0.000 A 
ATOM     14  C   UNL     1      -0.164  11.002  22.166  0.00  0.00    +0.000 A 
ATOM     15  N   UNL     1      -0.344   9.758  22.673  0.00  0.00    +0.000 NA
ATOM     16  C   UNL     1       0.190   8.740  21.961  0.00  0.00    +0.000 A 
ATOM     17  C   UNL     1       0.906   8.922  20.790  0.00  0.00    +0.000 A 
ATOM     18  F   UNL     1       1.437   7.872  20.153  0.00  0.00    +0.000 F 
ATOM     19  C   UNL     1       1.056  10.204  20.271  0.00  0.00    +0.000 A 
ENDBRANCH  12  13
BRANCH   4  20
ATOM     20  C   UNL     1      -0.306  17.102  18.339  0.00  0.00    +0.000 C 
ATOM     21  N   UNL     1      -1.185  17.609  17.776  0.00  0.00    +0.000 NA
ENDBRANCH   4  20
BRANCH   1  22
ATOM     22  C   UNL     1      -1.957  12.606  19.564  0.00  0.00    +0.000 C 
BRANCH  22  24
ATOM     23  C   UNL     1      -2.053  10.466  18.184  0.00  0.00    +0.000 C 
ATOM     24  C   UNL     1      -2.235  11.979  18.193  0.00  0.00    +0.000 C 
ENDBRANCH  22  24
BRANCH  22  25
ATOM     25  N   UNL     1      -2.985  13.605  19.944  0.00  0.00    +0.000 N 
ATOM     26  H   UNL     1      -2.539  14.413  20.381  0.00  0.00    +0.000 HD
BRANCH  25  27
ATOM     27  C   UNL     1      -4.019  13.166  20.818  0.00  0.00    +0.000 A 
ATOM     28  N   UNL     1      -5.143  12.622  20.314  0.00  0.00    +0.000 NA
ATOM     29  C   UNL     1      -6.098  12.243  21.172  0.00  0.00    +0.000 A 
ATOM     30  N   UNL     1      -7.235  11.654  20.662  0.00  0.00    +0.000 N 
ATOM     31  N   UNL     1      -6.048  12.417  22.493  0.00  0.00    +0.000 NA
ATOM     32  C   UNL     1      -4.936  12.964  22.996  0.00  0.00    +0.000 A 
ATOM     33  N   UNL     1      -4.957  13.185  24.375  0.00  0.00    +0.000 N 
ATOM     34  C   UNL     1      -3.879  13.353  22.192  0.00  0.00    +0.000 A 
ATOM     35  H   UNL     1      -7.378  11.911  19.697  0.00  0.00    +0.000 HD
ATOM     36  H   UNL     1      -8.011  11.777  21.298  0.00  0.00    +0.000 HD
ATOM     37  H   UNL     1      -5.809  12.778  24.756  0.00  0.00    +0.000 HD
ATOM     38  H   UNL     1      -4.129  12.864  24.864  0.00  0.00    +0.000 HD
BRANCH  34  39
ATOM     39  C   UNL     1      -2.686  13.896  22.748  0.00  0.00    +0.000 C 
ATOM     40  N   UNL     1      -1.689  14.347  23.132  0.00  0.00    +0.000 NA
ENDBRANCH  34  39
ENDBRANCH  25  27
ENDBRANCH  22  25
ENDBRANCH   1  22
TORSDOF 7
ENDMDL
MODEL 9
REMARK VINA RESULT:      -6.6      2.876      5.824
REMARK  Name = 
REMARK  8 active torsions:
REMARK  status: ('A' for Active; 'I' for Inactive)
REMARK    1  A    between atoms: C_1  and  C_2
REMARK    2  A    between atoms: C_2  and  C_3
REMARK    3  A    between atoms: C_3  and  N_4
REMARK    4  A    between atoms: C_3  and  C_15
REMARK    5  A    between atoms: N_4  and  C_5
REMARK    6  A    between atoms: C_12  and  C_13
REMARK    7  A    between atoms: C_18  and  C_19
REMARK    8  A    between atoms: N_28  and  C_29
REMARK                            x       y       z     vdW  Elec       q    Type
REMARK                         _______ _______ _______ _____ _____    ______ ____
ROOT
ATOM      1  C   UNL     1      -1.995  12.021  20.845  0.00  0.00    +0.000 A 
ATOM      2  N   UNL     1      -3.189  12.310  21.275  0.00  0.00    +0.000 NA
ATOM      3  C   UNL     1      -4.277  12.382  20.405  0.00  0.00    +0.000 A 
ATOM      4  C   UNL     1      -5.550  12.726  20.892  0.00  0.00    +0.000 A 
ATOM      5  C   UNL     1      -6.644  12.811  20.022  0.00  0.00    +0.000 A 
ATOM      6  C   UNL     1      -6.462  12.557  18.668  0.00  0.00    +0.000 A 
ATOM      7  F   UNL     1      -7.509  12.640  17.839  0.00  0.00    +0.000 F 
ATOM      8  C   UNL     1      -5.212  12.229  18.165  0.00  0.00    +0.000 A 
ATOM      9  C   UNL     1      -4.124  12.148  19.043  0.00  0.00    +0.000 A 
ATOM     10  C   UNL     1      -2.774  11.819  18.554  0.00  0.00    +0.000 A 
ATOM     11  O   UNL     1      -2.632  11.651  17.345  0.00  0.00    +0.000 OA
ATOM     12  N   UNL     1      -1.752  11.714  19.514  0.00  0.00    +0.000 N 
ENDROOT
BRANCH  12  13
ATOM     13  C   UNL     1      -0.470  11.356  19.008  0.00  0.00    +0.000 A 
ATOM     14  C   UNL     1       0.514  12.336  18.814  0.00  0.00    +0.000 A 
ATOM     15  N   UNL     1       1.785  12.079  18.422  0.00  0.00    +0.000 NA
ATOM     16  C   UNL     1       2.077  10.787  18.149  0.00  0.00    +0.000 A 
ATOM     17  C   UNL     1       1.148   9.763  18.231  0.00  0.00    +0.000 A 
ATOM     18  F   UNL     1       1.495   8.510  17.915  0.00  0.00    +0.000 F 
ATOM     19  C   UNL     1      -0.144  10.043  18.663  0.00  0.00    +0.000 A 
ENDBRANCH  12  13
BRANCH   4  20
ATOM     20  C   UNL     1      -5.748  13.014  22.284  0.00  0.00    +0.000 C 
ATOM     21  N   UNL     1      -5.881  13.216  23.418  0.00  0.00    +0.000 NA
ENDBRANCH   4  20
BRANCH   1  22
ATOM     22  C   UNL     1      -0.904  12.070  21.987  0.00  0.00    +0.000 C 
BRANCH  22  24
ATOM     23  C   UNL     1      -0.386   9.731  22.854  0.00  0.00    +0.000 C 
ATOM     24  C   UNL     1      -1.041  11.075  23.146  0.00  0.00    +0.000 C 
ENDBRANCH  22  24
BRANCH  22  25
ATOM     25  N   UNL     1      -0.780  13.470  22.460  0.00  0.00    +0.000 N 
ATOM     26  H   UNL     1      -1.685  13.939  22.398  0.00  0.00    +0.000 HD
BRANCH  25  27
ATOM     27  C   UNL     1       0.172  14.294  21.794  0.00  0.00    +0.000 A 
ATOM     28  N   UNL     1       1.489  14.052  21.935  0.00  0.00    +0.000 NA
ATOM     29  C   UNL     1       2.348  14.865  21.308  0.00  0.00    +0.000 A 
ATOM     30  N   UNL     1       3.696  14.600  21.421  0.00  0.00    +0.000 N 
ATOM     31  N   UNL     1       2.001  15.939  20.598  0.00  0.00    +0.000 NA
ATOM     32  C   UNL     1       0.694  16.186  20.463  0.00  0.00    +0.000 A 
ATOM     33  N   UNL     1       0.382  17.355  19.767  0.00  0.00    +0.000 N 
ATOM     34  C   UNL     1      -0.271  15.381  21.043  0.00  0.00    +0.000 A 
ATOM     35  H   UNL     1       3.894  14.059  22.250  0.00  0.00    +0.000 HD
ATOM     36  H   UNL     1       4.235  15.442  21.273  0.00  0.00    +0.000 HD
ATOM     37  H   UNL     1       1.243  17.753  19.397  0.00  0.00    +0.000 HD
ATOM     38  H   UNL     1      -0.325  17.240  19.048  0.00  0.00    +0.000 HD
BRANCH  34  39
ATOM     39  C   UNL     1      -1.660  15.634  20.855  0.00  0.00    +0.000 C 
ATOM     40  N   UNL     1      -2.802  15.811  20.768  0.00  0.00    +0.000 NA
ENDBRANCH  34  39
ENDBRANCH  25  27
ENDBRANCH  22  25
ENDBRANCH   1  22
TORSDOF 7
ENDMDL
