MODEL 1
REMARK VINA RESULT:      -8.3      0.000      0.000
REMARK  Name = 
REMARK  4 active torsions:
REMARK  status: ('A' for Active; 'I' for Inactive)
REMARK    1  A    between atoms: C_1  and  O_2
REMARK    2  A    between atoms: O_2  and  C_3
REMARK    3  A    between atoms: C_8  and  N_9
REMARK    4  A    between atoms: C_10  and  C_12
REMARK                            x       y       z     vdW  Elec       q    Type
REMARK                         _______ _______ _______ _____ _____    ______ ____
ROOT
ATOM      1  C   UNL     1       8.254   9.193  18.174  0.00  0.00    +0.000 A 
ATOM      2  C   UNL     1       8.920   9.261  19.412  0.00  0.00    +0.000 A 
ATOM      3  C   UNL     1       9.747  10.308  19.738  0.00  0.00    +0.000 A 
ATOM      4  C   UNL     1       9.853  11.379  18.855  0.00  0.00    +0.000 A 
ATOM      5  C   UNL     1      10.962  12.242  18.812  0.00  0.00    +0.000 A 
ATOM      6 CL   UNL     1      12.333  12.102  19.818  0.00  0.00    +0.000 Cl
ATOM      7  C   UNL     1      10.867  13.295  17.942  0.00  0.00    +0.000 A 
ATOM      8  C   UNL     1       9.618  13.804  17.807  0.00  0.00    +0.000 A 
ATOM      9  N   UNL     1       8.617  12.920  17.579  0.00  0.00    +0.000 NA
ATOM     10  C   UNL     1       8.835  11.601  17.929  0.00  0.00    +0.000 A 
ATOM     11  C   UNL     1       8.144  10.420  17.480  0.00  0.00    +0.000 A 
ATOM     12  C   UNL     1       9.570  15.295  18.106  0.00  0.00    +0.000 C 
ATOM     13  C   UNL     1      10.978  15.953  17.892  0.00  0.00    +0.000 C 
ATOM     14  C   UNL     1      11.737  15.308  16.726  0.00  0.00    +0.000 C 
ATOM     15  C   UNL     1      11.785  13.775  16.862  0.00  0.00    +0.000 C 
ENDROOT
BRANCH   1  17
ATOM     16  N   UNL     1       6.729   7.554  16.897  0.00  0.00    +0.000 N 
ATOM     17  C   UNL     1       7.695   7.829  17.880  0.00  0.00    +0.000 C 
ATOM     18  O   UNL     1       8.281   6.936  18.486  0.00  0.00    +0.000 OA
ATOM     19  H   UNL     1       6.355   8.295  16.312  0.00  0.00    +0.000 HD
BRANCH  16  25
ATOM     20  C   UNL     1       5.284   5.500  17.102  0.00  0.00    +0.000 A 
ATOM     21  C   UNL     1       4.961   4.183  16.684  0.00  0.00    +0.000 A 
ATOM     22  C   UNL     1       5.625   3.565  15.628  0.00  0.00    +0.000 A 
ATOM     23  C   UNL     1       6.648   4.243  14.999  0.00  0.00    +0.000 A 
ATOM     24  C   UNL     1       7.017   5.521  15.442  0.00  0.00    +0.000 A 
ATOM     25  C   UNL     1       6.354   6.196  16.490  0.00  0.00    +0.000 A 
BRANCH  20  27
ATOM     26  C   UNL     1       4.399   5.376  19.300  0.00  0.00    +0.000 C 
ATOM     27  O   UNL     1       4.568   6.140  18.094  0.00  0.00    +0.000 OA
ENDBRANCH  20  27
ENDBRANCH  16  25
ENDBRANCH   1  17
TORSDOF 3
ENDMDL
MODEL 2
REMARK VINA RESULT:      -8.0      6.605      9.652
REMARK  Name = 
REMARK  4 active torsions:
REMARK  status: ('A' for Active; 'I' for Inactive)
REMARK    1  A    between atoms: C_1  and  O_2
REMARK    2  A    between atoms: O_2  and  C_3
REMARK    3  A    between atoms: C_8  and  N_9
REMARK    4  A    between atoms: C_10  and  C_12
REMARK                            x       y       z     vdW  Elec       q    Type
REMARK                         _______ _______ _______ _____ _____    ______ ____
ROOT
ATOM      1  C   UNL     1       1.888   8.356  18.780  0.00  0.00    +0.000 A 
ATOM      2  C   UNL     1       2.066   7.384  19.782  0.00  0.00    +0.000 A 
ATOM      3  C   UNL     1       2.857   6.277  19.590  0.00  0.00    +0.000 A 
ATOM      4  C   UNL     1       3.577   6.163  18.405  0.00  0.00    +0.000 A 
ATOM      5  C   UNL     1       4.016   4.936  17.878  0.00  0.00    +0.000 A 
ATOM      6 CL   UNL     1       3.727   3.417  18.600  0.00  0.00    +0.000 Cl
ATOM      7  C   UNL     1       4.785   5.011  16.748  0.00  0.00    +0.000 A 
ATOM      8  C   UNL     1       5.599   6.093  16.690  0.00  0.00    +0.000 A 
ATOM      9  N   UNL     1       5.037   7.298  16.951  0.00  0.00    +0.000 NA
ATOM     10  C   UNL     1       3.852   7.311  17.663  0.00  0.00    +0.000 A 
ATOM     11  C   UNL     1       2.866   8.356  17.759  0.00  0.00    +0.000 A 
ATOM     12  C   UNL     1       7.057   5.705  16.492  0.00  0.00    +0.000 C 
ATOM     13  C   UNL     1       7.173   4.293  15.818  0.00  0.00    +0.000 C 
ATOM     14  C   UNL     1       6.047   4.052  14.805  0.00  0.00    +0.000 C 
ATOM     15  C   UNL     1       4.664   4.332  15.419  0.00  0.00    +0.000 C 
ENDROOT
BRANCH   1  17
ATOM     16  N   UNL     1       0.066  10.037  18.077  0.00  0.00    +0.000 N 
ATOM     17  C   UNL     1       0.735   9.279  19.053  0.00  0.00    +0.000 C 
ATOM     18  O   UNL     1       0.323   9.194  20.208  0.00  0.00    +0.000 OA
ATOM     19  H   UNL     1       0.340   9.987  17.101  0.00  0.00    +0.000 HD
BRANCH  16  25
ATOM     20  C   UNL     1      -2.338  10.575  17.541  0.00  0.00    +0.000 A 
ATOM     21  C   UNL     1      -3.520  11.308  17.818  0.00  0.00    +0.000 A 
ATOM     22  C   UNL     1      -3.607  12.173  18.906  0.00  0.00    +0.000 A 
ATOM     23  C   UNL     1      -2.500  12.346  19.709  0.00  0.00    +0.000 A 
ATOM     24  C   UNL     1      -1.307  11.673  19.409  0.00  0.00    +0.000 A 
ATOM     25  C   UNL     1      -1.180  10.766  18.334  0.00  0.00    +0.000 A 
BRANCH  20  27
ATOM     26  C   UNL     1      -2.828  10.117  15.265  0.00  0.00    +0.000 C 
ATOM     27  O   UNL     1      -2.281   9.656  16.512  0.00  0.00    +0.000 OA
ENDBRANCH  20  27
ENDBRANCH  16  25
ENDBRANCH   1  17
TORSDOF 3
ENDMDL
MODEL 3
REMARK VINA RESULT:      -7.8      0.991      1.967
REMARK  Name = 
REMARK  4 active torsions:
REMARK  status: ('A' for Active; 'I' for Inactive)
REMARK    1  A    between atoms: C_1  and  O_2
REMARK    2  A    between atoms: O_2  and  C_3
REMARK    3  A    between atoms: C_8  and  N_9
REMARK    4  A    between atoms: C_10  and  C_12
REMARK                            x       y       z     vdW  Elec       q    Type
REMARK                         _______ _______ _______ _____ _____    ______ ____
ROOT
ATOM      1  C   UNL     1       8.092   8.932  18.033  0.00  0.00    +0.000 A 
ATOM      2  C   UNL     1       8.833   8.953  19.229  0.00  0.00    +0.000 A 
ATOM      3  C   UNL     1       9.688   9.983  19.539  0.00  0.00    +0.000 A 
ATOM      4  C   UNL     1       9.750  11.082  18.688  0.00  0.00    +0.000 A 
ATOM      5  C   UNL     1      10.863  11.937  18.605  0.00  0.00    +0.000 A 
ATOM      6 CL   UNL     1      12.291  11.753  19.521  0.00  0.00    +0.000 Cl
ATOM      7  C   UNL     1      10.725  13.020  17.779  0.00  0.00    +0.000 A 
ATOM      8  C   UNL     1       9.476  13.542  17.736  0.00  0.00    +0.000 A 
ATOM      9  N   UNL     1       8.454  12.673  17.540  0.00  0.00    +0.000 NA
ATOM     10  C   UNL     1       8.681  11.342  17.832  0.00  0.00    +0.000 A 
ATOM     11  C   UNL     1       7.952  10.182  17.388  0.00  0.00    +0.000 A 
ATOM     12  C   UNL     1       9.460  15.023  18.087  0.00  0.00    +0.000 C 
ATOM     13  C   UNL     1      10.858  15.677  17.809  0.00  0.00    +0.000 C 
ATOM     14  C   UNL     1      11.539  15.065  16.579  0.00  0.00    +0.000 C 
ATOM     15  C   UNL     1      11.581  13.529  16.661  0.00  0.00    +0.000 C 
ENDROOT
BRANCH   1  17
ATOM     16  N   UNL     1       6.630   7.312  16.661  0.00  0.00    +0.000 N 
ATOM     17  C   UNL     1       7.503   7.583  17.728  0.00  0.00    +0.000 C 
ATOM     18  O   UNL     1       7.984   6.689  18.420  0.00  0.00    +0.000 OA
ATOM     19  H   UNL     1       6.352   8.046  16.017  0.00  0.00    +0.000 HD
BRANCH  16  25
ATOM     20  C   UNL     1       6.895   5.260  15.222  0.00  0.00    +0.000 A 
ATOM     21  C   UNL     1       6.475   3.954  14.862  0.00  0.00    +0.000 A 
ATOM     22  C   UNL     1       5.466   3.292  15.556  0.00  0.00    +0.000 A 
ATOM     23  C   UNL     1       4.836   3.943  16.596  0.00  0.00    +0.000 A 
ATOM     24  C   UNL     1       5.201   5.257  16.921  0.00  0.00    +0.000 A 
ATOM     25  C   UNL     1       6.236   5.957  16.263  0.00  0.00    +0.000 A 
BRANCH  20  27
ATOM     26  C   UNL     1       8.110   5.527  13.201  0.00  0.00    +0.000 C 
ATOM     27  O   UNL     1       7.952   5.881  14.585  0.00  0.00    +0.000 OA
ENDBRANCH  20  27
ENDBRANCH  16  25
ENDBRANCH   1  17
TORSDOF 3
ENDMDL
MODEL 4
REMARK VINA RESULT:      -7.7      6.564      9.580
REMARK  Name = 
REMARK  4 active torsions:
REMARK  status: ('A' for Active; 'I' for Inactive)
REMARK    1  A    between atoms: C_1  and  O_2
REMARK    2  A    between atoms: O_2  and  C_3
REMARK    3  A    between atoms: C_8  and  N_9
REMARK    4  A    between atoms: C_10  and  C_12
REMARK                            x       y       z     vdW  Elec       q    Type
REMARK                         _______ _______ _______ _____ _____    ______ ____
ROOT
ATOM      1  C   UNL     1       1.877   8.303  18.726  0.00  0.00    +0.000 A 
ATOM      2  C   UNL     1       2.078   7.379  19.767  0.00  0.00    +0.000 A 
ATOM      3  C   UNL     1       2.903   6.290  19.625  0.00  0.00    +0.000 A 
ATOM      4  C   UNL     1       3.633   6.150  18.449  0.00  0.00    +0.000 A 
ATOM      5  C   UNL     1       4.112   4.916  17.975  0.00  0.00    +0.000 A 
ATOM      6 CL   UNL     1       3.865   3.420  18.758  0.00  0.00    +0.000 Cl
ATOM      7  C   UNL     1       4.885   4.968  16.846  0.00  0.00    +0.000 A 
ATOM      8  C   UNL     1       5.666   6.071  16.748  0.00  0.00    +0.000 A 
ATOM      9  N   UNL     1       5.066   7.268  16.957  0.00  0.00    +0.000 NA
ATOM     10  C   UNL     1       3.878   7.274  17.662  0.00  0.00    +0.000 A 
ATOM     11  C   UNL     1       2.860   8.292  17.710  0.00  0.00    +0.000 A 
ATOM     12  C   UNL     1       7.137   5.720  16.574  0.00  0.00    +0.000 C 
ATOM     13  C   UNL     1       7.299   4.286  15.958  0.00  0.00    +0.000 C 
ATOM     14  C   UNL     1       6.187   3.970  14.951  0.00  0.00    +0.000 C 
ATOM     15  C   UNL     1       4.793   4.232  15.546  0.00  0.00    +0.000 C 
ENDROOT
BRANCH   1  17
ATOM     16  N   UNL     1      -0.048   9.826  17.939  0.00  0.00    +0.000 N 
ATOM     17  C   UNL     1       0.694   9.202  18.956  0.00  0.00    +0.000 C 
ATOM     18  O   UNL     1       0.334   9.219  20.130  0.00  0.00    +0.000 OA
ATOM     19  H   UNL     1       0.188   9.687  16.961  0.00  0.00    +0.000 HD
BRANCH  16  25
ATOM     20  C   UNL     1      -1.365  11.791  18.808  0.00  0.00    +0.000 A 
ATOM     21  C   UNL     1      -2.613  12.429  19.027  0.00  0.00    +0.000 A 
ATOM     22  C   UNL     1      -3.807  11.878  18.571  0.00  0.00    +0.000 A 
ATOM     23  C   UNL     1      -3.773  10.661  17.924  0.00  0.00    +0.000 A 
ATOM     24  C   UNL     1      -2.552   9.992  17.755  0.00  0.00    +0.000 A 
ATOM     25  C   UNL     1      -1.315  10.526  18.176  0.00  0.00    +0.000 A 
BRANCH  20  27
ATOM     26  C   UNL     1      -0.099  12.737  20.578  0.00  0.00    +0.000 C 
ATOM     27  O   UNL     1      -0.175  12.381  19.188  0.00  0.00    +0.000 OA
ENDBRANCH  20  27
ENDBRANCH  16  25
ENDBRANCH   1  17
TORSDOF 3
ENDMDL
MODEL 5
REMARK VINA RESULT:      -7.7      7.077     11.072
REMARK  Name = 
REMARK  4 active torsions:
REMARK  status: ('A' for Active; 'I' for Inactive)
REMARK    1  A    between atoms: C_1  and  O_2
REMARK    2  A    between atoms: O_2  and  C_3
REMARK    3  A    between atoms: C_8  and  N_9
REMARK    4  A    between atoms: C_10  and  C_12
REMARK                            x       y       z     vdW  Elec       q    Type
REMARK                         _______ _______ _______ _____ _____    ______ ____
ROOT
ATOM      1  C   UNL     1       1.432   8.426  20.430  0.00  0.00    +0.000 A 
ATOM      2  C   UNL     1       1.687   8.614  19.059  0.00  0.00    +0.000 A 
ATOM      3  C   UNL     1       2.248   7.630  18.280  0.00  0.00    +0.000 A 
ATOM      4  C   UNL     1       2.482   6.380  18.845  0.00  0.00    +0.000 A 
ATOM      5  C   UNL     1       3.443   5.476  18.357  0.00  0.00    +0.000 A 
ATOM      6 CL   UNL     1       4.459   5.777  17.020  0.00  0.00    +0.000 Cl
ATOM      7  C   UNL     1       3.485   4.256  18.977  0.00  0.00    +0.000 A 
ATOM      8  C   UNL     1       2.282   3.793  19.393  0.00  0.00    +0.000 A 
ATOM      9  N   UNL     1       1.507   4.649  20.103  0.00  0.00    +0.000 NA
ATOM     10  C   UNL     1       1.768   6.001  19.980  0.00  0.00    +0.000 A 
ATOM     11  C   UNL     1       1.388   7.078  20.856  0.00  0.00    +0.000 A 
ATOM     12  C   UNL     1       1.969   2.416  18.826  0.00  0.00    +0.000 C 
ATOM     13  C   UNL     1       3.287   1.657  18.444  0.00  0.00    +0.000 C 
ATOM     14  C   UNL     1       4.430   1.976  19.416  0.00  0.00    +0.000 C 
ATOM     15  C   UNL     1       4.619   3.493  19.588  0.00  0.00    +0.000 C 
ENDROOT
BRANCH   1  17
ATOM     16  N   UNL     1       0.276  10.712  20.710  0.00  0.00    +0.000 N 
ATOM     17  C   UNL     1       1.153   9.710  21.159  0.00  0.00    +0.000 C 
ATOM     18  O   UNL     1       1.656   9.737  22.280  0.00  0.00    +0.000 OA
ATOM     19  H   UNL     1      -0.235  10.605  19.839  0.00  0.00    +0.000 HD
BRANCH  16  25
ATOM     20  C   UNL     1       0.422  13.143  21.357  0.00  0.00    +0.000 A 
ATOM     21  C   UNL     1       0.002  14.219  22.182  0.00  0.00    +0.000 A 
ATOM     22  C   UNL     1      -1.006  14.065  23.129  0.00  0.00    +0.000 A 
ATOM     23  C   UNL     1      -1.583  12.823  23.291  0.00  0.00    +0.000 A 
ATOM     24  C   UNL     1      -1.134  11.738  22.524  0.00  0.00    +0.000 A 
ATOM     25  C   UNL     1      -0.135  11.854  21.533  0.00  0.00    +0.000 A 
BRANCH  20  27
ATOM     26  C   UNL     1       2.682  13.642  20.834  0.00  0.00    +0.000 C 
ATOM     27  O   UNL     1       1.363  13.320  20.362  0.00  0.00    +0.000 OA
ENDBRANCH  20  27
ENDBRANCH  16  25
ENDBRANCH   1  17
TORSDOF 3
ENDMDL
MODEL 6
REMARK VINA RESULT:      -7.6      7.363     11.047
REMARK  Name = 
REMARK  4 active torsions:
REMARK  status: ('A' for Active; 'I' for Inactive)
REMARK    1  A    between atoms: C_1  and  O_2
REMARK    2  A    between atoms: O_2  and  C_3
REMARK    3  A    between atoms: C_8  and  N_9
REMARK    4  A    between atoms: C_10  and  C_12
REMARK                            x       y       z     vdW  Elec       q    Type
REMARK                         _______ _______ _______ _____ _____    ______ ____
ROOT
ATOM      1  C   UNL     1       0.797   9.667  19.718  0.00  0.00    +0.000 A 
ATOM      2  C   UNL     1       1.086   9.071  20.960  0.00  0.00    +0.000 A 
ATOM      3  C   UNL     1       1.646   7.820  21.055  0.00  0.00    +0.000 A 
ATOM      4  C   UNL     1       2.027   7.165  19.888  0.00  0.00    +0.000 A 
ATOM      5  C   UNL     1       2.151   5.768  19.787  0.00  0.00    +0.000 A 
ATOM      6 CL   UNL     1       1.848   4.679  21.066  0.00  0.00    +0.000 Cl
ATOM      7  C   UNL     1       2.617   5.294  18.591  0.00  0.00    +0.000 A 
ATOM      8  C   UNL     1       3.529   6.091  17.985  0.00  0.00    +0.000 A 
ATOM      9  N   UNL     1       3.218   7.405  17.875  0.00  0.00    +0.000 NA
ATOM     10  C   UNL     1       2.261   7.911  18.734  0.00  0.00    +0.000 A 
ATOM     11  C   UNL     1       1.481   9.115  18.611  0.00  0.00    +0.000 A 
ATOM     12  C   UNL     1       4.826   5.354  17.684  0.00  0.00    +0.000 C 
ATOM     13  C   UNL     1       4.578   3.809  17.577  0.00  0.00    +0.000 C 
ATOM     14  C   UNL     1       3.214   3.492  16.952  0.00  0.00    +0.000 C 
ATOM     15  C   UNL     1       2.078   4.253  17.659  0.00  0.00    +0.000 C 
ENDROOT
BRANCH   1  17
ATOM     16  N   UNL     1      -0.874  11.176  20.971  0.00  0.00    +0.000 N 
ATOM     17  C   UNL     1      -0.116  10.855  19.833  0.00  0.00    +0.000 C 
ATOM     18  O   UNL     1      -0.021  11.619  18.875  0.00  0.00    +0.000 OA
ATOM     19  H   UNL     1      -0.832  10.599  21.805  0.00  0.00    +0.000 HD
BRANCH  16  25
ATOM     20  C   UNL     1      -0.985  13.581  21.719  0.00  0.00    +0.000 A 
ATOM     21  C   UNL     1      -1.720  14.786  21.864  0.00  0.00    +0.000 A 
ATOM     22  C   UNL     1      -3.018  14.915  21.378  0.00  0.00    +0.000 A 
ATOM     23  C   UNL     1      -3.613  13.828  20.774  0.00  0.00    +0.000 A 
ATOM     24  C   UNL     1      -2.919  12.614  20.678  0.00  0.00    +0.000 A 
ATOM     25  C   UNL     1      -1.593  12.444  21.132  0.00  0.00    +0.000 A 
BRANCH  20  27
ATOM     26  C   UNL     1       1.274  14.160  21.283  0.00  0.00    +0.000 C 
ATOM     27  O   UNL     1       0.330  13.482  22.128  0.00  0.00    +0.000 OA
ENDBRANCH  20  27
ENDBRANCH  16  25
ENDBRANCH   1  17
TORSDOF 3
ENDMDL
MODEL 7
REMARK VINA RESULT:      -7.5      7.364     10.702
REMARK  Name = 
REMARK  4 active torsions:
REMARK  status: ('A' for Active; 'I' for Inactive)
REMARK    1  A    between atoms: C_1  and  O_2
REMARK    2  A    between atoms: O_2  and  C_3
REMARK    3  A    between atoms: C_8  and  N_9
REMARK    4  A    between atoms: C_10  and  C_12
REMARK                            x       y       z     vdW  Elec       q    Type
REMARK                         _______ _______ _______ _____ _____    ______ ____
ROOT
ATOM      1  C   UNL     1       0.450   9.455  19.428  0.00  0.00    +0.000 A 
ATOM      2  C   UNL     1       0.833   8.943  20.682  0.00  0.00    +0.000 A 
ATOM      3  C   UNL     1       1.657   7.851  20.801  0.00  0.00    +0.000 A 
ATOM      4  C   UNL     1       2.206   7.295  19.649  0.00  0.00    +0.000 A 
ATOM      5  C   UNL     1       2.643   5.961  19.563  0.00  0.00    +0.000 A 
ATOM      6 CL   UNL     1       2.560   4.835  20.843  0.00  0.00    +0.000 Cl
ATOM      7  C   UNL     1       3.235   5.601  18.383  0.00  0.00    +0.000 A 
ATOM      8  C   UNL     1       3.959   6.581  17.793  0.00  0.00    +0.000 A 
ATOM      9  N   UNL     1       3.364   7.791  17.664  0.00  0.00    +0.000 NA
ATOM     10  C   UNL     1       2.296   8.071  18.495  0.00  0.00    +0.000 A 
ATOM     11  C   UNL     1       1.268   9.069  18.343  0.00  0.00    +0.000 A 
ATOM     12  C   UNL     1       5.396   6.154  17.529  0.00  0.00    +0.000 C 
ATOM     13  C   UNL     1       5.505   4.592  17.430  0.00  0.00    +0.000 C 
ATOM     14  C   UNL     1       4.264   3.976  16.775  0.00  0.00    +0.000 C 
ATOM     15  C   UNL     1       2.968   4.463  17.447  0.00  0.00    +0.000 C 
ENDROOT
BRANCH   1  17
ATOM     16  N   UNL     1      -1.648  10.618  18.486  0.00  0.00    +0.000 N 
ATOM     17  C   UNL     1      -0.710  10.407  19.510  0.00  0.00    +0.000 C 
ATOM     18  O   UNL     1      -0.855  10.882  20.635  0.00  0.00    +0.000 OA
ATOM     19  H   UNL     1      -1.585  10.111  17.609  0.00  0.00    +0.000 HD
BRANCH  16  25
ATOM     20  C   UNL     1      -3.978  11.270  17.779  0.00  0.00    +0.000 A 
ATOM     21  C   UNL     1      -5.149  12.045  17.984  0.00  0.00    +0.000 A 
ATOM     22  C   UNL     1      -5.287  12.885  19.085  0.00  0.00    +0.000 A 
ATOM     23  C   UNL     1      -4.241  12.990  19.977  0.00  0.00    +0.000 A 
ATOM     24  C   UNL     1      -3.056  12.276  19.752  0.00  0.00    +0.000 A 
ATOM     25  C   UNL     1      -2.881  11.392  18.665  0.00  0.00    +0.000 A 
BRANCH  20  27
ATOM     26  C   UNL     1      -3.492  10.963  15.477  0.00  0.00    +0.000 C 
ATOM     27  O   UNL     1      -3.877  10.376  16.731  0.00  0.00    +0.000 OA
ENDBRANCH  20  27
ENDBRANCH  16  25
ENDBRANCH   1  17
TORSDOF 3
ENDMDL
MODEL 8
REMARK VINA RESULT:      -7.5      7.034      9.003
REMARK  Name = 
REMARK  4 active torsions:
REMARK  status: ('A' for Active; 'I' for Inactive)
REMARK    1  A    between atoms: C_1  and  O_2
REMARK    2  A    between atoms: O_2  and  C_3
REMARK    3  A    between atoms: C_8  and  N_9
REMARK    4  A    between atoms: C_10  and  C_12
REMARK                            x       y       z     vdW  Elec       q    Type
REMARK                         _______ _______ _______ _____ _____    ______ ____
ROOT
ATOM      1  C   UNL     1       1.702   8.549  19.541  0.00  0.00    +0.000 A 
ATOM      2  C   UNL     1       1.930   9.471  18.503  0.00  0.00    +0.000 A 
ATOM      3  C   UNL     1       1.308  10.696  18.467  0.00  0.00    +0.000 A 
ATOM      4  C   UNL     1       0.504  11.072  19.538  0.00  0.00    +0.000 A 
ATOM      5  C   UNL     1      -0.530  12.020  19.438  0.00  0.00    +0.000 A 
ATOM      6 CL   UNL     1      -0.953  12.837  18.000  0.00  0.00    +0.000 Cl
ATOM      7  C   UNL     1      -1.168  12.336  20.607  0.00  0.00    +0.000 A 
ATOM      8  C   UNL     1      -0.372  12.328  21.703  0.00  0.00    +0.000 A 
ATOM      9  N   UNL     1       0.415  11.240  21.882  0.00  0.00    +0.000 NA
ATOM     10  C   UNL     1       0.688  10.458  20.776  0.00  0.00    +0.000 A 
ATOM     11  C   UNL     1       1.152   9.096  20.723  0.00  0.00    +0.000 A 
ATOM     12  C   UNL     1      -0.410  13.654  22.450  0.00  0.00    +0.000 C 
ATOM     13  C   UNL     1      -1.743  14.425  22.151  0.00  0.00    +0.000 C 
ATOM     14  C   UNL     1      -2.929  13.468  21.986  0.00  0.00    +0.000 C 
ATOM     15  C   UNL     1      -2.620  12.353  20.971  0.00  0.00    +0.000 C 
ENDROOT
BRANCH   1  17
ATOM     16  N   UNL     1       2.403   6.149  20.164  0.00  0.00    +0.000 N 
ATOM     17  C   UNL     1       2.190   7.165  19.217  0.00  0.00    +0.000 C 
ATOM     18  O   UNL     1       2.242   6.952  18.008  0.00  0.00    +0.000 OA
ATOM     19  H   UNL     1       2.223   6.309  21.150  0.00  0.00    +0.000 HD
BRANCH  16  25
ATOM     20  C   UNL     1       3.979   4.313  19.459  0.00  0.00    +0.000 A 
ATOM     21  C   UNL     1       4.200   2.956  19.107  0.00  0.00    +0.000 A 
ATOM     22  C   UNL     1       3.179   2.010  19.158  0.00  0.00    +0.000 A 
ATOM     23  C   UNL     1       1.914   2.417  19.525  0.00  0.00    +0.000 A 
ATOM     24  C   UNL     1       1.670   3.767  19.816  0.00  0.00    +0.000 A 
ATOM     25  C   UNL     1       2.679   4.755  19.804  0.00  0.00    +0.000 A 
BRANCH  20  27
ATOM     26  C   UNL     1       5.575   5.537  18.202  0.00  0.00    +0.000 C 
ATOM     27  O   UNL     1       5.011   5.230  19.487  0.00  0.00    +0.000 OA
ENDBRANCH  20  27
ENDBRANCH  16  25
ENDBRANCH   1  17
TORSDOF 3
ENDMDL
MODEL 9
REMARK VINA RESULT:      -7.5      7.466     11.122
REMARK  Name = 
REMARK  4 active torsions:
REMARK  status: ('A' for Active; 'I' for Inactive)
REMARK    1  A    between atoms: C_1  and  O_2
REMARK    2  A    between atoms: O_2  and  C_3
REMARK    3  A    between atoms: C_8  and  N_9
REMARK    4  A    between atoms: C_10  and  C_12
REMARK                            x       y       z     vdW  Elec       q    Type
REMARK                         _______ _______ _______ _____ _____    ______ ____
ROOT
ATOM      1  C   UNL     1       0.892   9.177  20.899  0.00  0.00    +0.000 A 
ATOM      2  C   UNL     1       0.948   9.514  19.534  0.00  0.00    +0.000 A 
ATOM      3  C   UNL     1       1.633   8.747  18.623  0.00  0.00    +0.000 A 
ATOM      4  C   UNL     1       2.207   7.552  19.047  0.00  0.00    +0.000 A 
ATOM      5  C   UNL     1       3.291   6.938  18.396  0.00  0.00    +0.000 A 
ATOM      6 CL   UNL     1       4.063   7.563  17.008  0.00  0.00    +0.000 Cl
ATOM      7  C   UNL     1       3.678   5.723  18.895  0.00  0.00    +0.000 A 
ATOM      8  C   UNL     1       2.664   4.961  19.372  0.00  0.00    +0.000 A 
ATOM      9  N   UNL     1       1.795   5.558  20.222  0.00  0.00    +0.000 NA
ATOM     10  C   UNL     1       1.724   6.938  20.201  0.00  0.00    +0.000 A 
ATOM     11  C   UNL     1       1.203   7.832  21.202  0.00  0.00    +0.000 A 
ATOM     12  C   UNL     1       2.616   3.591  18.710  0.00  0.00    +0.000 C 
ATOM     13  C   UNL     1       4.025   3.194  18.146  0.00  0.00    +0.000 C 
ATOM     14  C   UNL     1       5.162   3.707  19.038  0.00  0.00    +0.000 C 
ATOM     15  C   UNL     1       5.015   5.211  19.332  0.00  0.00    +0.000 C 
ENDROOT
BRANCH   1  17
ATOM     16  N   UNL     1      -0.396  11.370  21.318  0.00  0.00    +0.000 N 
ATOM     17  C   UNL     1       0.405  10.306  21.765  0.00  0.00    +0.000 C 
ATOM     18  O   UNL     1       0.650  10.129  22.956  0.00  0.00    +0.000 OA
ATOM     19  H   UNL     1      -0.700  11.423  20.351  0.00  0.00    +0.000 HD
BRANCH  16  25
ATOM     20  C   UNL     1      -0.418  13.583  22.525  0.00  0.00    +0.000 A 
ATOM     21  C   UNL     1      -1.057  14.489  23.410  0.00  0.00    +0.000 A 
ATOM     22  C   UNL     1      -2.316  14.227  23.944  0.00  0.00    +0.000 A 
ATOM     23  C   UNL     1      -2.937  13.036  23.630  0.00  0.00    +0.000 A 
ATOM     24  C   UNL     1      -2.289  12.106  22.805  0.00  0.00    +0.000 A 
ATOM     25  C   UNL     1      -1.025  12.340  22.220  0.00  0.00    +0.000 A 
BRANCH  20  27
ATOM     26  C   UNL     1       1.198  15.255  22.058  0.00  0.00    +0.000 C 
ATOM     27  O   UNL     1       0.792  13.883  21.933  0.00  0.00    +0.000 OA
ENDBRANCH  20  27
ENDBRANCH  16  25
ENDBRANCH   1  17
TORSDOF 3
ENDMDL
