MODEL 1
REMARK VINA RESULT:      -7.7      0.000      0.000
REMARK  Name = 
REMARK  5 active torsions:
REMARK  status: ('A' for Active; 'I' for Inactive)
REMARK    1  A    between atoms: C_1  and  C_2
REMARK    2  A    between atoms: C_2  and  C_3
REMARK    3  A    between atoms: C_2  and  C_4
REMARK    4  A    between atoms: C_9  and  C_10
REMARK    5  A    between atoms: C_10  and  C_11
REMARK                            x       y       z     vdW  Elec       q    Type
REMARK                         _______ _______ _______ _____ _____    ______ ____
ROOT
ATOM      1  C   UNL     1       6.528   4.653  14.338  0.00  0.00    +0.000 A 
ATOM      2  N   UNL     1       7.608   5.378  14.617  0.00  0.00    +0.000 NA
ATOM      3  N   UNL     1       7.453   5.959  15.877  0.00  0.00    +0.000 NA
ATOM      4  C   UNL     1       6.287   5.569  16.290  0.00  0.00    +0.000 A 
ATOM      5  S   UNL     1       5.337   5.730  17.708  0.00  0.00    +0.000 S 
ATOM      6  C   UNL     1       4.166   4.657  16.903  0.00  0.00    +0.000 A 
ATOM      7  N   UNL     1       4.433   4.248  15.692  0.00  0.00    +0.000 NA
ATOM      8  N   UNL     1       5.651   4.780  15.387  0.00  0.00    +0.000 N 
ENDROOT
BRANCH   1  10
ATOM      9  C   UNL     1       4.907   3.766  12.675  0.00  0.00    +0.000 C 
ATOM     10  C   UNL     1       6.361   3.767  13.145  0.00  0.00    +0.000 C 
ATOM     11  C   UNL     1       7.307   4.084  11.991  0.00  0.00    +0.000 C 
ENDBRANCH   1  10
BRANCH   6  12
ATOM     12  C   UNL     1       2.942   4.215  17.668  0.00  0.00    +0.000 C 
BRANCH  12  13
ATOM     13  C   UNL     1       3.133   2.986  18.577  0.00  0.00    +0.000 C 
ATOM     14  C   UNL     1       1.830   2.160  18.680  0.00  0.00    +0.000 C 
ATOM     15  C   UNL     1       0.918   2.839  19.694  0.00  0.00    +0.000 C 
ATOM     16  S   UNL     1       2.011   3.431  20.972  0.00  0.00    +0.000 S 
ATOM     17  O   UNL     1       2.058   2.446  22.033  0.00  0.00    +0.000 OA
ATOM     18  O   UNL     1       1.718   4.825  21.219  0.00  0.00    +0.000 OA
ATOM     19  C   UNL     1       3.523   3.319  20.023  0.00  0.00    +0.000 C 
ENDBRANCH  12  13
ENDBRANCH   6  12
TORSDOF 3
ENDMDL
MODEL 2
REMARK VINA RESULT:      -7.7      1.446      1.856
REMARK  Name = 
REMARK  5 active torsions:
REMARK  status: ('A' for Active; 'I' for Inactive)
REMARK    1  A    between atoms: C_1  and  C_2
REMARK    2  A    between atoms: C_2  and  C_3
REMARK    3  A    between atoms: C_2  and  C_4
REMARK    4  A    between atoms: C_9  and  C_10
REMARK    5  A    between atoms: C_10  and  C_11
REMARK                            x       y       z     vdW  Elec       q    Type
REMARK                         _______ _______ _______ _____ _____    ______ ____
ROOT
ATOM      1  C   UNL     1       6.407   3.890  13.075  0.00  0.00    +0.000 A 
ATOM      2  N   UNL     1       7.457   4.638  12.746  0.00  0.00    +0.000 NA
ATOM      3  N   UNL     1       7.820   5.420  13.845  0.00  0.00    +0.000 NA
ATOM      4  C   UNL     1       6.968   5.116  14.775  0.00  0.00    +0.000 A 
ATOM      5  S   UNL     1       6.706   5.519  16.421  0.00  0.00    +0.000 S 
ATOM      6  C   UNL     1       5.370   4.341  16.374  0.00  0.00    +0.000 A 
ATOM      7  N   UNL     1       5.119   3.736  15.244  0.00  0.00    +0.000 NA
ATOM      8  N   UNL     1       6.056   4.196  14.366  0.00  0.00    +0.000 N 
ENDROOT
BRANCH   1  10
ATOM      9  C   UNL     1       4.561   3.348  11.501  0.00  0.00    +0.000 C 
ATOM     10  C   UNL     1       5.802   2.822  12.221  0.00  0.00    +0.000 C 
ATOM     11  C   UNL     1       6.772   2.180  11.236  0.00  0.00    +0.000 C 
ENDBRANCH   1  10
BRANCH   6  12
ATOM     12  C   UNL     1       4.619   4.044  17.648  0.00  0.00    +0.000 C 
BRANCH  12  13
ATOM     13  C   UNL     1       3.134   3.674  17.474  0.00  0.00    +0.000 C 
ATOM     14  C   UNL     1       2.215   4.843  17.898  0.00  0.00    +0.000 C 
ATOM     15  C   UNL     1       2.098   4.828  19.417  0.00  0.00    +0.000 C 
ATOM     16  S   UNL     1       2.044   3.101  19.857  0.00  0.00    +0.000 S 
ATOM     17  O   UNL     1       0.657   2.701  19.986  0.00  0.00    +0.000 OA
ATOM     18  O   UNL     1       3.023   2.859  20.893  0.00  0.00    +0.000 OA
ATOM     19  C   UNL     1       2.676   2.469  18.308  0.00  0.00    +0.000 C 
ENDBRANCH  12  13
ENDBRANCH   6  12
TORSDOF 3
ENDMDL
MODEL 3
REMARK VINA RESULT:      -7.5      0.954      1.193
REMARK  Name = 
REMARK  5 active torsions:
REMARK  status: ('A' for Active; 'I' for Inactive)
REMARK    1  A    between atoms: C_1  and  C_2
REMARK    2  A    between atoms: C_2  and  C_3
REMARK    3  A    between atoms: C_2  and  C_4
REMARK    4  A    between atoms: C_9  and  C_10
REMARK    5  A    between atoms: C_10  and  C_11
REMARK                            x       y       z     vdW  Elec       q    Type
REMARK                         _______ _______ _______ _____ _____    ______ ____
ROOT
ATOM      1  C   UNL     1       6.498   4.576  14.299  0.00  0.00    +0.000 A 
ATOM      2  N   UNL     1       7.628   5.268  14.419  0.00  0.00    +0.000 NA
ATOM      3  N   UNL     1       7.613   5.955  15.635  0.00  0.00    +0.000 NA
ATOM      4  C   UNL     1       6.475   5.656  16.181  0.00  0.00    +0.000 A 
ATOM      5  S   UNL     1       5.666   5.975  17.658  0.00  0.00    +0.000 S 
ATOM      6  C   UNL     1       4.383   4.898  17.052  0.00  0.00    +0.000 A 
ATOM      7  N   UNL     1       4.522   4.382  15.861  0.00  0.00    +0.000 NA
ATOM      8  N   UNL     1       5.727   4.828  15.406  0.00  0.00    +0.000 N 
ENDROOT
BRANCH   1  10
ATOM      9  C   UNL     1       4.761   3.811  12.693  0.00  0.00    +0.000 C 
ATOM     10  C   UNL     1       6.187   3.606  13.204  0.00  0.00    +0.000 C 
ATOM     11  C   UNL     1       7.186   3.618  12.052  0.00  0.00    +0.000 C 
ENDBRANCH   1  10
BRANCH   6  12
ATOM     12  C   UNL     1       3.218   4.579  17.956  0.00  0.00    +0.000 C 
BRANCH  12  13
ATOM     13  C   UNL     1       3.555   4.437  19.452  0.00  0.00    +0.000 C 
ATOM     14  C   UNL     1       4.118   3.032  19.766  0.00  0.00    +0.000 C 
ATOM     15  C   UNL     1       2.945   2.066  19.882  0.00  0.00    +0.000 C 
ATOM     16  S   UNL     1       1.659   2.999  20.690  0.00  0.00    +0.000 S 
ATOM     17  O   UNL     1       1.714   2.726  22.112  0.00  0.00    +0.000 OA
ATOM     18  O   UNL     1       0.443   2.869  19.920  0.00  0.00    +0.000 OA
ATOM     19  C   UNL     1       2.357   4.618  20.395  0.00  0.00    +0.000 C 
ENDBRANCH  12  13
ENDBRANCH   6  12
TORSDOF 3
ENDMDL
MODEL 4
REMARK VINA RESULT:      -7.4      0.989      1.279
REMARK  Name = 
REMARK  5 active torsions:
REMARK  status: ('A' for Active; 'I' for Inactive)
REMARK    1  A    between atoms: C_1  and  C_2
REMARK    2  A    between atoms: C_2  and  C_3
REMARK    3  A    between atoms: C_2  and  C_4
REMARK    4  A    between atoms: C_9  and  C_10
REMARK    5  A    between atoms: C_10  and  C_11
REMARK                            x       y       z     vdW  Elec       q    Type
REMARK                         _______ _______ _______ _____ _____    ______ ____
ROOT
ATOM      1  C   UNL     1       6.743   4.759  15.181  0.00  0.00    +0.000 A 
ATOM      2  N   UNL     1       7.918   4.785  15.804  0.00  0.00    +0.000 NA
ATOM      3  N   UNL     1       7.709   4.634  17.177  0.00  0.00    +0.000 NA
ATOM      4  C   UNL     1       6.423   4.538  17.316  0.00  0.00    +0.000 A 
ATOM      5  S   UNL     1       5.314   4.267  18.595  0.00  0.00    +0.000 S 
ATOM      6  C   UNL     1       4.048   4.279  17.341  0.00  0.00    +0.000 A 
ATOM      7  N   UNL     1       4.405   4.497  16.104  0.00  0.00    +0.000 NA
ATOM      8  N   UNL     1       5.762   4.627  16.133  0.00  0.00    +0.000 N 
ENDROOT
BRANCH   1  10
ATOM      9  C   UNL     1       7.820   5.206  12.986  0.00  0.00    +0.000 C 
ATOM     10  C   UNL     1       6.546   4.755  13.699  0.00  0.00    +0.000 C 
ATOM     11  C   UNL     1       6.047   3.429  13.136  0.00  0.00    +0.000 C 
ENDBRANCH   1  10
BRANCH   6  12
ATOM     12  C   UNL     1       2.625   3.980  17.745  0.00  0.00    +0.000 C 
BRANCH  12  13
ATOM     13  C   UNL     1       2.420   2.687  18.556  0.00  0.00    +0.000 C 
ATOM     14  C   UNL     1       0.922   2.447  18.854  0.00  0.00    +0.000 C 
ATOM     15  C   UNL     1       0.529   3.320  20.040  0.00  0.00    +0.000 C 
ATOM     16  S   UNL     1       1.942   3.282  21.127  0.00  0.00    +0.000 S 
ATOM     17  O   UNL     1       1.730   2.251  22.123  0.00  0.00    +0.000 OA
ATOM     18  O   UNL     1       2.290   4.640  21.477  0.00  0.00    +0.000 OA
ATOM     19  C   UNL     1       3.117   2.677  19.924  0.00  0.00    +0.000 C 
ENDBRANCH  12  13
ENDBRANCH   6  12
TORSDOF 3
ENDMDL
MODEL 5
REMARK VINA RESULT:      -7.4      0.964      1.500
REMARK  Name = 
REMARK  5 active torsions:
REMARK  status: ('A' for Active; 'I' for Inactive)
REMARK    1  A    between atoms: C_1  and  C_2
REMARK    2  A    between atoms: C_2  and  C_3
REMARK    3  A    between atoms: C_2  and  C_4
REMARK    4  A    between atoms: C_9  and  C_10
REMARK    5  A    between atoms: C_10  and  C_11
REMARK                            x       y       z     vdW  Elec       q    Type
REMARK                         _______ _______ _______ _____ _____    ______ ____
ROOT
ATOM      1  C   UNL     1       6.642   4.513  14.167  0.00  0.00    +0.000 A 
ATOM      2  N   UNL     1       7.579   5.447  14.302  0.00  0.00    +0.000 NA
ATOM      3  N   UNL     1       7.588   5.895  15.625  0.00  0.00    +0.000 NA
ATOM      4  C   UNL     1       6.651   5.222  16.218  0.00  0.00    +0.000 A 
ATOM      5  S   UNL     1       6.025   5.069  17.807  0.00  0.00    +0.000 S 
ATOM      6  C   UNL     1       4.959   3.809  17.139  0.00  0.00    +0.000 A 
ATOM      7  N   UNL     1       5.032   3.551  15.861  0.00  0.00    +0.000 NA
ATOM      8  N   UNL     1       6.012   4.367  15.378  0.00  0.00    +0.000 N 
ENDROOT
BRANCH   1  10
ATOM      9  C   UNL     1       4.931   3.726  12.545  0.00  0.00    +0.000 C 
ATOM     10  C   UNL     1       6.406   3.690  12.941  0.00  0.00    +0.000 C 
ATOM     11  C   UNL     1       7.297   4.057  11.759  0.00  0.00    +0.000 C 
ENDBRANCH   1  10
BRANCH   6  12
ATOM     12  C   UNL     1       4.055   3.049  18.080  0.00  0.00    +0.000 C 
BRANCH  12  13
ATOM     13  C   UNL     1       2.556   3.394  17.986  0.00  0.00    +0.000 C 
ATOM     14  C   UNL     1       2.340   4.922  17.900  0.00  0.00    +0.000 C 
ATOM     15  C   UNL     1       2.441   5.494  19.309  0.00  0.00    +0.000 C 
ATOM     16  S   UNL     1       1.666   4.277  20.356  0.00  0.00    +0.000 S 
ATOM     17  O   UNL     1       0.282   4.656  20.559  0.00  0.00    +0.000 OA
ATOM     18  O   UNL     1       2.559   3.978  21.453  0.00  0.00    +0.000 OA
ATOM     19  C   UNL     1       1.720   2.927  19.185  0.00  0.00    +0.000 C 
ENDBRANCH  12  13
ENDBRANCH   6  12
TORSDOF 3
ENDMDL
MODEL 6
REMARK VINA RESULT:      -7.4      1.720      3.094
REMARK  Name = 
REMARK  5 active torsions:
REMARK  status: ('A' for Active; 'I' for Inactive)
REMARK    1  A    between atoms: C_1  and  C_2
REMARK    2  A    between atoms: C_2  and  C_3
REMARK    3  A    between atoms: C_2  and  C_4
REMARK    4  A    between atoms: C_9  and  C_10
REMARK    5  A    between atoms: C_10  and  C_11
REMARK                            x       y       z     vdW  Elec       q    Type
REMARK                         _______ _______ _______ _____ _____    ______ ____
ROOT
ATOM      1  C   UNL     1       7.035   6.121  17.012  0.00  0.00    +0.000 A 
ATOM      2  N   UNL     1       7.707   6.085  15.865  0.00  0.00    +0.000 NA
ATOM      3  N   UNL     1       7.040   5.242  14.973  0.00  0.00    +0.000 NA
ATOM      4  C   UNL     1       6.009   4.804  15.626  0.00  0.00    +0.000 A 
ATOM      5  S   UNL     1       4.646   3.813  15.307  0.00  0.00    +0.000 S 
ATOM      6  C   UNL     1       4.126   4.198  16.967  0.00  0.00    +0.000 A 
ATOM      7  N   UNL     1       4.900   4.955  17.697  0.00  0.00    +0.000 NA
ATOM      8  N   UNL     1       5.952   5.285  16.895  0.00  0.00    +0.000 N 
ENDROOT
BRANCH   1  10
ATOM      9  C   UNL     1       8.122   6.243  19.245  0.00  0.00    +0.000 C 
ATOM     10  C   UNL     1       7.347   7.010  18.174  0.00  0.00    +0.000 C 
ATOM     11  C   UNL     1       8.066   8.301  17.800  0.00  0.00    +0.000 C 
ENDBRANCH   1  10
BRANCH   6  12
ATOM     12  C   UNL     1       2.789   3.686  17.446  0.00  0.00    +0.000 C 
BRANCH  12  13
ATOM     13  C   UNL     1       2.845   2.569  18.505  0.00  0.00    +0.000 C 
ATOM     14  C   UNL     1       1.425   2.093  18.888  0.00  0.00    +0.000 C 
ATOM     15  C   UNL     1       0.846   3.087  19.886  0.00  0.00    +0.000 C 
ATOM     16  S   UNL     1       2.221   3.558  20.918  0.00  0.00    +0.000 S 
ATOM     17  O   UNL     1       2.214   2.727  22.105  0.00  0.00    +0.000 OA
ATOM     18  O   UNL     1       2.278   5.001  20.980  0.00  0.00    +0.000 OA
ATOM     19  C   UNL     1       3.512   2.977  19.825  0.00  0.00    +0.000 C 
ENDBRANCH  12  13
ENDBRANCH   6  12
TORSDOF 3
ENDMDL
MODEL 7
REMARK VINA RESULT:      -7.2      1.838      2.258
REMARK  Name = 
REMARK  5 active torsions:
REMARK  status: ('A' for Active; 'I' for Inactive)
REMARK    1  A    between atoms: C_1  and  C_2
REMARK    2  A    between atoms: C_2  and  C_3
REMARK    3  A    between atoms: C_2  and  C_4
REMARK    4  A    between atoms: C_9  and  C_10
REMARK    5  A    between atoms: C_10  and  C_11
REMARK                            x       y       z     vdW  Elec       q    Type
REMARK                         _______ _______ _______ _____ _____    ______ ____
ROOT
ATOM      1  C   UNL     1       6.725   4.913  15.638  0.00  0.00    +0.000 A 
ATOM      2  N   UNL     1       7.891   4.424  16.052  0.00  0.00    +0.000 NA
ATOM      3  N   UNL     1       7.916   4.428  17.449  0.00  0.00    +0.000 NA
ATOM      4  C   UNL     1       6.775   4.929  17.808  0.00  0.00    +0.000 A 
ATOM      5  S   UNL     1       5.939   5.231  19.274  0.00  0.00    +0.000 S 
ATOM      6  C   UNL     1       4.584   5.774  18.253  0.00  0.00    +0.000 A 
ATOM      7  N   UNL     1       4.746   5.767  16.957  0.00  0.00    +0.000 NA
ATOM      8  N   UNL     1       5.998   5.270  16.747  0.00  0.00    +0.000 N 
ENDROOT
BRANCH   1  10
ATOM      9  C   UNL     1       7.440   5.070  13.263  0.00  0.00    +0.000 C 
ATOM     10  C   UNL     1       6.254   4.951  14.219  0.00  0.00    +0.000 C 
ATOM     11  C   UNL     1       5.352   3.786  13.826  0.00  0.00    +0.000 C 
ENDBRANCH   1  10
BRANCH   6  12
ATOM     12  C   UNL     1       3.287   6.166  18.917  0.00  0.00    +0.000 C 
BRANCH  12  13
ATOM     13  C   UNL     1       2.105   5.205  18.686  0.00  0.00    +0.000 C 
ATOM     14  C   UNL     1       1.343   4.932  20.003  0.00  0.00    +0.000 C 
ATOM     15  C   UNL     1       2.116   3.880  20.788  0.00  0.00    +0.000 C 
ATOM     16  S   UNL     1       2.732   2.748  19.556  0.00  0.00    +0.000 S 
ATOM     17  O   UNL     1       1.807   1.638  19.445  0.00  0.00    +0.000 OA
ATOM     18  O   UNL     1       4.149   2.559  19.772  0.00  0.00    +0.000 OA
ATOM     19  C   UNL     1       2.502   3.824  18.147  0.00  0.00    +0.000 C 
ENDBRANCH  12  13
ENDBRANCH   6  12
TORSDOF 3
ENDMDL
MODEL 8
REMARK VINA RESULT:      -7.2      1.273      1.459
REMARK  Name = 
REMARK  5 active torsions:
REMARK  status: ('A' for Active; 'I' for Inactive)
REMARK    1  A    between atoms: C_1  and  C_2
REMARK    2  A    between atoms: C_2  and  C_3
REMARK    3  A    between atoms: C_2  and  C_4
REMARK    4  A    between atoms: C_9  and  C_10
REMARK    5  A    between atoms: C_10  and  C_11
REMARK                            x       y       z     vdW  Elec       q    Type
REMARK                         _______ _______ _______ _____ _____    ______ ____
ROOT
ATOM      1  C   UNL     1       6.730   4.611  14.475  0.00  0.00    +0.000 A 
ATOM      2  N   UNL     1       7.632   5.588  14.469  0.00  0.00    +0.000 NA
ATOM      3  N   UNL     1       7.719   6.134  15.752  0.00  0.00    +0.000 NA
ATOM      4  C   UNL     1       6.860   5.471  16.463  0.00  0.00    +0.000 A 
ATOM      5  S   UNL     1       6.363   5.413  18.102  0.00  0.00    +0.000 S 
ATOM      6  C   UNL     1       5.306   4.066  17.611  0.00  0.00    +0.000 A 
ATOM      7  N   UNL     1       5.295   3.716  16.353  0.00  0.00    +0.000 NA
ATOM      8  N   UNL     1       6.199   4.531  15.739  0.00  0.00    +0.000 N 
ENDROOT
BRANCH   1  10
ATOM      9  C   UNL     1       4.952   3.718  12.983  0.00  0.00    +0.000 C 
ATOM     10  C   UNL     1       6.440   3.690  13.332  0.00  0.00    +0.000 C 
ATOM     11  C   UNL     1       7.295   3.938  12.094  0.00  0.00    +0.000 C 
ENDBRANCH   1  10
BRANCH   6  12
ATOM     12  C   UNL     1       4.510   3.344  18.671  0.00  0.00    +0.000 C 
BRANCH  12  13
ATOM     13  C   UNL     1       3.355   2.465  18.153  0.00  0.00    +0.000 C 
ATOM     14  C   UNL     1       2.419   3.268  17.221  0.00  0.00    +0.000 C 
ATOM     15  C   UNL     1       1.477   4.091  18.090  0.00  0.00    +0.000 C 
ATOM     16  S   UNL     1       1.097   3.040  19.479  0.00  0.00    +0.000 S 
ATOM     17  O   UNL     1      -0.146   2.347  19.207  0.00  0.00    +0.000 OA
ATOM     18  O   UNL     1       1.319   3.787  20.696  0.00  0.00    +0.000 OA
ATOM     19  C   UNL     1       2.449   1.893  19.252  0.00  0.00    +0.000 C 
ENDBRANCH  12  13
ENDBRANCH   6  12
TORSDOF 3
ENDMDL
MODEL 9
REMARK VINA RESULT:      -7.1      1.414      2.195
REMARK  Name = 
REMARK  5 active torsions:
REMARK  status: ('A' for Active; 'I' for Inactive)
REMARK    1  A    between atoms: C_1  and  C_2
REMARK    2  A    between atoms: C_2  and  C_3
REMARK    3  A    between atoms: C_2  and  C_4
REMARK    4  A    between atoms: C_9  and  C_10
REMARK    5  A    between atoms: C_10  and  C_11
REMARK                            x       y       z     vdW  Elec       q    Type
REMARK                         _______ _______ _______ _____ _____    ______ ____
ROOT
ATOM      1  C   UNL     1       6.529   4.194  12.848  0.00  0.00    +0.000 A 
ATOM      2  N   UNL     1       7.630   4.933  12.735  0.00  0.00    +0.000 NA
ATOM      3  N   UNL     1       7.969   5.438  13.992  0.00  0.00    +0.000 NA
ATOM      4  C   UNL     1       7.055   4.992  14.796  0.00  0.00    +0.000 A 
ATOM      5  S   UNL     1       6.723   5.045  16.477  0.00  0.00    +0.000 S 
ATOM      6  C   UNL     1       5.338   3.985  16.118  0.00  0.00    +0.000 A 
ATOM      7  N   UNL     1       5.120   3.653  14.874  0.00  0.00    +0.000 NA
ATOM      8  N   UNL     1       6.124   4.236  14.158  0.00  0.00    +0.000 N 
ENDROOT
BRANCH   1  10
ATOM      9  C   UNL     1       6.437   1.935  11.815  0.00  0.00    +0.000 C 
ATOM     10  C   UNL     1       5.921   3.372  11.757  0.00  0.00    +0.000 C 
ATOM     11  C   UNL     1       4.397   3.402  11.724  0.00  0.00    +0.000 C 
ENDBRANCH   1  10
BRANCH   6  12
ATOM     12  C   UNL     1       4.505   3.466  17.264  0.00  0.00    +0.000 C 
BRANCH  12  13
ATOM     13  C   UNL     1       3.115   4.111  17.423  0.00  0.00    +0.000 C 
ATOM     14  C   UNL     1       3.219   5.497  18.101  0.00  0.00    +0.000 C 
ATOM     15  C   UNL     1       3.352   5.281  19.603  0.00  0.00    +0.000 C 
ATOM     16  S   UNL     1       2.288   3.897  19.965  0.00  0.00    +0.000 S 
ATOM     17  O   UNL     1       1.000   4.405  20.395  0.00  0.00    +0.000 OA
ATOM     18  O   UNL     1       3.037   2.929  20.734  0.00  0.00    +0.000 OA
ATOM     19  C   UNL     1       2.134   3.305  18.285  0.00  0.00    +0.000 C 
ENDBRANCH  12  13
ENDBRANCH   6  12
TORSDOF 3
ENDMDL
