MODEL 1
REMARK VINA RESULT:     -10.1      0.000      0.000
REMARK  Name = 
REMARK  2 active torsions:
REMARK  status: ('A' for Active; 'I' for Inactive)
REMARK    1  A    between atoms: N_2  and  C_4
REMARK    2  A    between atoms: C_7  and  C_8
REMARK                            x       y       z     vdW  Elec       q    Type
REMARK                         _______ _______ _______ _____ _____    ______ ____
ROOT
ATOM      1  C   UNL     1       3.259   6.418  18.224  0.00  0.00    +0.000 C 
ATOM      2  N   UNL     1       4.066   6.892  17.114  0.00  0.00    +0.000 N 
ATOM      3  C   UNL     1       4.779   5.771  16.532  0.00  0.00    +0.000 A 
ATOM      4  C   UNL     1       5.640   6.057  15.479  0.00  0.00    +0.000 A 
ATOM      5  C   UNL     1       6.335   5.019  14.866  0.00  0.00    +0.000 A 
ATOM      6  C   UNL     1       6.228   3.702  15.347  0.00  0.00    +0.000 A 
ATOM      7  C   UNL     1       5.376   3.376  16.420  0.00  0.00    +0.000 A 
ATOM      8  C   UNL     1       4.611   4.403  16.973  0.00  0.00    +0.000 A 
ATOM      9  N   UNL     1       3.422   4.141  17.709  0.00  0.00    +0.000 N 
ATOM     10  C   UNL     1       2.550   5.196  17.802  0.00  0.00    +0.000 A 
ATOM     11  C   UNL     1       1.318   4.601  17.729  0.00  0.00    +0.000 A 
ATOM     12  C   UNL     1       1.555   3.622  18.751  0.00  0.00    +0.000 A 
ATOM     13  C   UNL     1       0.725   3.328  19.845  0.00  0.00    +0.000 A 
ATOM     14  C   UNL     1       1.359   3.178  21.074  0.00  0.00    +0.000 A 
ATOM     15  C   UNL     1       2.750   3.043  21.157  0.00  0.00    +0.000 A 
ATOM     16  C   UNL     1       3.581   3.032  20.014  0.00  0.00    +0.000 A 
ATOM     17  C   UNL     1       2.964   3.407  18.811  0.00  0.00    +0.000 A 
ATOM     18  H   UNL     1       3.479   7.319  16.396  0.00  0.00    +0.000 HD
ENDROOT
BRANCH   1  22
ATOM     19  C   UNL     1       0.858   9.086  20.575  0.00  0.00    +0.000 A 
ATOM     20  C   UNL     1       1.161   9.426  19.247  0.00  0.00    +0.000 A 
ATOM     21  C   UNL     1       1.947   8.575  18.470  0.00  0.00    +0.000 A 
ATOM     22  C   UNL     1       2.430   7.386  19.011  0.00  0.00    +0.000 A 
ATOM     23  C   UNL     1       2.041   7.016  20.319  0.00  0.00    +0.000 A 
ATOM     24  C   UNL     1       1.271   7.868  21.110  0.00  0.00    +0.000 A 
BRANCH  19  26
ATOM     25  O   UNL     1      -0.755  10.717  20.899  0.00  0.00    +0.000 OA
ATOM     26  N   UNL     1       0.141  10.043  21.421  0.00  0.00    +0.000 N 
ATOM     27  O   UNL     1       0.486  10.131  22.611  0.00  0.00    +0.000 OA
ENDBRANCH  19  26
ENDBRANCH   1  22
TORSDOF 2
ENDMDL
MODEL 2
REMARK VINA RESULT:      -7.7      3.730      6.449
REMARK  Name = 
REMARK  2 active torsions:
REMARK  status: ('A' for Active; 'I' for Inactive)
REMARK    1  A    between atoms: N_2  and  C_4
REMARK    2  A    between atoms: C_7  and  C_8
REMARK                            x       y       z     vdW  Elec       q    Type
REMARK                         _______ _______ _______ _____ _____    ______ ____
ROOT
ATOM      1  C   UNL     1       2.960   6.457  18.289  0.00  0.00    +0.000 C 
ATOM      2  N   UNL     1       2.798   7.886  18.480  0.00  0.00    +0.000 N 
ATOM      3  C   UNL     1       1.837   8.118  19.541  0.00  0.00    +0.000 A 
ATOM      4  C   UNL     1       1.527   9.443  19.826  0.00  0.00    +0.000 A 
ATOM      5  C   UNL     1       0.627   9.729  20.847  0.00  0.00    +0.000 A 
ATOM      6  C   UNL     1      -0.021   8.692  21.543  0.00  0.00    +0.000 A 
ATOM      7  C   UNL     1       0.257   7.337  21.273  0.00  0.00    +0.000 A 
ATOM      8  C   UNL     1       1.228   7.056  20.312  0.00  0.00    +0.000 A 
ATOM      9  N   UNL     1       1.912   5.809  20.279  0.00  0.00    +0.000 N 
ATOM     10  C   UNL     1       3.110   5.819  19.610  0.00  0.00    +0.000 A 
ATOM     11  C   UNL     1       3.895   4.974  20.349  0.00  0.00    +0.000 A 
ATOM     12  C   UNL     1       2.967   3.881  20.378  0.00  0.00    +0.000 A 
ATOM     13  C   UNL     1       3.236   2.537  20.068  0.00  0.00    +0.000 A 
ATOM     14  C   UNL     1       2.297   1.892  19.269  0.00  0.00    +0.000 A 
ATOM     15  C   UNL     1       1.037   2.457  19.035  0.00  0.00    +0.000 A 
ATOM     16  C   UNL     1       0.641   3.688  19.603  0.00  0.00    +0.000 A 
ATOM     17  C   UNL     1       1.661   4.431  20.216  0.00  0.00    +0.000 A 
ATOM     18  H   UNL     1       3.686   8.320  18.739  0.00  0.00    +0.000 HD
ENDROOT
BRANCH   1  22
ATOM     19  C   UNL     1       5.641   5.127  15.215  0.00  0.00    +0.000 A 
ATOM     20  C   UNL     1       4.913   4.176  15.949  0.00  0.00    +0.000 A 
ATOM     21  C   UNL     1       4.043   4.589  16.957  0.00  0.00    +0.000 A 
ATOM     22  C   UNL     1       3.894   5.945  17.235  0.00  0.00    +0.000 A 
ATOM     23  C   UNL     1       4.565   6.892  16.428  0.00  0.00    +0.000 A 
ATOM     24  C   UNL     1       5.452   6.489  15.430  0.00  0.00    +0.000 A 
BRANCH  19  26
ATOM     25  O   UNL     1       7.708   5.310  14.182  0.00  0.00    +0.000 OA
ATOM     26  N   UNL     1       6.645   4.679  14.247  0.00  0.00    +0.000 N 
ATOM     27  O   UNL     1       6.363   3.699  13.537  0.00  0.00    +0.000 OA
ENDBRANCH  19  26
ENDBRANCH   1  22
TORSDOF 2
ENDMDL
MODEL 3
REMARK VINA RESULT:      -7.7      3.896      6.529
REMARK  Name = 
REMARK  2 active torsions:
REMARK  status: ('A' for Active; 'I' for Inactive)
REMARK    1  A    between atoms: N_2  and  C_4
REMARK    2  A    between atoms: C_7  and  C_8
REMARK                            x       y       z     vdW  Elec       q    Type
REMARK                         _______ _______ _______ _____ _____    ______ ____
ROOT
ATOM      1  C   UNL     1       3.474   6.147  17.815  0.00  0.00    +0.000 C 
ATOM      2  N   UNL     1       3.161   7.552  18.002  0.00  0.00    +0.000 N 
ATOM      3  C   UNL     1       2.290   7.697  19.152  0.00  0.00    +0.000 A 
ATOM      4  C   UNL     1       1.853   8.983  19.448  0.00  0.00    +0.000 A 
ATOM      5  C   UNL     1       1.032   9.187  20.552  0.00  0.00    +0.000 A 
ATOM      6  C   UNL     1       0.587   8.099  21.325  0.00  0.00    +0.000 A 
ATOM      7  C   UNL     1       0.997   6.780  21.047  0.00  0.00    +0.000 A 
ATOM      8  C   UNL     1       1.894   6.590  19.996  0.00  0.00    +0.000 A 
ATOM      9  N   UNL     1       2.716   5.432  19.910  0.00  0.00    +0.000 N 
ATOM     10  C   UNL     1       3.831   5.567  19.122  0.00  0.00    +0.000 A 
ATOM     11  C   UNL     1       4.782   4.840  19.788  0.00  0.00    +0.000 A 
ATOM     12  C   UNL     1       3.999   3.646  19.928  0.00  0.00    +0.000 A 
ATOM     13  C   UNL     1       4.395   2.336  19.611  0.00  0.00    +0.000 A 
ATOM     14  C   UNL     1       3.466   1.564  18.921  0.00  0.00    +0.000 A 
ATOM     15  C   UNL     1       2.130   1.969  18.809  0.00  0.00    +0.000 A 
ATOM     16  C   UNL     1       1.648   3.159  19.398  0.00  0.00    +0.000 A 
ATOM     17  C   UNL     1       2.627   4.034  19.892  0.00  0.00    +0.000 A 
ATOM     18  H   UNL     1       4.012   8.095  18.162  0.00  0.00    +0.000 HD
ENDROOT
BRANCH   1  22
ATOM     19  C   UNL     1       5.979   4.793  14.605  0.00  0.00    +0.000 A 
ATOM     20  C   UNL     1       5.962   6.159  14.933  0.00  0.00    +0.000 A 
ATOM     21  C   UNL     1       5.148   6.618  15.968  0.00  0.00    +0.000 A 
ATOM     22  C   UNL     1       4.353   5.723  16.678  0.00  0.00    +0.000 A 
ATOM     23  C   UNL     1       4.450   4.341  16.395  0.00  0.00    +0.000 A 
ATOM     24  C   UNL     1       5.247   3.873  15.350  0.00  0.00    +0.000 A 
BRANCH  19  26
ATOM     25  O   UNL     1       7.706   5.020  13.077  0.00  0.00    +0.000 OA
ATOM     26  N   UNL     1       6.737   4.339  13.437  0.00  0.00    +0.000 N 
ATOM     27  O   UNL     1       6.353   3.305  12.868  0.00  0.00    +0.000 OA
ENDBRANCH  19  26
ENDBRANCH   1  22
TORSDOF 2
ENDMDL
MODEL 4
REMARK VINA RESULT:      -7.6      4.669      7.564
REMARK  Name = 
REMARK  2 active torsions:
REMARK  status: ('A' for Active; 'I' for Inactive)
REMARK    1  A    between atoms: N_2  and  C_4
REMARK    2  A    between atoms: C_7  and  C_8
REMARK                            x       y       z     vdW  Elec       q    Type
REMARK                         _______ _______ _______ _____ _____    ______ ____
ROOT
ATOM      1  C   UNL     1       4.316   4.055  16.766  0.00  0.00    +0.000 C 
ATOM      2  N   UNL     1       3.054   3.359  16.942  0.00  0.00    +0.000 N 
ATOM      3  C   UNL     1       2.583   3.565  18.298  0.00  0.00    +0.000 A 
ATOM      4  C   UNL     1       1.401   2.925  18.653  0.00  0.00    +0.000 A 
ATOM      5  C   UNL     1       0.889   3.101  19.935  0.00  0.00    +0.000 A 
ATOM      6  C   UNL     1       1.590   3.861  20.889  0.00  0.00    +0.000 A 
ATOM      7  C   UNL     1       2.797   4.513  20.569  0.00  0.00    +0.000 A 
ATOM      8  C   UNL     1       3.260   4.409  19.258  0.00  0.00    +0.000 A 
ATOM      9  N   UNL     1       4.167   5.356  18.705  0.00  0.00    +0.000 N 
ATOM     10  C   UNL     1       4.189   5.410  17.334  0.00  0.00    +0.000 A 
ATOM     11  C   UNL     1       4.364   6.742  17.069  0.00  0.00    +0.000 A 
ATOM     12  C   UNL     1       5.497   6.927  17.929  0.00  0.00    +0.000 A 
ATOM     13  C   UNL     1       6.716   7.540  17.597  0.00  0.00    +0.000 A 
ATOM     14  C   UNL     1       7.868   6.888  18.026  0.00  0.00    +0.000 A 
ATOM     15  C   UNL     1       7.805   5.854  18.967  0.00  0.00    +0.000 A 
ATOM     16  C   UNL     1       6.587   5.428  19.545  0.00  0.00    +0.000 A 
ATOM     17  C   UNL     1       5.422   5.931  18.947  0.00  0.00    +0.000 A 
ATOM     18  H   UNL     1       2.351   3.713  16.291  0.00  0.00    +0.000 HD
ENDROOT
BRANCH   1  22
ATOM     19  C   UNL     1       6.461   3.946  13.051  0.00  0.00    +0.000 A 
ATOM     20  C   UNL     1       5.089   3.645  13.060  0.00  0.00    +0.000 A 
ATOM     21  C   UNL     1       4.377   3.668  14.259  0.00  0.00    +0.000 A 
ATOM     22  C   UNL     1       5.026   3.991  15.448  0.00  0.00    +0.000 A 
ATOM     23  C   UNL     1       6.385   4.378  15.408  0.00  0.00    +0.000 A 
ATOM     24  C   UNL     1       7.111   4.341  14.218  0.00  0.00    +0.000 A 
BRANCH  19  26
ATOM     25  O   UNL     1       7.594   4.825  11.231  0.00  0.00    +0.000 OA
ATOM     26  N   UNL     1       7.226   3.796  11.811  0.00  0.00    +0.000 N 
ATOM     27  O   UNL     1       7.446   2.642  11.407  0.00  0.00    +0.000 OA
ENDBRANCH  19  26
ENDBRANCH   1  22
TORSDOF 2
ENDMDL
MODEL 5
REMARK VINA RESULT:      -7.4      6.087      9.707
REMARK  Name = 
REMARK  2 active torsions:
REMARK  status: ('A' for Active; 'I' for Inactive)
REMARK    1  A    between atoms: N_2  and  C_4
REMARK    2  A    between atoms: C_7  and  C_8
REMARK                            x       y       z     vdW  Elec       q    Type
REMARK                         _______ _______ _______ _____ _____    ______ ____
ROOT
ATOM      1  C   UNL     1      -2.808  11.650  18.966  0.00  0.00    +0.000 C 
ATOM      2  N   UNL     1      -3.896  12.406  19.559  0.00  0.00    +0.000 N 
ATOM      3  C   UNL     1      -3.536  12.774  20.914  0.00  0.00    +0.000 A 
ATOM      4  C   UNL     1      -4.490  13.468  21.648  0.00  0.00    +0.000 A 
ATOM      5  C   UNL     1      -4.195  13.866  22.948  0.00  0.00    +0.000 A 
ATOM      6  C   UNL     1      -2.971  13.512  23.545  0.00  0.00    +0.000 A 
ATOM      7  C   UNL     1      -1.985  12.797  22.838  0.00  0.00    +0.000 A 
ATOM      8  C   UNL     1      -2.248  12.480  21.505  0.00  0.00    +0.000 A 
ATOM      9  N   UNL     1      -1.204  12.192  20.582  0.00  0.00    +0.000 N 
ATOM     10  C   UNL     1      -1.539  12.341  19.260  0.00  0.00    +0.000 A 
ATOM     11  C   UNL     1      -0.397  12.846  18.696  0.00  0.00    +0.000 A 
ATOM     12  C   UNL     1       0.492  11.852  19.224  0.00  0.00    +0.000 A 
ATOM     13  C   UNL     1       1.447  11.109  18.509  0.00  0.00    +0.000 A 
ATOM     14  C   UNL     1       1.503   9.749  18.793  0.00  0.00    +0.000 A 
ATOM     15  C   UNL     1       0.857   9.217  19.915  0.00  0.00    +0.000 A 
ATOM     16  C   UNL     1       0.135  10.020  20.826  0.00  0.00    +0.000 A 
ATOM     17  C   UNL     1      -0.105  11.340  20.414  0.00  0.00    +0.000 A 
ATOM     18  H   UNL     1      -4.079  13.257  19.023  0.00  0.00    +0.000 HD
ENDROOT
BRANCH   1  22
ATOM     19  C   UNL     1      -3.298  10.236  14.944  0.00  0.00    +0.000 A 
ATOM     20  C   UNL     1      -2.282   9.689  15.745  0.00  0.00    +0.000 A 
ATOM     21  C   UNL     1      -2.103  10.142  17.052  0.00  0.00    +0.000 A 
ATOM     22  C   UNL     1      -2.933  11.135  17.564  0.00  0.00    +0.000 A 
ATOM     23  C   UNL     1      -4.006  11.611  16.777  0.00  0.00    +0.000 A 
ATOM     24  C   UNL     1      -4.183  11.178  15.463  0.00  0.00    +0.000 A 
BRANCH  19  26
ATOM     25  O   UNL     1      -4.525   9.798  13.028  0.00  0.00    +0.000 OA
ATOM     26  N   UNL     1      -3.397   9.847  13.536  0.00  0.00    +0.000 N 
ATOM     27  O   UNL     1      -2.343   9.573  12.939  0.00  0.00    +0.000 OA
ENDBRANCH  19  26
ENDBRANCH   1  22
TORSDOF 2
ENDMDL
MODEL 6
REMARK VINA RESULT:      -7.2      6.429     10.027
REMARK  Name = 
REMARK  2 active torsions:
REMARK  status: ('A' for Active; 'I' for Inactive)
REMARK    1  A    between atoms: N_2  and  C_4
REMARK    2  A    between atoms: C_7  and  C_8
REMARK                            x       y       z     vdW  Elec       q    Type
REMARK                         _______ _______ _______ _____ _____    ______ ____
ROOT
ATOM      1  C   UNL     1      -3.335  11.716  19.461  0.00  0.00    +0.000 C 
ATOM      2  N   UNL     1      -4.494  12.335  20.077  0.00  0.00    +0.000 N 
ATOM      3  C   UNL     1      -4.196  12.627  21.466  0.00  0.00    +0.000 A 
ATOM      4  C   UNL     1      -5.221  13.184  22.222  0.00  0.00    +0.000 A 
ATOM      5  C   UNL     1      -4.989  13.505  23.555  0.00  0.00    +0.000 A 
ATOM      6  C   UNL     1      -3.754  13.208  24.159  0.00  0.00    +0.000 A 
ATOM      7  C   UNL     1      -2.696  12.631  23.429  0.00  0.00    +0.000 A 
ATOM      8  C   UNL     1      -2.902  12.395  22.070  0.00  0.00    +0.000 A 
ATOM      9  N   UNL     1      -1.818  12.263  21.158  0.00  0.00    +0.000 N 
ATOM     10  C   UNL     1      -2.134  12.484  19.841  0.00  0.00    +0.000 A 
ATOM     11  C   UNL     1      -1.026  13.121  19.349  0.00  0.00    +0.000 A 
ATOM     12  C   UNL     1      -0.069  12.165  19.827  0.00  0.00    +0.000 A 
ATOM     13  C   UNL     1       0.959  11.559  19.087  0.00  0.00    +0.000 A 
ATOM     14  C   UNL     1       1.122  10.190  19.271  0.00  0.00    +0.000 A 
ATOM     15  C   UNL     1       0.497   9.524  20.333  0.00  0.00    +0.000 A 
ATOM     16  C   UNL     1      -0.309  10.195  21.279  0.00  0.00    +0.000 A 
ATOM     17  C   UNL     1      -0.648  11.518  20.959  0.00  0.00    +0.000 A 
ATOM     18  H   UNL     1      -4.736  13.206  19.601  0.00  0.00    +0.000 HD
ENDROOT
BRANCH   1  22
ATOM     19  C   UNL     1      -3.342  10.481  15.353  0.00  0.00    +0.000 A 
ATOM     20  C   UNL     1      -4.343  11.355  15.808  0.00  0.00    +0.000 A 
ATOM     21  C   UNL     1      -4.361  11.761  17.142  0.00  0.00    +0.000 A 
ATOM     22  C   UNL     1      -3.385  11.301  18.023  0.00  0.00    +0.000 A 
ATOM     23  C   UNL     1      -2.335  10.495  17.528  0.00  0.00    +0.000 A 
ATOM     24  C   UNL     1      -2.317  10.069  16.200  0.00  0.00    +0.000 A 
BRANCH  19  26
ATOM     25  O   UNL     1      -2.339   9.670  13.428  0.00  0.00    +0.000 OA
ATOM     26  N   UNL     1      -3.405   9.960  13.985  0.00  0.00    +0.000 N 
ATOM     27  O   UNL     1      -4.525   9.857  13.459  0.00  0.00    +0.000 OA
ENDBRANCH  19  26
ENDBRANCH   1  22
TORSDOF 2
ENDMDL
