MODEL 1
REMARK VINA RESULT:      -8.0      0.000      0.000
REMARK  Name = 
REMARK  7 active torsions:
REMARK  status: ('A' for Active; 'I' for Inactive)
REMARK    1  A    between atoms: C_1  and  O_2
REMARK    2  A    between atoms: O_2  and  C_3
REMARK    3  A    between atoms: C_3  and  C_4
REMARK    4  A    between atoms: N_10  and  C_11
REMARK    5  A    between atoms: C_11  and  C_12
REMARK    6  A    between atoms: C_15  and  C_16
REMARK    7  A    between atoms: N_19  and  C_20
REMARK                            x       y       z     vdW  Elec       q    Type
REMARK                         _______ _______ _______ _____ _____    ______ ____
ROOT
ATOM      1  C   UNL     1       2.702   3.619  18.625  0.00  0.00    +0.000 C 
ATOM      2  C   UNL     1       2.443   4.819  19.588  0.00  0.00    +0.000 C 
ATOM      3  O   UNL     1       1.621   4.849  20.493  0.00  0.00    +0.000 OA
ATOM      4  N   UNL     1       3.275   5.878  19.201  0.00  0.00    +0.000 N 
ATOM      5  C   UNL     1       3.941   5.578  18.008  0.00  0.00    +0.000 A 
ATOM      6  C   UNL     1       4.766   6.389  17.250  0.00  0.00    +0.000 A 
ATOM      7  C   UNL     1       5.296   5.866  16.068  0.00  0.00    +0.000 A 
ATOM      8  C   UNL     1       4.989   4.559  15.663  0.00  0.00    +0.000 A 
ATOM      9  C   UNL     1       4.146   3.754  16.430  0.00  0.00    +0.000 A 
ATOM     10  C   UNL     1       3.627   4.277  17.609  0.00  0.00    +0.000 A 
ENDROOT
BRANCH   1  11
ATOM     11  C   UNL     1       3.454   2.541  19.442  0.00  0.00    +0.000 C 
ATOM     12  F   UNL     1       3.550   1.364  18.767  0.00  0.00    +0.000 F 
ATOM     13  F   UNL     1       4.732   2.896  19.734  0.00  0.00    +0.000 F 
ATOM     14  F   UNL     1       2.864   2.252  20.626  0.00  0.00    +0.000 F 
ENDBRANCH   1  11
BRANCH   1  16
ATOM     15  C   UNL     1       0.593   2.430  18.599  0.00  0.00    +0.000 C 
ATOM     16  O   UNL     1       1.563   3.171  17.873  0.00  0.00    +0.000 OA
ENDBRANCH   1  16
BRANCH   4  17
ATOM     17  C   UNL     1       3.287   7.170  19.856  0.00  0.00    +0.000 C 
BRANCH  17  18
ATOM     18  C   UNL     1       2.150   8.076  19.451  0.00  0.00    +0.000 A 
ATOM     19  C   UNL     1       1.947   8.469  18.120  0.00  0.00    +0.000 A 
ATOM     20  C   UNL     1       0.828   9.235  17.762  0.00  0.00    +0.000 A 
ATOM     21  C   UNL     1      -0.105   9.634  18.727  0.00  0.00    +0.000 A 
ATOM     22  C   UNL     1       0.116   9.274  20.059  0.00  0.00    +0.000 A 
ATOM     23  C   UNL     1       1.227   8.509  20.405  0.00  0.00    +0.000 A 
ATOM     24  F   UNL     1       1.374   8.151  21.688  0.00  0.00    +0.000 F 
BRANCH  21  25
ATOM     25  C   UNL     1      -1.292  10.381  18.347  0.00  0.00    +0.000 A 
ATOM     26  C   UNL     1      -1.928  11.496  18.946  0.00  0.00    +0.000 A 
ATOM     27  N   UNL     1      -2.999  11.910  18.265  0.00  0.00    +0.000 NA
ATOM     28  N   UNL     1      -3.059  11.060  17.223  0.00  0.00    +0.000 N 
ATOM     29  C   UNL     1      -4.097  11.190  16.233  0.00  0.00    +0.000 C 
ATOM     30  C   UNL     1      -2.061  10.129  17.228  0.00  0.00    +0.000 A 
ENDBRANCH  21  25
ENDBRANCH  17  18
ENDBRANCH   4  17
TORSDOF 5
ENDMDL
MODEL 2
REMARK VINA RESULT:      -8.0      3.742      8.597
REMARK  Name = 
REMARK  7 active torsions:
REMARK  status: ('A' for Active; 'I' for Inactive)
REMARK    1  A    between atoms: C_1  and  O_2
REMARK    2  A    between atoms: O_2  and  C_3
REMARK    3  A    between atoms: C_3  and  C_4
REMARK    4  A    between atoms: N_10  and  C_11
REMARK    5  A    between atoms: C_11  and  C_12
REMARK    6  A    between atoms: C_15  and  C_16
REMARK    7  A    between atoms: N_19  and  C_20
REMARK                            x       y       z     vdW  Elec       q    Type
REMARK                         _______ _______ _______ _____ _____    ______ ____
ROOT
ATOM      1  C   UNL     1      -0.950  12.291  20.314  0.00  0.00    +0.000 C 
ATOM      2  C   UNL     1       0.483  11.832  19.902  0.00  0.00    +0.000 C 
ATOM      3  O   UNL     1       1.534  12.265  20.354  0.00  0.00    +0.000 OA
ATOM      4  N   UNL     1       0.361  10.880  18.882  0.00  0.00    +0.000 N 
ATOM      5  C   UNL     1      -0.969  10.764  18.465  0.00  0.00    +0.000 A 
ATOM      6  C   UNL     1      -1.489  10.015  17.424  0.00  0.00    +0.000 A 
ATOM      7  C   UNL     1      -2.863  10.088  17.183  0.00  0.00    +0.000 A 
ATOM      8  C   UNL     1      -3.685  10.906  17.972  0.00  0.00    +0.000 A 
ATOM      9  C   UNL     1      -3.148  11.666  19.012  0.00  0.00    +0.000 A 
ATOM     10  C   UNL     1      -1.781  11.584  19.251  0.00  0.00    +0.000 A 
ENDROOT
BRANCH   1  11
ATOM     11  C   UNL     1      -1.225  11.698  21.718  0.00  0.00    +0.000 C 
ATOM     12  F   UNL     1      -0.450  12.274  22.675  0.00  0.00    +0.000 F 
ATOM     13  F   UNL     1      -2.506  11.884  22.127  0.00  0.00    +0.000 F 
ATOM     14  F   UNL     1      -0.995  10.366  21.795  0.00  0.00    +0.000 F 
ENDBRANCH   1  11
BRANCH   1  16
ATOM     15  C   UNL     1      -0.492  14.351  19.125  0.00  0.00    +0.000 C 
ATOM     16  O   UNL     1      -1.225  13.691  20.148  0.00  0.00    +0.000 OA
ENDBRANCH   1  16
BRANCH   4  17
ATOM     17  C   UNL     1       1.491  10.249  18.232  0.00  0.00    +0.000 C 
BRANCH  17  18
ATOM     18  C   UNL     1       1.860   8.902  18.807  0.00  0.00    +0.000 A 
ATOM     19  C   UNL     1       1.423   8.487  20.073  0.00  0.00    +0.000 A 
ATOM     20  C   UNL     1       1.703   7.194  20.539  0.00  0.00    +0.000 A 
ATOM     21  C   UNL     1       2.435   6.294  19.755  0.00  0.00    +0.000 A 
ATOM     22  C   UNL     1       2.902   6.720  18.509  0.00  0.00    +0.000 A 
ATOM     23  C   UNL     1       2.615   8.003  18.052  0.00  0.00    +0.000 A 
ATOM     24  F   UNL     1       3.047   8.352  16.832  0.00  0.00    +0.000 F 
BRANCH  21  25
ATOM     25  C   UNL     1       2.679   4.938  20.216  0.00  0.00    +0.000 A 
ATOM     26  C   UNL     1       2.083   4.182  21.257  0.00  0.00    +0.000 A 
ATOM     27  N   UNL     1       2.578   2.945  21.347  0.00  0.00    +0.000 NA
ATOM     28  N   UNL     1       3.498   2.899  20.365  0.00  0.00    +0.000 N 
ATOM     29  C   UNL     1       4.257   1.698  20.131  0.00  0.00    +0.000 C 
ATOM     30  C   UNL     1       3.594   4.066  19.662  0.00  0.00    +0.000 A 
ENDBRANCH  21  25
ENDBRANCH  17  18
ENDBRANCH   4  17
TORSDOF 5
ENDMDL
MODEL 3
REMARK VINA RESULT:      -7.9      2.551      3.319
REMARK  Name = 
REMARK  7 active torsions:
REMARK  status: ('A' for Active; 'I' for Inactive)
REMARK    1  A    between atoms: C_1  and  O_2
REMARK    2  A    between atoms: O_2  and  C_3
REMARK    3  A    between atoms: C_3  and  C_4
REMARK    4  A    between atoms: N_10  and  C_11
REMARK    5  A    between atoms: C_11  and  C_12
REMARK    6  A    between atoms: C_15  and  C_16
REMARK    7  A    between atoms: N_19  and  C_20
REMARK                            x       y       z     vdW  Elec       q    Type
REMARK                         _______ _______ _______ _____ _____    ______ ____
ROOT
ATOM      1  C   UNL     1       3.829   4.037  18.276  0.00  0.00    +0.000 C 
ATOM      2  C   UNL     1       2.850   5.194  17.904  0.00  0.00    +0.000 C 
ATOM      3  O   UNL     1       1.645   5.085  17.725  0.00  0.00    +0.000 OA
ATOM      4  N   UNL     1       3.598   6.369  17.752  0.00  0.00    +0.000 N 
ATOM      5  C   UNL     1       4.968   6.100  17.830  0.00  0.00    +0.000 A 
ATOM      6  C   UNL     1       6.032   6.962  17.633  0.00  0.00    +0.000 A 
ATOM      7  C   UNL     1       7.326   6.445  17.738  0.00  0.00    +0.000 A 
ATOM      8  C   UNL     1       7.533   5.088  18.026  0.00  0.00    +0.000 A 
ATOM      9  C   UNL     1       6.451   4.225  18.210  0.00  0.00    +0.000 A 
ATOM     10  C   UNL     1       5.167   4.747  18.112  0.00  0.00    +0.000 A 
ENDROOT
BRANCH   1  11
ATOM     11  C   UNL     1       3.566   3.687  19.761  0.00  0.00    +0.000 C 
ATOM     12  F   UNL     1       3.666   4.777  20.567  0.00  0.00    +0.000 F 
ATOM     13  F   UNL     1       2.320   3.192  19.974  0.00  0.00    +0.000 F 
ATOM     14  F   UNL     1       4.425   2.767  20.259  0.00  0.00    +0.000 F 
ENDBRANCH   1  11
BRANCH   1  16
ATOM     15  C   UNL     1       2.768   2.032  17.428  0.00  0.00    +0.000 C 
ATOM     16  O   UNL     1       3.864   2.934  17.358  0.00  0.00    +0.000 OA
ENDBRANCH   1  16
BRANCH   4  17
ATOM     17  C   UNL     1       3.022   7.644  17.380  0.00  0.00    +0.000 C 
BRANCH  17  18
ATOM     18  C   UNL     1       2.181   8.280  18.461  0.00  0.00    +0.000 A 
ATOM     19  C   UNL     1       2.007   7.683  19.718  0.00  0.00    +0.000 A 
ATOM     20  C   UNL     1       1.298   8.343  20.732  0.00  0.00    +0.000 A 
ATOM     21  C   UNL     1       0.737   9.606  20.508  0.00  0.00    +0.000 A 
ATOM     22  C   UNL     1       0.878  10.184  19.244  0.00  0.00    +0.000 A 
ATOM     23  C   UNL     1       1.589   9.525  18.245  0.00  0.00    +0.000 A 
ATOM     24  F   UNL     1       1.735  10.139  17.062  0.00  0.00    +0.000 F 
BRANCH  21  25
ATOM     25  C   UNL     1       0.049  10.312  21.575  0.00  0.00    +0.000 A 
ATOM     26  C   UNL     1      -0.467   9.860  22.816  0.00  0.00    +0.000 A 
ATOM     27  N   UNL     1      -1.016  10.841  23.536  0.00  0.00    +0.000 NA
ATOM     28  N   UNL     1      -0.859  11.930  22.761  0.00  0.00    +0.000 N 
ATOM     29  C   UNL     1      -1.325  13.217  23.207  0.00  0.00    +0.000 C 
ATOM     30  C   UNL     1      -0.228  11.664  21.580  0.00  0.00    +0.000 A 
ENDBRANCH  21  25
ENDBRANCH  17  18
ENDBRANCH   4  17
TORSDOF 5
ENDMDL
MODEL 4
REMARK VINA RESULT:      -7.9      3.204      4.385
REMARK  Name = 
REMARK  7 active torsions:
REMARK  status: ('A' for Active; 'I' for Inactive)
REMARK    1  A    between atoms: C_1  and  O_2
REMARK    2  A    between atoms: O_2  and  C_3
REMARK    3  A    between atoms: C_3  and  C_4
REMARK    4  A    between atoms: N_10  and  C_11
REMARK    5  A    between atoms: C_11  and  C_12
REMARK    6  A    between atoms: C_15  and  C_16
REMARK    7  A    between atoms: N_19  and  C_20
REMARK                            x       y       z     vdW  Elec       q    Type
REMARK                         _______ _______ _______ _____ _____    ______ ____
ROOT
ATOM      1  C   UNL     1       6.073   5.171  18.369  0.00  0.00    +0.000 C 
ATOM      2  C   UNL     1       5.468   6.533  17.904  0.00  0.00    +0.000 C 
ATOM      3  O   UNL     1       6.068   7.595  17.826  0.00  0.00    +0.000 OA
ATOM      4  N   UNL     1       4.105   6.341  17.646  0.00  0.00    +0.000 N 
ATOM      5  C   UNL     1       3.702   5.057  18.029  0.00  0.00    +0.000 A 
ATOM      6  C   UNL     1       2.429   4.514  18.032  0.00  0.00    +0.000 A 
ATOM      7  C   UNL     1       2.274   3.204  18.492  0.00  0.00    +0.000 A 
ATOM      8  C   UNL     1       3.379   2.469  18.944  0.00  0.00    +0.000 A 
ATOM      9  C   UNL     1       4.657   3.032  18.947  0.00  0.00    +0.000 A 
ATOM     10  C   UNL     1       4.806   4.333  18.482  0.00  0.00    +0.000 A 
ENDROOT
BRANCH   1  11
ATOM     11  C   UNL     1       6.973   4.663  17.217  0.00  0.00    +0.000 C 
ATOM     12  F   UNL     1       6.306   3.822  16.382  0.00  0.00    +0.000 F 
ATOM     13  F   UNL     1       7.436   5.665  16.427  0.00  0.00    +0.000 F 
ATOM     14  F   UNL     1       8.065   3.986  17.643  0.00  0.00    +0.000 F 
ENDBRANCH   1  11
BRANCH   1  16
ATOM     15  C   UNL     1       7.959   5.721  19.785  0.00  0.00    +0.000 C 
ATOM     16  O   UNL     1       6.654   5.167  19.682  0.00  0.00    +0.000 OA
ENDBRANCH   1  16
BRANCH   4  17
ATOM     17  C   UNL     1       3.212   7.398  17.218  0.00  0.00    +0.000 C 
BRANCH  17  18
ATOM     18  C   UNL     1       2.366   7.976  18.328  0.00  0.00    +0.000 A 
ATOM     19  C   UNL     1       2.311   7.396  19.603  0.00  0.00    +0.000 A 
ATOM     20  C   UNL     1       1.591   8.010  20.638  0.00  0.00    +0.000 A 
ATOM     21  C   UNL     1       0.902   9.209  20.418  0.00  0.00    +0.000 A 
ATOM     22  C   UNL     1       0.927   9.768  19.138  0.00  0.00    +0.000 A 
ATOM     23  C   UNL     1       1.649   9.155  18.117  0.00  0.00    +0.000 A 
ATOM     24  F   UNL     1       1.679   9.751  16.917  0.00  0.00    +0.000 F 
BRANCH  21  25
ATOM     25  C   UNL     1       0.202   9.872  21.505  0.00  0.00    +0.000 A 
ATOM     26  C   UNL     1      -0.272   9.385  22.749  0.00  0.00    +0.000 A 
ATOM     27  N   UNL     1      -0.852  10.332  23.490  0.00  0.00    +0.000 NA
ATOM     28  N   UNL     1      -0.756  11.435  22.724  0.00  0.00    +0.000 N 
ATOM     29  C   UNL     1      -1.271  12.696  23.193  0.00  0.00    +0.000 C 
ATOM     30  C   UNL     1      -0.134  11.211  21.530  0.00  0.00    +0.000 A 
ENDBRANCH  21  25
ENDBRANCH  17  18
ENDBRANCH   4  17
TORSDOF 5
ENDMDL
MODEL 5
REMARK VINA RESULT:      -7.8      4.142      8.932
REMARK  Name = 
REMARK  7 active torsions:
REMARK  status: ('A' for Active; 'I' for Inactive)
REMARK    1  A    between atoms: C_1  and  O_2
REMARK    2  A    between atoms: O_2  and  C_3
REMARK    3  A    between atoms: C_3  and  C_4
REMARK    4  A    between atoms: N_10  and  C_11
REMARK    5  A    between atoms: C_11  and  C_12
REMARK    6  A    between atoms: C_15  and  C_16
REMARK    7  A    between atoms: N_19  and  C_20
REMARK                            x       y       z     vdW  Elec       q    Type
REMARK                         _______ _______ _______ _____ _____    ______ ____
ROOT
ATOM      1  C   UNL     1      -1.570  12.872  21.314  0.00  0.00    +0.000 C 
ATOM      2  C   UNL     1      -0.135  12.520  20.811  0.00  0.00    +0.000 C 
ATOM      3  O   UNL     1       0.914  12.888  21.320  0.00  0.00    +0.000 OA
ATOM      4  N   UNL     1      -0.256  11.758  19.642  0.00  0.00    +0.000 N 
ATOM      5  C   UNL     1      -1.590  11.692  19.226  0.00  0.00    +0.000 A 
ATOM      6  C   UNL     1      -2.112  11.126  18.077  0.00  0.00    +0.000 A 
ATOM      7  C   UNL     1      -3.491  11.213  17.868  0.00  0.00    +0.000 A 
ATOM      8  C   UNL     1      -4.315  11.864  18.796  0.00  0.00    +0.000 A 
ATOM      9  C   UNL     1      -3.776  12.442  19.947  0.00  0.00    +0.000 A 
ATOM     10  C   UNL     1      -2.404  12.346  20.153  0.00  0.00    +0.000 A 
ENDROOT
BRANCH   1  11
ATOM     11  C   UNL     1      -1.814  12.038  22.595  0.00  0.00    +0.000 C 
ATOM     12  F   UNL     1      -1.352  10.765  22.470  0.00  0.00    +0.000 F 
ATOM     13  F   UNL     1      -1.184  12.547  23.684  0.00  0.00    +0.000 F 
ATOM     14  F   UNL     1      -3.122  11.935  22.931  0.00  0.00    +0.000 F 
ENDBRANCH   1  11
BRANCH   1  16
ATOM     15  C   UNL     1      -1.293  15.095  20.393  0.00  0.00    +0.000 C 
ATOM     16  O   UNL     1      -1.871  14.274  21.398  0.00  0.00    +0.000 OA
ENDBRANCH   1  16
BRANCH   4  17
ATOM     17  C   UNL     1       0.875  11.273  18.879  0.00  0.00    +0.000 C 
BRANCH  17  18
ATOM     18  C   UNL     1       1.309   9.873  19.243  0.00  0.00    +0.000 A 
ATOM     19  C   UNL     1       1.061   9.321  20.508  0.00  0.00    +0.000 A 
ATOM     20  C   UNL     1       1.392   7.986  20.784  0.00  0.00    +0.000 A 
ATOM     21  C   UNL     1       1.987   7.179  19.807  0.00  0.00    +0.000 A 
ATOM     22  C   UNL     1       2.268   7.740  18.558  0.00  0.00    +0.000 A 
ATOM     23  C   UNL     1       1.931   9.064  18.291  0.00  0.00    +0.000 A 
ATOM     24  F   UNL     1       2.180   9.545  17.065  0.00  0.00    +0.000 F 
BRANCH  21  25
ATOM     25  C   UNL     1       2.280   5.782  20.077  0.00  0.00    +0.000 A 
ATOM     26  C   UNL     1       3.364   4.959  19.681  0.00  0.00    +0.000 A 
ATOM     27  N   UNL     1       3.275   3.717  20.163  0.00  0.00    +0.000 NA
ATOM     28  N   UNL     1       2.131   3.734  20.872  0.00  0.00    +0.000 N 
ATOM     29  C   UNL     1       1.686   2.555  21.568  0.00  0.00    +0.000 C 
ATOM     30  C   UNL     1       1.501   4.945  20.851  0.00  0.00    +0.000 A 
ENDBRANCH  21  25
ENDBRANCH  17  18
ENDBRANCH   4  17
TORSDOF 5
ENDMDL
MODEL 6
REMARK VINA RESULT:      -7.8      4.078      6.947
REMARK  Name = 
REMARK  7 active torsions:
REMARK  status: ('A' for Active; 'I' for Inactive)
REMARK    1  A    between atoms: C_1  and  O_2
REMARK    2  A    between atoms: O_2  and  C_3
REMARK    3  A    between atoms: C_3  and  C_4
REMARK    4  A    between atoms: N_10  and  C_11
REMARK    5  A    between atoms: C_11  and  C_12
REMARK    6  A    between atoms: C_15  and  C_16
REMARK    7  A    between atoms: N_19  and  C_20
REMARK                            x       y       z     vdW  Elec       q    Type
REMARK                         _______ _______ _______ _____ _____    ______ ____
ROOT
ATOM      1  C   UNL     1       3.084   4.037  19.404  0.00  0.00    +0.000 C 
ATOM      2  C   UNL     1       4.554   3.672  19.031  0.00  0.00    +0.000 C 
ATOM      3  O   UNL     1       5.181   2.707  19.443  0.00  0.00    +0.000 OA
ATOM      4  N   UNL     1       5.053   4.674  18.187  0.00  0.00    +0.000 N 
ATOM      5  C   UNL     1       4.145   5.731  18.079  0.00  0.00    +0.000 A 
ATOM      6  C   UNL     1       4.300   6.943  17.429  0.00  0.00    +0.000 A 
ATOM      7  C   UNL     1       3.248   7.861  17.488  0.00  0.00    +0.000 A 
ATOM      8  C   UNL     1       2.075   7.560  18.195  0.00  0.00    +0.000 A 
ATOM      9  C   UNL     1       1.935   6.339  18.857  0.00  0.00    +0.000 A 
ATOM     10  C   UNL     1       2.982   5.427  18.789  0.00  0.00    +0.000 A 
ENDROOT
BRANCH   1  11
ATOM     11  C   UNL     1       2.170   3.034  18.659  0.00  0.00    +0.000 C 
ATOM     12  F   UNL     1       2.471   1.744  18.968  0.00  0.00    +0.000 F 
ATOM     13  F   UNL     1       0.857   3.184  18.972  0.00  0.00    +0.000 F 
ATOM     14  F   UNL     1       2.248   3.129  17.311  0.00  0.00    +0.000 F 
ENDBRANCH   1  11
BRANCH   1  16
ATOM     15  C   UNL     1       2.470   3.045  21.526  0.00  0.00    +0.000 C 
ATOM     16  O   UNL     1       2.826   4.217  20.805  0.00  0.00    +0.000 OA
ENDBRANCH   1  16
BRANCH   4  17
ATOM     17  C   UNL     1       6.402   4.681  17.660  0.00  0.00    +0.000 C 
BRANCH  17  18
ATOM     18  C   UNL     1       7.142   5.979  17.879  0.00  0.00    +0.000 A 
ATOM     19  C   UNL     1       7.110   7.022  16.943  0.00  0.00    +0.000 A 
ATOM     20  C   UNL     1       7.729   8.250  17.217  0.00  0.00    +0.000 A 
ATOM     21  C   UNL     1       8.403   8.457  18.427  0.00  0.00    +0.000 A 
ATOM     22  C   UNL     1       8.466   7.406  19.344  0.00  0.00    +0.000 A 
ATOM     23  C   UNL     1       7.844   6.192  19.066  0.00  0.00    +0.000 A 
ATOM     24  F   UNL     1       7.894   5.227  19.995  0.00  0.00    +0.000 F 
BRANCH  21  25
ATOM     25  C   UNL     1       8.998   9.747  18.733  0.00  0.00    +0.000 A 
ATOM     26  C   UNL     1       9.397  10.326  19.963  0.00  0.00    +0.000 A 
ATOM     27  N   UNL     1       9.932  11.541  19.815  0.00  0.00    +0.000 NA
ATOM     28  N   UNL     1       9.877  11.751  18.487  0.00  0.00    +0.000 N 
ATOM     29  C   UNL     1      10.380  12.975  17.920  0.00  0.00    +0.000 C 
ATOM     30  C   UNL     1       9.328  10.708  17.798  0.00  0.00    +0.000 A 
ENDBRANCH  21  25
ENDBRANCH  17  18
ENDBRANCH   4  17
TORSDOF 5
ENDMDL
MODEL 7
REMARK VINA RESULT:      -7.7      3.227      4.578
REMARK  Name = 
REMARK  7 active torsions:
REMARK  status: ('A' for Active; 'I' for Inactive)
REMARK    1  A    between atoms: C_1  and  O_2
REMARK    2  A    between atoms: O_2  and  C_3
REMARK    3  A    between atoms: C_3  and  C_4
REMARK    4  A    between atoms: N_10  and  C_11
REMARK    5  A    between atoms: C_11  and  C_12
REMARK    6  A    between atoms: C_15  and  C_16
REMARK    7  A    between atoms: N_19  and  C_20
REMARK                            x       y       z     vdW  Elec       q    Type
REMARK                         _______ _______ _______ _____ _____    ______ ____
ROOT
ATOM      1  C   UNL     1       7.009   5.581  17.735  0.00  0.00    +0.000 C 
ATOM      2  C   UNL     1       5.656   5.498  18.508  0.00  0.00    +0.000 C 
ATOM      3  O   UNL     1       5.506   5.652  19.712  0.00  0.00    +0.000 OA
ATOM      4  N   UNL     1       4.651   5.160  17.593  0.00  0.00    +0.000 N 
ATOM      5  C   UNL     1       5.197   4.860  16.341  0.00  0.00    +0.000 A 
ATOM      6  C   UNL     1       4.558   4.390  15.207  0.00  0.00    +0.000 A 
ATOM      7  C   UNL     1       5.332   4.135  14.073  0.00  0.00    +0.000 A 
ATOM      8  C   UNL     1       6.719   4.344  14.092  0.00  0.00    +0.000 A 
ATOM      9  C   UNL     1       7.355   4.807  15.245  0.00  0.00    +0.000 A 
ATOM     10  C   UNL     1       6.577   5.066  16.369  0.00  0.00    +0.000 A 
ENDROOT
BRANCH   1  11
ATOM     11  C   UNL     1       7.397   7.078  17.666  0.00  0.00    +0.000 C 
ATOM     12  F   UNL     1       6.304   7.887  17.659  0.00  0.00    +0.000 F 
ATOM     13  F   UNL     1       8.139   7.481  18.729  0.00  0.00    +0.000 F 
ATOM     14  F   UNL     1       8.114   7.400  16.564  0.00  0.00    +0.000 F 
ENDBRANCH   1  11
BRANCH   1  16
ATOM     15  C   UNL     1       8.590   4.951  19.458  0.00  0.00    +0.000 C 
ATOM     16  O   UNL     1       8.034   4.677  18.180  0.00  0.00    +0.000 OA
ENDBRANCH   1  16
BRANCH   4  17
ATOM     17  C   UNL     1       3.263   4.969  17.960  0.00  0.00    +0.000 C 
BRANCH  17  18
ATOM     18  C   UNL     1       2.694   6.075  18.816  0.00  0.00    +0.000 A 
ATOM     19  C   UNL     1       2.564   7.389  18.346  0.00  0.00    +0.000 A 
ATOM     20  C   UNL     1       1.945   8.373  19.132  0.00  0.00    +0.000 A 
ATOM     21  C   UNL     1       1.455   8.067  20.407  0.00  0.00    +0.000 A 
ATOM     22  C   UNL     1       1.618   6.766  20.891  0.00  0.00    +0.000 A 
ATOM     23  C   UNL     1       2.228   5.795  20.102  0.00  0.00    +0.000 A 
ATOM     24  F   UNL     1       2.323   4.550  20.591  0.00  0.00    +0.000 F 
BRANCH  21  25
ATOM     25  C   UNL     1       0.767   9.072  21.198  0.00  0.00    +0.000 A 
ATOM     26  C   UNL     1       0.751   9.316  22.595  0.00  0.00    +0.000 A 
ATOM     27  N   UNL     1       0.001  10.369  22.928  0.00  0.00    +0.000 NA
ATOM     28  N   UNL     1      -0.473  10.807  21.747  0.00  0.00    +0.000 N 
ATOM     29  C   UNL     1      -1.333  11.961  21.688  0.00  0.00    +0.000 C 
ATOM     30  C   UNL     1      -0.042  10.066  20.685  0.00  0.00    +0.000 A 
ENDBRANCH  21  25
ENDBRANCH  17  18
ENDBRANCH   4  17
TORSDOF 5
ENDMDL
MODEL 8
REMARK VINA RESULT:      -7.7      4.139      7.042
REMARK  Name = 
REMARK  7 active torsions:
REMARK  status: ('A' for Active; 'I' for Inactive)
REMARK    1  A    between atoms: C_1  and  O_2
REMARK    2  A    between atoms: O_2  and  C_3
REMARK    3  A    between atoms: C_3  and  C_4
REMARK    4  A    between atoms: N_10  and  C_11
REMARK    5  A    between atoms: C_11  and  C_12
REMARK    6  A    between atoms: C_15  and  C_16
REMARK    7  A    between atoms: N_19  and  C_20
REMARK                            x       y       z     vdW  Elec       q    Type
REMARK                         _______ _______ _______ _____ _____    ______ ____
ROOT
ATOM      1  C   UNL     1       3.084   4.310  19.526  0.00  0.00    +0.000 C 
ATOM      2  C   UNL     1       4.536   3.940  19.092  0.00  0.00    +0.000 C 
ATOM      3  O   UNL     1       5.189   2.991  19.503  0.00  0.00    +0.000 OA
ATOM      4  N   UNL     1       4.986   4.915  18.192  0.00  0.00    +0.000 N 
ATOM      5  C   UNL     1       4.067   5.965  18.096  0.00  0.00    +0.000 A 
ATOM      6  C   UNL     1       4.182   7.155  17.400  0.00  0.00    +0.000 A 
ATOM      7  C   UNL     1       3.129   8.070  17.482  0.00  0.00    +0.000 A 
ATOM      8  C   UNL     1       1.995   7.787  18.257  0.00  0.00    +0.000 A 
ATOM      9  C   UNL     1       1.895   6.588  18.964  0.00  0.00    +0.000 A 
ATOM     10  C   UNL     1       2.943   5.679  18.873  0.00  0.00    +0.000 A 
ENDROOT
BRANCH   1  11
ATOM     11  C   UNL     1       2.140   3.279  18.861  0.00  0.00    +0.000 C 
ATOM     12  F   UNL     1       0.836   3.506  19.173  0.00  0.00    +0.000 F 
ATOM     13  F   UNL     1       2.198   3.308  17.505  0.00  0.00    +0.000 F 
ATOM     14  F   UNL     1       2.398   2.000  19.221  0.00  0.00    +0.000 F 
ENDBRANCH   1  11
BRANCH   1  16
ATOM     15  C   UNL     1       2.349   3.447  21.666  0.00  0.00    +0.000 C 
ATOM     16  O   UNL     1       2.895   4.534  20.932  0.00  0.00    +0.000 OA
ENDBRANCH   1  16
BRANCH   4  17
ATOM     17  C   UNL     1       6.307   4.912  17.598  0.00  0.00    +0.000 C 
BRANCH  17  18
ATOM     18  C   UNL     1       7.093   6.178  17.838  0.00  0.00    +0.000 A 
ATOM     19  C   UNL     1       7.042   7.266  16.955  0.00  0.00    +0.000 A 
ATOM     20  C   UNL     1       7.710   8.463  17.254  0.00  0.00    +0.000 A 
ATOM     21  C   UNL     1       8.452   8.593  18.434  0.00  0.00    +0.000 A 
ATOM     22  C   UNL     1       8.533   7.497  19.296  0.00  0.00    +0.000 A 
ATOM     23  C   UNL     1       7.863   6.315  18.995  0.00  0.00    +0.000 A 
ATOM     24  F   UNL     1       7.935   5.305  19.873  0.00  0.00    +0.000 F 
BRANCH  21  25
ATOM     25  C   UNL     1       9.099   9.851  18.768  0.00  0.00    +0.000 A 
ATOM     26  C   UNL     1       9.650  10.867  17.948  0.00  0.00    +0.000 A 
ATOM     27  N   UNL     1      10.138  11.892  18.650  0.00  0.00    +0.000 NA
ATOM     28  N   UNL     1       9.905  11.540  19.928  0.00  0.00    +0.000 N 
ATOM     29  C   UNL     1      10.287  12.413  21.008  0.00  0.00    +0.000 C 
ATOM     30  C   UNL     1       9.285  10.329  20.049  0.00  0.00    +0.000 A 
ENDBRANCH  21  25
ENDBRANCH  17  18
ENDBRANCH   4  17
TORSDOF 5
ENDMDL
MODEL 9
REMARK VINA RESULT:      -7.7      0.960      1.304
REMARK  Name = 
REMARK  7 active torsions:
REMARK  status: ('A' for Active; 'I' for Inactive)
REMARK    1  A    between atoms: C_1  and  O_2
REMARK    2  A    between atoms: O_2  and  C_3
REMARK    3  A    between atoms: C_3  and  C_4
REMARK    4  A    between atoms: N_10  and  C_11
REMARK    5  A    between atoms: C_11  and  C_12
REMARK    6  A    between atoms: C_15  and  C_16
REMARK    7  A    between atoms: N_19  and  C_20
REMARK                            x       y       z     vdW  Elec       q    Type
REMARK                         _______ _______ _______ _____ _____    ______ ____
ROOT
ATOM      1  C   UNL     1       2.781   3.638  18.597  0.00  0.00    +0.000 C 
ATOM      2  C   UNL     1       2.543   4.894  19.492  0.00  0.00    +0.000 C 
ATOM      3  O   UNL     1       1.725   4.987  20.396  0.00  0.00    +0.000 OA
ATOM      4  N   UNL     1       3.388   5.917  19.043  0.00  0.00    +0.000 N 
ATOM      5  C   UNL     1       4.045   5.540  17.867  0.00  0.00    +0.000 A 
ATOM      6  C   UNL     1       4.879   6.295  17.061  0.00  0.00    +0.000 A 
ATOM      7  C   UNL     1       5.397   5.699  15.909  0.00  0.00    +0.000 A 
ATOM      8  C   UNL     1       5.070   4.375  15.579  0.00  0.00    +0.000 A 
ATOM      9  C   UNL     1       4.218   3.627  16.394  0.00  0.00    +0.000 A 
ATOM     10  C   UNL     1       3.711   4.224  17.543  0.00  0.00    +0.000 A 
ENDROOT
BRANCH   1  11
ATOM     11  C   UNL     1       3.521   2.597  19.472  0.00  0.00    +0.000 C 
ATOM     12  F   UNL     1       3.612   1.387  18.857  0.00  0.00    +0.000 F 
ATOM     13  F   UNL     1       4.799   2.957  19.753  0.00  0.00    +0.000 F 
ATOM     14  F   UNL     1       2.923   2.372  20.665  0.00  0.00    +0.000 F 
ENDBRANCH   1  11
BRANCH   1  16
ATOM     15  C   UNL     1       0.656   2.477  18.645  0.00  0.00    +0.000 C 
ATOM     16  O   UNL     1       1.633   3.164  17.875  0.00  0.00    +0.000 OA
ENDBRANCH   1  16
BRANCH   4  17
ATOM     17  C   UNL     1       3.421   7.244  19.623  0.00  0.00    +0.000 C 
BRANCH  17  18
ATOM     18  C   UNL     1       2.141   8.025  19.447  0.00  0.00    +0.000 A 
ATOM     19  C   UNL     1       1.262   8.265  20.513  0.00  0.00    +0.000 A 
ATOM     20  C   UNL     1       0.130   9.074  20.339  0.00  0.00    +0.000 A 
ATOM     21  C   UNL     1      -0.154   9.650  19.094  0.00  0.00    +0.000 A 
ATOM     22  C   UNL     1       0.701   9.380  18.023  0.00  0.00    +0.000 A 
ATOM     23  C   UNL     1       1.826   8.581  18.206  0.00  0.00    +0.000 A 
ATOM     24  F   UNL     1       2.641   8.386  17.160  0.00  0.00    +0.000 F 
BRANCH  21  25
ATOM     25  C   UNL     1      -1.298  10.530  18.928  0.00  0.00    +0.000 A 
ATOM     26  C   UNL     1      -1.662  11.727  19.595  0.00  0.00    +0.000 A 
ATOM     27  N   UNL     1      -2.795  12.257  19.126  0.00  0.00    +0.000 NA
ATOM     28  N   UNL     1      -3.166  11.402  18.155  0.00  0.00    +0.000 N 
ATOM     29  C   UNL     1      -4.362  11.642  17.389  0.00  0.00    +0.000 C 
ATOM     30  C   UNL     1      -2.304  10.355  17.999  0.00  0.00    +0.000 A 
ENDBRANCH  21  25
ENDBRANCH  17  18
ENDBRANCH   4  17
TORSDOF 5
ENDMDL
