MODEL 1
REMARK VINA RESULT:      -9.2      0.000      0.000
REMARK  Name = 
REMARK  3 active torsions:
REMARK  status: ('A' for Active; 'I' for Inactive)
REMARK    1  A    between atoms: C_2  and  C_19
REMARK    2  A    between atoms: N_3  and  C_4
REMARK    3  A    between atoms: C_8  and  C_9
REMARK                            x       y       z     vdW  Elec       q    Type
REMARK                         _______ _______ _______ _____ _____    ______ ____
ROOT
ATOM      1  C   UNL     1       3.285   6.026  18.967  0.00  0.00    +0.000 A 
ATOM      2  C   UNL     1       3.060   4.826  19.650  0.00  0.00    +0.000 A 
ATOM      3  C   UNL     1       3.622   3.634  19.206  0.00  0.00    +0.000 A 
ATOM      4  C   UNL     1       4.403   3.630  18.057  0.00  0.00    +0.000 A 
ATOM      5  C   UNL     1       4.610   4.813  17.329  0.00  0.00    +0.000 A 
ATOM      6  C   UNL     1       4.037   6.009  17.790  0.00  0.00    +0.000 A 
ENDROOT
BRANCH   5   7
ATOM      7  C   UNL     1       5.417   4.813  16.114  0.00  0.00    +0.000 A 
ATOM      8  N   UNL     1       6.488   5.531  15.819  0.00  0.00    +0.000 NA
ATOM      9  C   UNL     1       6.800   5.111  14.558  0.00  0.00    +0.000 A 
ATOM     10  N   UNL     1       7.830   5.549  13.789  0.00  0.00    +0.000 NA
ATOM     11  C   UNL     1       7.878   4.960  12.573  0.00  0.00    +0.000 A 
ATOM     12  C   UNL     1       6.995   3.994  12.086  0.00  0.00    +0.000 A 
ATOM     13  C   UNL     1       5.946   3.550  12.887  0.00  0.00    +0.000 A 
ATOM     14  C   UNL     1       5.895   4.154  14.131  0.00  0.00    +0.000 A 
ATOM     15  O   UNL     1       5.004   3.952  15.128  0.00  0.00    +0.000 OA
ENDBRANCH   5   7
BRANCH   1  18
ATOM     16  O   UNL     1       1.338   6.490  21.055  0.00  0.00    +0.000 OA
ATOM     17  C   UNL     1       1.799   7.400  20.370  0.00  0.00    +0.000 C 
ATOM     18  N   UNL     1       2.773   7.265  19.405  0.00  0.00    +0.000 N 
ATOM     19  H   UNL     1       3.245   8.100  19.084  0.00  0.00    +0.000 HD
BRANCH  17  20
ATOM     20  C   UNL     1       1.243   8.756  20.595  0.00  0.00    +0.000 A 
ATOM     21  C   UNL     1       0.645   9.513  19.560  0.00  0.00    +0.000 A 
ATOM     22  C   UNL     1      -0.186  10.593  19.874  0.00  0.00    +0.000 A 
ATOM     23  C   UNL     1      -0.426  10.838  21.209  0.00  0.00    +0.000 A 
ATOM     24  C   UNL     1       0.225  10.148  22.209  0.00  0.00    +0.000 A 
ATOM     25  C   UNL     1       1.102   9.135  21.937  0.00  0.00    +0.000 A 
ATOM     26  O   UNL     1      -0.243  10.467  23.446  0.00  0.00    +0.000 OA
ATOM     27  C   UNL     1      -1.473  11.103  23.056  0.00  0.00    +0.000 C 
ATOM     28  O   UNL     1      -1.399  11.646  21.717  0.00  0.00    +0.000 OA
ENDBRANCH  17  20
ENDBRANCH   1  18
TORSDOF 3
ENDMDL
MODEL 2
REMARK VINA RESULT:      -9.0      5.133      7.528
REMARK  Name = 
REMARK  3 active torsions:
REMARK  status: ('A' for Active; 'I' for Inactive)
REMARK    1  A    between atoms: C_2  and  C_19
REMARK    2  A    between atoms: N_3  and  C_4
REMARK    3  A    between atoms: C_8  and  C_9
REMARK                            x       y       z     vdW  Elec       q    Type
REMARK                         _______ _______ _______ _____ _____    ______ ____
ROOT
ATOM      1  C   UNL     1       6.864   6.329  16.641  0.00  0.00    +0.000 A 
ATOM      2  C   UNL     1       7.061   5.578  15.478  0.00  0.00    +0.000 A 
ATOM      3  C   UNL     1       6.400   4.370  15.284  0.00  0.00    +0.000 A 
ATOM      4  C   UNL     1       5.545   3.891  16.268  0.00  0.00    +0.000 A 
ATOM      5  C   UNL     1       5.361   4.604  17.464  0.00  0.00    +0.000 A 
ATOM      6  C   UNL     1       6.033   5.823  17.645  0.00  0.00    +0.000 A 
ENDROOT
BRANCH   5   7
ATOM      7  C   UNL     1       4.475   4.100  18.507  0.00  0.00    +0.000 A 
ATOM      8  N   UNL     1       4.763   3.370  19.572  0.00  0.00    +0.000 NA
ATOM      9  C   UNL     1       3.546   3.201  20.166  0.00  0.00    +0.000 A 
ATOM     10  N   UNL     1       3.289   2.511  21.307  0.00  0.00    +0.000 NA
ATOM     11  C   UNL     1       1.980   2.503  21.644  0.00  0.00    +0.000 A 
ATOM     12  C   UNL     1       0.941   3.117  20.943  0.00  0.00    +0.000 A 
ATOM     13  C   UNL     1       1.219   3.826  19.777  0.00  0.00    +0.000 A 
ATOM     14  C   UNL     1       2.558   3.833  19.430  0.00  0.00    +0.000 A 
ATOM     15  O   UNL     1       3.147   4.419  18.363  0.00  0.00    +0.000 OA
ENDBRANCH   5   7
BRANCH   1  18
ATOM     16  O   UNL     1       8.393   7.161  18.950  0.00  0.00    +0.000 OA
ATOM     17  C   UNL     1       8.142   7.921  18.018  0.00  0.00    +0.000 C 
ATOM     18  N   UNL     1       7.477   7.580  16.860  0.00  0.00    +0.000 N 
ATOM     19  H   UNL     1       7.543   8.207  16.069  0.00  0.00    +0.000 HD
BRANCH  17  20
ATOM     20  C   UNL     1       8.579   9.330  18.163  0.00  0.00    +0.000 A 
ATOM     21  C   UNL     1       8.053  10.375  17.368  0.00  0.00    +0.000 A 
ATOM     22  C   UNL     1       8.199  11.706  17.775  0.00  0.00    +0.000 A 
ATOM     23  C   UNL     1       8.816  11.932  18.987  0.00  0.00    +0.000 A 
ATOM     24  C   UNL     1       9.396  10.914  19.714  0.00  0.00    +0.000 A 
ATOM     25  C   UNL     1       9.339   9.609  19.308  0.00  0.00    +0.000 A 
ATOM     26  O   UNL     1       9.847  11.337  20.927  0.00  0.00    +0.000 OA
ATOM     27  C   UNL     1       9.135  12.586  20.999  0.00  0.00    +0.000 C 
ATOM     28  O   UNL     1       8.814  13.101  19.686  0.00  0.00    +0.000 OA
ENDBRANCH  17  20
ENDBRANCH   1  18
TORSDOF 3
ENDMDL
MODEL 3
REMARK VINA RESULT:      -8.9      1.102      1.248
REMARK  Name = 
REMARK  3 active torsions:
REMARK  status: ('A' for Active; 'I' for Inactive)
REMARK    1  A    between atoms: C_2  and  C_19
REMARK    2  A    between atoms: N_3  and  C_4
REMARK    3  A    between atoms: C_8  and  C_9
REMARK                            x       y       z     vdW  Elec       q    Type
REMARK                         _______ _______ _______ _____ _____    ______ ____
ROOT
ATOM      1  C   UNL     1       2.570   5.832  20.074  0.00  0.00    +0.000 A 
ATOM      2  C   UNL     1       2.335   4.605  20.702  0.00  0.00    +0.000 A 
ATOM      3  C   UNL     1       2.951   3.441  20.254  0.00  0.00    +0.000 A 
ATOM      4  C   UNL     1       3.799   3.494  19.155  0.00  0.00    +0.000 A 
ATOM      5  C   UNL     1       4.021   4.706  18.481  0.00  0.00    +0.000 A 
ATOM      6  C   UNL     1       3.393   5.872  18.945  0.00  0.00    +0.000 A 
ENDROOT
BRANCH   5   7
ATOM      7  C   UNL     1       4.899   4.765  17.318  0.00  0.00    +0.000 A 
ATOM      8  N   UNL     1       6.035   5.424  17.158  0.00  0.00    +0.000 NA
ATOM      9  C   UNL     1       6.393   5.111  15.878  0.00  0.00    +0.000 A 
ATOM     10  N   UNL     1       7.496   5.543  15.216  0.00  0.00    +0.000 NA
ATOM     11  C   UNL     1       7.577   5.078  13.950  0.00  0.00    +0.000 A 
ATOM     12  C   UNL     1       6.660   4.237  13.317  0.00  0.00    +0.000 A 
ATOM     13  C   UNL     1       5.534   3.797  14.009  0.00  0.00    +0.000 A 
ATOM     14  C   UNL     1       5.450   4.275  15.305  0.00  0.00    +0.000 A 
ATOM     15  O   UNL     1       4.487   4.043  16.225  0.00  0.00    +0.000 OA
ENDBRANCH   5   7
BRANCH   1  18
ATOM     16  O   UNL     1       1.728   8.082  18.466  0.00  0.00    +0.000 OA
ATOM     17  C   UNL     1       1.681   8.097  19.693  0.00  0.00    +0.000 C 
ATOM     18  N   UNL     1       2.003   7.043  20.521  0.00  0.00    +0.000 N 
ATOM     19  H   UNL     1       1.697   7.083  21.484  0.00  0.00    +0.000 HD
BRANCH  17  20
ATOM     20  C   UNL     1       1.257   9.364  20.335  0.00  0.00    +0.000 A 
ATOM     21  C   UNL     1       0.930  10.520  19.588  0.00  0.00    +0.000 A 
ATOM     22  C   UNL     1       0.189  11.549  20.181  0.00  0.00    +0.000 A 
ATOM     23  C   UNL     1      -0.239  11.354  21.477  0.00  0.00    +0.000 A 
ATOM     24  C   UNL     1       0.154  10.262  22.221  0.00  0.00    +0.000 A 
ATOM     25  C   UNL     1       0.941   9.273  21.697  0.00  0.00    +0.000 A 
ATOM     26  O   UNL     1      -0.472  10.207  23.428  0.00  0.00    +0.000 OA
ATOM     27  C   UNL     1      -1.538  11.135  23.162  0.00  0.00    +0.000 C 
ATOM     28  O   UNL     1      -1.182  12.087  22.133  0.00  0.00    +0.000 OA
ENDBRANCH  17  20
ENDBRANCH   1  18
TORSDOF 3
ENDMDL
MODEL 4
REMARK VINA RESULT:      -8.8      4.148     10.360
REMARK  Name = 
REMARK  3 active torsions:
REMARK  status: ('A' for Active; 'I' for Inactive)
REMARK    1  A    between atoms: C_2  and  C_19
REMARK    2  A    between atoms: N_3  and  C_4
REMARK    3  A    between atoms: C_8  and  C_9
REMARK                            x       y       z     vdW  Elec       q    Type
REMARK                         _______ _______ _______ _____ _____    ______ ____
ROOT
ATOM      1  C   UNL     1       0.735  10.510  19.061  0.00  0.00    +0.000 A 
ATOM      2  C   UNL     1       1.451  11.688  18.826  0.00  0.00    +0.000 A 
ATOM      3  C   UNL     1       0.794  12.887  18.573  0.00  0.00    +0.000 A 
ATOM      4  C   UNL     1      -0.594  12.913  18.534  0.00  0.00    +0.000 A 
ATOM      5  C   UNL     1      -1.337  11.737  18.725  0.00  0.00    +0.000 A 
ATOM      6  C   UNL     1      -0.660  10.534  18.981  0.00  0.00    +0.000 A 
ENDROOT
BRANCH   5   7
ATOM      7  C   UNL     1      -2.794  11.755  18.672  0.00  0.00    +0.000 A 
ATOM      8  N   UNL     1      -3.606  11.242  17.762  0.00  0.00    +0.000 NA
ATOM      9  C   UNL     1      -4.844  11.575  18.234  0.00  0.00    +0.000 A 
ATOM     10  N   UNL     1      -6.037  11.282  17.657  0.00  0.00    +0.000 NA
ATOM     11  C   UNL     1      -7.096  11.758  18.348  0.00  0.00    +0.000 A 
ATOM     12  C   UNL     1      -7.049  12.485  19.540  0.00  0.00    +0.000 A 
ATOM     13  C   UNL     1      -5.818  12.774  20.124  0.00  0.00    +0.000 A 
ATOM     14  C   UNL     1      -4.733  12.288  19.415  0.00  0.00    +0.000 A 
ATOM     15  O   UNL     1      -3.418  12.405  19.708  0.00  0.00    +0.000 OA
ENDBRANCH   5   7
BRANCH   1  18
ATOM     16  O   UNL     1       2.273   8.825  17.284  0.00  0.00    +0.000 OA
ATOM     17  C   UNL     1       2.026   8.505  18.444  0.00  0.00    +0.000 C 
ATOM     18  N   UNL     1       1.358   9.282  19.365  0.00  0.00    +0.000 N 
ATOM     19  H   UNL     1       1.427   9.028  20.342  0.00  0.00    +0.000 HD
BRANCH  17  20
ATOM     20  C   UNL     1       2.474   7.161  18.880  0.00  0.00    +0.000 A 
ATOM     21  C   UNL     1       2.070   6.588  20.109  0.00  0.00    +0.000 A 
ATOM     22  C   UNL     1       2.195   5.209  20.312  0.00  0.00    +0.000 A 
ATOM     23  C   UNL     1       2.667   4.455  19.258  0.00  0.00    +0.000 A 
ATOM     24  C   UNL     1       3.133   5.032  18.096  0.00  0.00    +0.000 A 
ATOM     25  C   UNL     1       3.097   6.384  17.893  0.00  0.00    +0.000 A 
ATOM     26  O   UNL     1       3.444   4.107  17.148  0.00  0.00    +0.000 OA
ATOM     27  C   UNL     1       2.756   2.977  17.714  0.00  0.00    +0.000 C 
ATOM     28  O   UNL     1       2.607   3.098  19.148  0.00  0.00    +0.000 OA
ENDBRANCH  17  20
ENDBRANCH   1  18
TORSDOF 3
ENDMDL
MODEL 5
REMARK VINA RESULT:      -8.8      1.098      1.681
REMARK  Name = 
REMARK  3 active torsions:
REMARK  status: ('A' for Active; 'I' for Inactive)
REMARK    1  A    between atoms: C_2  and  C_19
REMARK    2  A    between atoms: N_3  and  C_4
REMARK    3  A    between atoms: C_8  and  C_9
REMARK                            x       y       z     vdW  Elec       q    Type
REMARK                         _______ _______ _______ _____ _____    ______ ____
ROOT
ATOM      1  C   UNL     1       3.434   5.781  19.174  0.00  0.00    +0.000 A 
ATOM      2  C   UNL     1       3.352   4.579  19.883  0.00  0.00    +0.000 A 
ATOM      3  C   UNL     1       4.006   3.437  19.434  0.00  0.00    +0.000 A 
ATOM      4  C   UNL     1       4.736   3.485  18.253  0.00  0.00    +0.000 A 
ATOM      5  C   UNL     1       4.800   4.669  17.500  0.00  0.00    +0.000 A 
ATOM      6  C   UNL     1       4.136   5.814  17.967  0.00  0.00    +0.000 A 
ENDROOT
BRANCH   5   7
ATOM      7  C   UNL     1       5.554   4.722  16.253  0.00  0.00    +0.000 A 
ATOM      8  N   UNL     1       6.605   5.461  15.939  0.00  0.00    +0.000 NA
ATOM      9  C   UNL     1       6.866   5.092  14.650  0.00  0.00    +0.000 A 
ATOM     10  N   UNL     1       7.857   5.569  13.855  0.00  0.00    +0.000 NA
ATOM     11  C   UNL     1       7.858   5.026  12.617  0.00  0.00    +0.000 A 
ATOM     12  C   UNL     1       6.964   4.070  12.132  0.00  0.00    +0.000 A 
ATOM     13  C   UNL     1       5.954   3.585  12.961  0.00  0.00    +0.000 A 
ATOM     14  C   UNL     1       5.952   4.142  14.227  0.00  0.00    +0.000 A 
ATOM     15  O   UNL     1       5.106   3.894  15.253  0.00  0.00    +0.000 OA
ENDBRANCH   5   7
BRANCH   1  18
ATOM     16  O   UNL     1       1.190   6.053  20.978  0.00  0.00    +0.000 OA
ATOM     17  C   UNL     1       1.717   7.020  20.433  0.00  0.00    +0.000 C 
ATOM     18  N   UNL     1       2.825   6.975  19.615  0.00  0.00    +0.000 N 
ATOM     19  H   UNL     1       3.313   7.840  19.425  0.00  0.00    +0.000 HD
BRANCH  17  20
ATOM     20  C   UNL     1       1.092   8.344  20.665  0.00  0.00    +0.000 A 
ATOM     21  C   UNL     1       0.679   8.775  21.947  0.00  0.00    +0.000 A 
ATOM     22  C   UNL     1       0.452  10.134  22.189  0.00  0.00    +0.000 A 
ATOM     23  C   UNL     1       0.701  11.010  21.154  0.00  0.00    +0.000 A 
ATOM     24  C   UNL     1       1.025  10.574  19.887  0.00  0.00    +0.000 A 
ATOM     25  C   UNL     1       1.181   9.247  19.595  0.00  0.00    +0.000 A 
ATOM     26  O   UNL     1       1.339  11.601  19.051  0.00  0.00    +0.000 OA
ATOM     27  C   UNL     1       1.547  12.628  20.037  0.00  0.00    +0.000 C 
ATOM     28  O   UNL     1       0.810  12.365  21.254  0.00  0.00    +0.000 OA
ENDBRANCH  17  20
ENDBRANCH   1  18
TORSDOF 3
ENDMDL
MODEL 6
REMARK VINA RESULT:      -8.8      4.195      5.967
REMARK  Name = 
REMARK  3 active torsions:
REMARK  status: ('A' for Active; 'I' for Inactive)
REMARK    1  A    between atoms: C_2  and  C_19
REMARK    2  A    between atoms: N_3  and  C_4
REMARK    3  A    between atoms: C_8  and  C_9
REMARK                            x       y       z     vdW  Elec       q    Type
REMARK                         _______ _______ _______ _____ _____    ______ ____
ROOT
ATOM      1  C   UNL     1       0.801   9.926  20.005  0.00  0.00    +0.000 A 
ATOM      2  C   UNL     1       1.134  10.495  18.772  0.00  0.00    +0.000 A 
ATOM      3  C   UNL     1       1.852   9.775  17.822  0.00  0.00    +0.000 A 
ATOM      4  C   UNL     1       2.261   8.480  18.109  0.00  0.00    +0.000 A 
ATOM      5  C   UNL     1       1.975   7.899  19.355  0.00  0.00    +0.000 A 
ATOM      6  C   UNL     1       1.249   8.637  20.304  0.00  0.00    +0.000 A 
ENDROOT
BRANCH   5   7
ATOM      7  C   UNL     1       2.414   6.544  19.668  0.00  0.00    +0.000 A 
ATOM      8  N   UNL     1       3.398   5.837  19.136  0.00  0.00    +0.000 NA
ATOM      9  C   UNL     1       3.327   4.654  19.814  0.00  0.00    +0.000 A 
ATOM     10  N   UNL     1       4.125   3.570  19.639  0.00  0.00    +0.000 NA
ATOM     11  C   UNL     1       3.804   2.534  20.445  0.00  0.00    +0.000 A 
ATOM     12  C   UNL     1       2.773   2.505  21.385  0.00  0.00    +0.000 A 
ATOM     13  C   UNL     1       1.964   3.626  21.558  0.00  0.00    +0.000 A 
ATOM     14  C   UNL     1       2.291   4.686  20.731  0.00  0.00    +0.000 A 
ATOM     15  O   UNL     1       1.700   5.900  20.648  0.00  0.00    +0.000 OA
ENDBRANCH   5   7
BRANCH   1  18
ATOM     16  O   UNL     1       0.522  12.782  20.359  0.00  0.00    +0.000 OA
ATOM     17  C   UNL     1       0.001  11.971  21.121  0.00  0.00    +0.000 C 
ATOM     18  N   UNL     1       0.036  10.601  20.980  0.00  0.00    +0.000 N 
ATOM     19  H   UNL     1      -0.622  10.049  21.514  0.00  0.00    +0.000 HD
BRANCH  17  20
ATOM     20  C   UNL     1      -0.710  12.518  22.301  0.00  0.00    +0.000 A 
ATOM     21  C   UNL     1      -0.535  13.850  22.742  0.00  0.00    +0.000 A 
ATOM     22  C   UNL     1      -1.477  14.433  23.598  0.00  0.00    +0.000 A 
ATOM     23  C   UNL     1      -2.581  13.677  23.931  0.00  0.00    +0.000 A 
ATOM     24  C   UNL     1      -2.701  12.354  23.562  0.00  0.00    +0.000 A 
ATOM     25  C   UNL     1      -1.762  11.729  22.789  0.00  0.00    +0.000 A 
ATOM     26  O   UNL     1      -3.913  11.833  23.895  0.00  0.00    +0.000 OA
ATOM     27  C   UNL     1      -4.620  13.063  24.135  0.00  0.00    +0.000 C 
ATOM     28  O   UNL     1      -3.726  14.135  24.511  0.00  0.00    +0.000 OA
ENDBRANCH  17  20
ENDBRANCH   1  18
TORSDOF 3
ENDMDL
MODEL 7
REMARK VINA RESULT:      -8.8      1.439      2.242
REMARK  Name = 
REMARK  3 active torsions:
REMARK  status: ('A' for Active; 'I' for Inactive)
REMARK    1  A    between atoms: C_2  and  C_19
REMARK    2  A    between atoms: N_3  and  C_4
REMARK    3  A    between atoms: C_8  and  C_9
REMARK                            x       y       z     vdW  Elec       q    Type
REMARK                         _______ _______ _______ _____ _____    ______ ____
ROOT
ATOM      1  C   UNL     1       1.973   5.121  20.630  0.00  0.00    +0.000 A 
ATOM      2  C   UNL     1       1.925   3.915  21.336  0.00  0.00    +0.000 A 
ATOM      3  C   UNL     1       2.775   2.862  21.014  0.00  0.00    +0.000 A 
ATOM      4  C   UNL     1       3.672   3.003  19.964  0.00  0.00    +0.000 A 
ATOM      5  C   UNL     1       3.713   4.188  19.212  0.00  0.00    +0.000 A 
ATOM      6  C   UNL     1       2.850   5.243  19.549  0.00  0.00    +0.000 A 
ENDROOT
BRANCH   5   7
ATOM      7  C   UNL     1       4.644   4.336  18.099  0.00  0.00    +0.000 A 
ATOM      8  N   UNL     1       5.916   4.698  18.112  0.00  0.00    +0.000 NA
ATOM      9  C   UNL     1       6.258   4.667  16.791  0.00  0.00    +0.000 A 
ATOM     10  N   UNL     1       7.471   4.965  16.260  0.00  0.00    +0.000 NA
ATOM     11  C   UNL     1       7.505   4.861  14.912  0.00  0.00    +0.000 A 
ATOM     12  C   UNL     1       6.444   4.492  14.083  0.00  0.00    +0.000 A 
ATOM     13  C   UNL     1       5.206   4.185  14.642  0.00  0.00    +0.000 A 
ATOM     14  C   UNL     1       5.170   4.293  16.021  0.00  0.00    +0.000 A 
ATOM     15  O   UNL     1       4.127   4.073  16.854  0.00  0.00    +0.000 OA
ENDBRANCH   5   7
BRANCH   1  18
ATOM     16  O   UNL     1       2.312   7.859  19.764  0.00  0.00    +0.000 OA
ATOM     17  C   UNL     1       1.425   7.521  20.544  0.00  0.00    +0.000 C 
ATOM     18  N   UNL     1       1.162   6.230  20.949  0.00  0.00    +0.000 N 
ATOM     19  H   UNL     1       0.271   6.040  21.389  0.00  0.00    +0.000 HD
BRANCH  17  20
ATOM     20  C   UNL     1       0.577   8.599  21.106  0.00  0.00    +0.000 A 
ATOM     21  C   UNL     1       0.166   8.614  22.459  0.00  0.00    +0.000 A 
ATOM     22  C   UNL     1      -0.297   9.801  23.037  0.00  0.00    +0.000 A 
ATOM     23  C   UNL     1      -0.278  10.935  22.252  0.00  0.00    +0.000 A 
ATOM     24  C   UNL     1       0.047  10.893  20.914  0.00  0.00    +0.000 A 
ATOM     25  C   UNL     1       0.432   9.734  20.296  0.00  0.00    +0.000 A 
ATOM     26  O   UNL     1       0.113  12.134  20.359  0.00  0.00    +0.000 OA
ATOM     27  C   UNL     1       0.182  12.909  21.569  0.00  0.00    +0.000 C 
ATOM     28  O   UNL     1      -0.420  12.218  22.688  0.00  0.00    +0.000 OA
ENDBRANCH  17  20
ENDBRANCH   1  18
TORSDOF 3
ENDMDL
MODEL 8
REMARK VINA RESULT:      -8.8      3.823      9.988
REMARK  Name = 
REMARK  3 active torsions:
REMARK  status: ('A' for Active; 'I' for Inactive)
REMARK    1  A    between atoms: C_2  and  C_19
REMARK    2  A    between atoms: N_3  and  C_4
REMARK    3  A    between atoms: C_8  and  C_9
REMARK                            x       y       z     vdW  Elec       q    Type
REMARK                         _______ _______ _______ _____ _____    ______ ____
ROOT
ATOM      1  C   UNL     1       1.351   9.846  18.061  0.00  0.00    +0.000 A 
ATOM      2  C   UNL     1       2.251  10.892  18.286  0.00  0.00    +0.000 A 
ATOM      3  C   UNL     1       1.803  12.151  18.674  0.00  0.00    +0.000 A 
ATOM      4  C   UNL     1       0.441  12.378  18.821  0.00  0.00    +0.000 A 
ATOM      5  C   UNL     1      -0.487  11.356  18.561  0.00  0.00    +0.000 A 
ATOM      6  C   UNL     1      -0.020  10.091  18.172  0.00  0.00    +0.000 A 
ENDROOT
BRANCH   5   7
ATOM      7  C   UNL     1      -1.919  11.593  18.701  0.00  0.00    +0.000 A 
ATOM      8  N   UNL     1      -2.583  12.152  19.699  0.00  0.00    +0.000 NA
ATOM      9  C   UNL     1      -3.880  12.092  19.276  0.00  0.00    +0.000 A 
ATOM     10  N   UNL     1      -4.973  12.534  19.947  0.00  0.00    +0.000 NA
ATOM     11  C   UNL     1      -6.132  12.323  19.283  0.00  0.00    +0.000 A 
ATOM     12  C   UNL     1      -6.269  11.718  18.032  0.00  0.00    +0.000 A 
ATOM     13  C   UNL     1      -5.139  11.272  17.352  0.00  0.00    +0.000 A 
ATOM     14  C   UNL     1      -3.954  11.487  18.033  0.00  0.00    +0.000 A 
ATOM     15  O   UNL     1      -2.696  11.166  17.652  0.00  0.00    +0.000 OA
ENDBRANCH   5   7
BRANCH   1  18
ATOM     16  O   UNL     1       2.195   7.727  19.839  0.00  0.00    +0.000 OA
ATOM     17  C   UNL     1       2.208   7.605  18.617  0.00  0.00    +0.000 C 
ATOM     18  N   UNL     1       1.762   8.543  17.711  0.00  0.00    +0.000 N 
ATOM     19  H   UNL     1       1.592   8.244  16.760  0.00  0.00    +0.000 HD
BRANCH  17  20
ATOM     20  C   UNL     1       2.768   6.344  18.074  0.00  0.00    +0.000 A 
ATOM     21  C   UNL     1       4.158   6.090  18.026  0.00  0.00    +0.000 A 
ATOM     22  C   UNL     1       4.625   4.780  17.869  0.00  0.00    +0.000 A 
ATOM     23  C   UNL     1       3.683   3.775  17.821  0.00  0.00    +0.000 A 
ATOM     24  C   UNL     1       2.331   4.040  17.787  0.00  0.00    +0.000 A 
ATOM     25  C   UNL     1       1.840   5.315  17.862  0.00  0.00    +0.000 A 
ATOM     26  O   UNL     1       1.580   2.907  17.856  0.00  0.00    +0.000 OA
ATOM     27  C   UNL     1       2.596   2.001  18.322  0.00  0.00    +0.000 C 
ATOM     28  O   UNL     1       3.923   2.439  17.947  0.00  0.00    +0.000 OA
ENDBRANCH  17  20
ENDBRANCH   1  18
TORSDOF 3
ENDMDL
MODEL 9
REMARK VINA RESULT:      -8.8      5.778      7.990
REMARK  Name = 
REMARK  3 active torsions:
REMARK  status: ('A' for Active; 'I' for Inactive)
REMARK    1  A    between atoms: C_2  and  C_19
REMARK    2  A    between atoms: N_3  and  C_4
REMARK    3  A    between atoms: C_8  and  C_9
REMARK                            x       y       z     vdW  Elec       q    Type
REMARK                         _______ _______ _______ _____ _____    ______ ____
ROOT
ATOM      1  C   UNL     1       7.520   6.752  17.820  0.00  0.00    +0.000 A 
ATOM      2  C   UNL     1       7.626   6.372  16.479  0.00  0.00    +0.000 A 
ATOM      3  C   UNL     1       6.790   5.400  15.941  0.00  0.00    +0.000 A 
ATOM      4  C   UNL     1       5.847   4.782  16.752  0.00  0.00    +0.000 A 
ATOM      5  C   UNL     1       5.747   5.114  18.113  0.00  0.00    +0.000 A 
ATOM      6  C   UNL     1       6.597   6.099  18.642  0.00  0.00    +0.000 A 
ENDROOT
BRANCH   5   7
ATOM      7  C   UNL     1       4.769   4.459  18.973  0.00  0.00    +0.000 A 
ATOM      8  N   UNL     1       4.938   3.468  19.834  0.00  0.00    +0.000 NA
ATOM      9  C   UNL     1       3.682   3.277  20.332  0.00  0.00    +0.000 A 
ATOM     10  N   UNL     1       3.309   2.358  21.259  0.00  0.00    +0.000 NA
ATOM     11  C   UNL     1       1.988   2.394  21.547  0.00  0.00    +0.000 A 
ATOM     12  C   UNL     1       1.043   3.256  20.989  0.00  0.00    +0.000 A 
ATOM     13  C   UNL     1       1.440   4.197  20.042  0.00  0.00    +0.000 A 
ATOM     14  C   UNL     1       2.791   4.160  19.746  0.00  0.00    +0.000 A 
ATOM     15  O   UNL     1       3.482   4.928  18.874  0.00  0.00    +0.000 OA
ENDBRANCH   5   7
BRANCH   1  18
ATOM     16  O   UNL     1       7.293   9.608  17.430  0.00  0.00    +0.000 OA
ATOM     17  C   UNL     1       8.181   9.106  18.114  0.00  0.00    +0.000 C 
ATOM     18  N   UNL     1       8.315   7.764  18.397  0.00  0.00    +0.000 N 
ATOM     19  H   UNL     1       8.926   7.495  19.157  0.00  0.00    +0.000 HD
BRANCH  17  20
ATOM     20  C   UNL     1       9.205  10.025  18.666  0.00  0.00    +0.000 A 
ATOM     21  C   UNL     1      10.046  10.808  17.841  0.00  0.00    +0.000 A 
ATOM     22  C   UNL     1      10.717  11.914  18.374  0.00  0.00    +0.000 A 
ATOM     23  C   UNL     1      10.475  12.222  19.696  0.00  0.00    +0.000 A 
ATOM     24  C   UNL     1       9.719  11.407  20.511  0.00  0.00    +0.000 A 
ATOM     25  C   UNL     1       9.110  10.276  20.042  0.00  0.00    +0.000 A 
ATOM     26  O   UNL     1       9.513  11.954  21.741  0.00  0.00    +0.000 OA
ATOM     27  C   UNL     1       9.881  13.311  21.439  0.00  0.00    +0.000 C 
ATOM     28  O   UNL     1      10.799  13.387  20.324  0.00  0.00    +0.000 OA
ENDBRANCH  17  20
ENDBRANCH   1  18
TORSDOF 3
ENDMDL
