MODEL 1
REMARK VINA RESULT:      -6.9      0.000      0.000
REMARK  Name = 
REMARK  3 active torsions:
REMARK  status: ('A' for Active; 'I' for Inactive)
REMARK    1  A    between atoms: C_5  and  C_6
REMARK    2  A    between atoms: C_9  and  C_10
REMARK    3  A    between atoms: C_17  and  N_18
REMARK                            x       y       z     vdW  Elec       q    Type
REMARK                         _______ _______ _______ _____ _____    ______ ____
ROOT
ATOM      1  C   UNL     1       1.104   8.971  20.788  0.00  0.00    +0.000 A 
ATOM      2  N   UNL     1       0.459   8.795  21.959  0.00  0.00    +0.000 NA
ATOM      3  N   UNL     1      -0.165   9.837  22.545  0.00  0.00    +0.000 NA
ATOM      4  C   UNL     1      -0.120  11.052  21.953  0.00  0.00    +0.000 A 
ATOM      5  C   UNL     1       0.651  11.236  20.783  0.00  0.00    +0.000 A 
ATOM      6  N   UNL     1       1.243  10.172  20.181  0.00  0.00    +0.000 NA
ENDROOT
BRANCH   1  11
ATOM      7 CL   UNL     1       3.320   4.042  18.105  0.00  0.00    +0.000 Cl
ATOM      8  C   UNL     1       2.681   5.440  18.874  0.00  0.00    +0.000 A 
ATOM      9  C   UNL     1       2.762   6.671  18.238  0.00  0.00    +0.000 A 
ATOM     10  C   UNL     1       2.239   7.809  18.869  0.00  0.00    +0.000 A 
ATOM     11  C   UNL     1       1.628   7.746  20.143  0.00  0.00    +0.000 A 
ATOM     12  C   UNL     1       1.558   6.481  20.748  0.00  0.00    +0.000 A 
ATOM     13  C   UNL     1       2.084   5.339  20.127  0.00  0.00    +0.000 A 
ENDBRANCH   1  11
BRANCH   4  14
ATOM     14  C   UNL     1      -1.011  12.050  22.583  0.00  0.00    +0.000 A 
ATOM     15  C   UNL     1      -0.598  13.384  22.763  0.00  0.00    +0.000 A 
ATOM     16  C   UNL     1      -1.449  14.341  23.330  0.00  0.00    +0.000 A 
ATOM     17  C   UNL     1      -2.738  13.982  23.710  0.00  0.00    +0.000 A 
ATOM     18 BR   UNL     1      -3.918  15.280  24.409  0.00  0.00    +0.000 Br
ATOM     19  C   UNL     1      -3.162  12.667  23.581  0.00  0.00    +0.000 A 
ATOM     20  C   UNL     1      -2.288  11.708  23.060  0.00  0.00    +0.000 A 
ENDBRANCH   4  14
BRANCH   5  21
ATOM     21  N   UNL     1       0.761  12.497  20.179  0.00  0.00    +0.000 N 
ATOM     22  C   UNL     1      -0.091  12.801  19.025  0.00  0.00    +0.000 C 
ATOM     23  C   UNL     1      -0.555  14.260  19.145  0.00  0.00    +0.000 C 
ATOM     24  S   UNL     1       0.841  15.444  19.050  0.00  0.00    +0.000 S 
ATOM     25  C   UNL     1       1.950  14.678  20.289  0.00  0.00    +0.000 C 
ATOM     26  C   UNL     1       2.088  13.150  20.141  0.00  0.00    +0.000 C 
ENDBRANCH   5  21
TORSDOF 3
ENDMDL
MODEL 2
REMARK VINA RESULT:      -6.8      0.140      1.340
REMARK  Name = 
REMARK  3 active torsions:
REMARK  status: ('A' for Active; 'I' for Inactive)
REMARK    1  A    between atoms: C_5  and  C_6
REMARK    2  A    between atoms: C_9  and  C_10
REMARK    3  A    between atoms: C_17  and  N_18
REMARK                            x       y       z     vdW  Elec       q    Type
REMARK                         _______ _______ _______ _____ _____    ______ ____
ROOT
ATOM      1  C   UNL     1       1.128   8.995  20.783  0.00  0.00    +0.000 A 
ATOM      2  N   UNL     1       0.495   8.842  21.963  0.00  0.00    +0.000 NA
ATOM      3  N   UNL     1      -0.115   9.897  22.540  0.00  0.00    +0.000 NA
ATOM      4  C   UNL     1      -0.069  11.102  21.929  0.00  0.00    +0.000 A 
ATOM      5  C   UNL     1       0.689  11.263  20.747  0.00  0.00    +0.000 A 
ATOM      6  N   UNL     1       1.268  10.186  20.156  0.00  0.00    +0.000 NA
ENDROOT
BRANCH   1  11
ATOM      7 CL   UNL     1       3.121   3.889  18.262  0.00  0.00    +0.000 Cl
ATOM      8  C   UNL     1       2.561   5.349  18.975  0.00  0.00    +0.000 A 
ATOM      9  C   UNL     1       1.989   5.320  20.239  0.00  0.00    +0.000 A 
ATOM     10  C   UNL     1       1.533   6.514  20.817  0.00  0.00    +0.000 A 
ATOM     11  C   UNL     1       1.637   7.757  20.150  0.00  0.00    +0.000 A 
ATOM     12  C   UNL     1       2.231   7.744  18.879  0.00  0.00    +0.000 A 
ATOM     13  C   UNL     1       2.683   6.554  18.290  0.00  0.00    +0.000 A 
ENDBRANCH   1  11
BRANCH   4  14
ATOM     14  C   UNL     1      -0.946  12.116  22.553  0.00  0.00    +0.000 A 
ATOM     15  C   UNL     1      -2.246  11.789  22.984  0.00  0.00    +0.000 A 
ATOM     16  C   UNL     1      -3.069  12.737  23.606  0.00  0.00    +0.000 A 
ATOM     17  C   UNL     1      -2.596  14.027  23.822  0.00  0.00    +0.000 A 
ATOM     18 BR   UNL     1      -3.670  15.293  24.722  0.00  0.00    +0.000 Br
ATOM     19  C   UNL     1      -1.335  14.391  23.374  0.00  0.00    +0.000 A 
ATOM     20  C   UNL     1      -0.540  13.452  22.710  0.00  0.00    +0.000 A 
ENDBRANCH   4  14
BRANCH   5  21
ATOM     21  N   UNL     1       0.800  12.514  20.123  0.00  0.00    +0.000 N 
ATOM     22  C   UNL     1      -0.038  12.793  18.954  0.00  0.00    +0.000 C 
ATOM     23  C   UNL     1      -0.511  14.251  19.042  0.00  0.00    +0.000 C 
ATOM     24  S   UNL     1       0.879  15.441  18.944  0.00  0.00    +0.000 S 
ATOM     25  C   UNL     1       1.977  14.703  20.209  0.00  0.00    +0.000 C 
ATOM     26  C   UNL     1       2.125  13.173  20.090  0.00  0.00    +0.000 C 
ENDBRANCH   5  21
TORSDOF 3
ENDMDL
MODEL 3
REMARK VINA RESULT:      -6.7      0.836      1.014
REMARK  Name = 
REMARK  3 active torsions:
REMARK  status: ('A' for Active; 'I' for Inactive)
REMARK    1  A    between atoms: C_5  and  C_6
REMARK    2  A    between atoms: C_9  and  C_10
REMARK    3  A    between atoms: C_17  and  N_18
REMARK                            x       y       z     vdW  Elec       q    Type
REMARK                         _______ _______ _______ _____ _____    ______ ____
ROOT
ATOM      1  C   UNL     1       1.035   9.052  20.456  0.00  0.00    +0.000 A 
ATOM      2  N   UNL     1       0.134   8.824  21.432  0.00  0.00    +0.000 NA
ATOM      3  N   UNL     1      -0.610   9.842  21.911  0.00  0.00    +0.000 NA
ATOM      4  C   UNL     1      -0.427  11.085  21.412  0.00  0.00    +0.000 A 
ATOM      5  C   UNL     1       0.596  11.321  20.466  0.00  0.00    +0.000 A 
ATOM      6  N   UNL     1       1.312  10.282  19.963  0.00  0.00    +0.000 NA
ENDROOT
BRANCH   1  11
ATOM      7 CL   UNL     1       3.798   4.246  18.075  0.00  0.00    +0.000 Cl
ATOM      8  C   UNL     1       3.004   5.609  18.758  0.00  0.00    +0.000 A 
ATOM      9  C   UNL     1       2.951   6.800  18.048  0.00  0.00    +0.000 A 
ATOM     10  C   UNL     1       2.302   7.909  18.609  0.00  0.00    +0.000 A 
ATOM     11  C   UNL     1       1.695   7.856  19.885  0.00  0.00    +0.000 A 
ATOM     12  C   UNL     1       1.763   6.631  20.567  0.00  0.00    +0.000 A 
ATOM     13  C   UNL     1       2.415   5.518  20.015  0.00  0.00    +0.000 A 
ENDBRANCH   1  11
BRANCH   4  14
ATOM     14  C   UNL     1      -1.440  12.060  21.870  0.00  0.00    +0.000 A 
ATOM     15  C   UNL     1      -2.515  12.437  21.042  0.00  0.00    +0.000 A 
ATOM     16  C   UNL     1      -3.495  13.336  21.482  0.00  0.00    +0.000 A 
ATOM     17  C   UNL     1      -3.424  13.861  22.768  0.00  0.00    +0.000 A 
ATOM     18 BR   UNL     1      -4.777  15.018  23.397  0.00  0.00    +0.000 Br
ATOM     19  C   UNL     1      -2.357  13.540  23.594  0.00  0.00    +0.000 A 
ATOM     20  C   UNL     1      -1.357  12.680  23.128  0.00  0.00    +0.000 A 
ENDBRANCH   4  14
BRANCH   5  21
ATOM     21  N   UNL     1       0.844  12.610  19.974  0.00  0.00    +0.000 N 
ATOM     22  C   UNL     1       0.286  12.985  18.671  0.00  0.00    +0.000 C 
ATOM     23  C   UNL     1      -0.193  14.440  18.758  0.00  0.00    +0.000 C 
ATOM     24  S   UNL     1       1.187  15.610  19.055  0.00  0.00    +0.000 S 
ATOM     25  C   UNL     1       1.976  14.766  20.475  0.00  0.00    +0.000 C 
ATOM     26  C   UNL     1       2.144  13.247  20.282  0.00  0.00    +0.000 C 
ENDBRANCH   5  21
TORSDOF 3
ENDMDL
MODEL 4
REMARK VINA RESULT:      -6.7      5.685      9.715
REMARK  Name = 
REMARK  3 active torsions:
REMARK  status: ('A' for Active; 'I' for Inactive)
REMARK    1  A    between atoms: C_5  and  C_6
REMARK    2  A    between atoms: C_9  and  C_10
REMARK    3  A    between atoms: C_17  and  N_18
REMARK                            x       y       z     vdW  Elec       q    Type
REMARK                         _______ _______ _______ _____ _____    ______ ____
ROOT
ATOM      1  C   UNL     1       1.810   8.124  19.804  0.00  0.00    +0.000 A 
ATOM      2  N   UNL     1       2.584   8.741  18.888  0.00  0.00    +0.000 NA
ATOM      3  N   UNL     1       3.358   8.009  18.061  0.00  0.00    +0.000 NA
ATOM      4  C   UNL     1       3.357   6.662  18.175  0.00  0.00    +0.000 A 
ATOM      5  C   UNL     1       2.622   6.044  19.212  0.00  0.00    +0.000 A 
ATOM      6  N   UNL     1       1.817   6.787  20.014  0.00  0.00    +0.000 NA
ENDROOT
BRANCH   1  11
ATOM      7 CL   UNL     1      -1.909  11.646  22.993  0.00  0.00    +0.000 Cl
ATOM      8  C   UNL     1      -0.856  10.643  22.075  0.00  0.00    +0.000 A 
ATOM      9  C   UNL     1      -0.180   9.605  22.700  0.00  0.00    +0.000 A 
ATOM     10  C   UNL     1       0.679   8.790  21.949  0.00  0.00    +0.000 A 
ATOM     11  C   UNL     1       0.882   8.992  20.563  0.00  0.00    +0.000 A 
ATOM     12  C   UNL     1       0.172  10.047  19.968  0.00  0.00    +0.000 A 
ATOM     13  C   UNL     1      -0.683  10.871  20.714  0.00  0.00    +0.000 A 
ENDBRANCH   1  11
BRANCH   4  14
ATOM     14  C   UNL     1       4.081   5.976  17.083  0.00  0.00    +0.000 A 
ATOM     15  C   UNL     1       4.007   4.578  16.926  0.00  0.00    +0.000 A 
ATOM     16  C   UNL     1       4.664   3.927  15.875  0.00  0.00    +0.000 A 
ATOM     17  C   UNL     1       5.393   4.667  14.950  0.00  0.00    +0.000 A 
ATOM     18 BR   UNL     1       6.223   3.807  13.488  0.00  0.00    +0.000 Br
ATOM     19  C   UNL     1       5.517   6.041  15.099  0.00  0.00    +0.000 A 
ATOM     20  C   UNL     1       4.899   6.677  16.180  0.00  0.00    +0.000 A 
ENDBRANCH   4  14
BRANCH   5  21
ATOM     21  N   UNL     1       2.649   4.653  19.389  0.00  0.00    +0.000 N 
ATOM     22  C   UNL     1       1.386   3.911  19.322  0.00  0.00    +0.000 C 
ATOM     23  C   UNL     1       1.647   2.589  18.586  0.00  0.00    +0.000 C 
ATOM     24  S   UNL     1       2.807   1.502  19.499  0.00  0.00    +0.000 S 
ATOM     25  C   UNL     1       4.143   2.712  19.816  0.00  0.00    +0.000 C 
ATOM     26  C   UNL     1       3.640   4.077  20.325  0.00  0.00    +0.000 C 
ENDBRANCH   5  21
TORSDOF 3
ENDMDL
MODEL 5
REMARK VINA RESULT:      -6.6      2.498      4.287
REMARK  Name = 
REMARK  3 active torsions:
REMARK  status: ('A' for Active; 'I' for Inactive)
REMARK    1  A    between atoms: C_5  and  C_6
REMARK    2  A    between atoms: C_9  and  C_10
REMARK    3  A    between atoms: C_17  and  N_18
REMARK                            x       y       z     vdW  Elec       q    Type
REMARK                         _______ _______ _______ _____ _____    ______ ____
ROOT
ATOM      1  C   UNL     1       2.124   8.605  18.316  0.00  0.00    +0.000 A 
ATOM      2  N   UNL     1       2.554   9.572  17.480  0.00  0.00    +0.000 NA
ATOM      3  N   UNL     1       2.216  10.857  17.709  0.00  0.00    +0.000 NA
ATOM      4  C   UNL     1       1.434  11.155  18.770  0.00  0.00    +0.000 A 
ATOM      5  C   UNL     1       0.907  10.116  19.571  0.00  0.00    +0.000 A 
ATOM      6  N   UNL     1       1.285   8.830  19.354  0.00  0.00    +0.000 NA
ENDROOT
BRANCH   1  11
ATOM      7 CL   UNL     1       4.227   3.037  17.328  0.00  0.00    +0.000 Cl
ATOM      8  C   UNL     1       3.638   4.627  17.612  0.00  0.00    +0.000 A 
ATOM      9  C   UNL     1       2.383   4.803  18.176  0.00  0.00    +0.000 A 
ATOM     10  C   UNL     1       1.906   6.102  18.405  0.00  0.00    +0.000 A 
ATOM     11  C   UNL     1       2.666   7.249  18.078  0.00  0.00    +0.000 A 
ATOM     12  C   UNL     1       3.934   7.027  17.518  0.00  0.00    +0.000 A 
ATOM     13  C   UNL     1       4.416   5.731  17.279  0.00  0.00    +0.000 A 
ENDBRANCH   1  11
BRANCH   4  14
ATOM     14  C   UNL     1       1.312  12.607  19.026  0.00  0.00    +0.000 A 
ATOM     15  C   UNL     1       0.298  13.371  18.418  0.00  0.00    +0.000 A 
ATOM     16  C   UNL     1       0.158  14.740  18.681  0.00  0.00    +0.000 A 
ATOM     17  C   UNL     1       1.022  15.364  19.574  0.00  0.00    +0.000 A 
ATOM     18 BR   UNL     1       0.798  17.192  19.991  0.00  0.00    +0.000 Br
ATOM     19  C   UNL     1       2.056  14.647  20.160  0.00  0.00    +0.000 A 
ATOM     20  C   UNL     1       2.218  13.293  19.852  0.00  0.00    +0.000 A 
ENDBRANCH   4  14
BRANCH   5  21
ATOM     21  N   UNL     1       0.048  10.393  20.644  0.00  0.00    +0.000 N 
ATOM     22  C   UNL     1      -0.127   9.377  21.685  0.00  0.00    +0.000 C 
ATOM     23  C   UNL     1      -0.198  10.090  23.043  0.00  0.00    +0.000 C 
ATOM     24  S   UNL     1      -1.662  11.186  23.177  0.00  0.00    +0.000 S 
ATOM     25  C   UNL     1      -1.471  12.109  21.608  0.00  0.00    +0.000 C 
ATOM     26  C   UNL     1      -1.156  11.216  20.392  0.00  0.00    +0.000 C 
ENDBRANCH   5  21
TORSDOF 3
ENDMDL
MODEL 6
REMARK VINA RESULT:      -6.6      0.843      1.292
REMARK  Name = 
REMARK  3 active torsions:
REMARK  status: ('A' for Active; 'I' for Inactive)
REMARK    1  A    between atoms: C_5  and  C_6
REMARK    2  A    between atoms: C_9  and  C_10
REMARK    3  A    between atoms: C_17  and  N_18
REMARK                            x       y       z     vdW  Elec       q    Type
REMARK                         _______ _______ _______ _____ _____    ______ ____
ROOT
ATOM      1  C   UNL     1       1.085   9.049  20.448  0.00  0.00    +0.000 A 
ATOM      2  N   UNL     1       0.184   8.820  21.425  0.00  0.00    +0.000 NA
ATOM      3  N   UNL     1      -0.565   9.837  21.898  0.00  0.00    +0.000 NA
ATOM      4  C   UNL     1      -0.388  11.078  21.394  0.00  0.00    +0.000 A 
ATOM      5  C   UNL     1       0.635  11.315  20.447  0.00  0.00    +0.000 A 
ATOM      6  N   UNL     1       1.357  10.278  19.950  0.00  0.00    +0.000 NA
ENDROOT
BRANCH   1  11
ATOM      7 CL   UNL     1       3.727   4.109  18.206  0.00  0.00    +0.000 Cl
ATOM      8  C   UNL     1       2.982   5.523  18.840  0.00  0.00    +0.000 A 
ATOM      9  C   UNL     1       2.379   5.480  20.089  0.00  0.00    +0.000 A 
ATOM     10  C   UNL     1       1.771   6.635  20.602  0.00  0.00    +0.000 A 
ATOM     11  C   UNL     1       1.752   7.853  19.884  0.00  0.00    +0.000 A 
ATOM     12  C   UNL     1       2.381   7.857  18.629  0.00  0.00    +0.000 A 
ATOM     13  C   UNL     1       2.985   6.705  18.106  0.00  0.00    +0.000 A 
ENDBRANCH   1  11
BRANCH   4  14
ATOM     14  C   UNL     1      -1.407  12.051  21.845  0.00  0.00    +0.000 A 
ATOM     15  C   UNL     1      -1.382  12.578  23.150  0.00  0.00    +0.000 A 
ATOM     16  C   UNL     1      -2.326  13.524  23.573  0.00  0.00    +0.000 A 
ATOM     17  C   UNL     1      -3.301  13.971  22.688  0.00  0.00    +0.000 A 
ATOM     18 BR   UNL     1      -4.533  15.298  23.225  0.00  0.00    +0.000 Br
ATOM     19  C   UNL     1      -3.375  13.442  21.408  0.00  0.00    +0.000 A 
ATOM     20  C   UNL     1      -2.461  12.462  21.011  0.00  0.00    +0.000 A 
ENDBRANCH   4  14
BRANCH   5  21
ATOM     21  N   UNL     1       0.877  12.603  19.950  0.00  0.00    +0.000 N 
ATOM     22  C   UNL     1       0.333  12.963  18.637  0.00  0.00    +0.000 C 
ATOM     23  C   UNL     1      -0.162  14.415  18.707  0.00  0.00    +0.000 C 
ATOM     24  S   UNL     1       1.202  15.601  19.015  0.00  0.00    +0.000 S 
ATOM     25  C   UNL     1       1.980  14.774  20.451  0.00  0.00    +0.000 C 
ATOM     26  C   UNL     1       2.166  13.255  20.270  0.00  0.00    +0.000 C 
ENDBRANCH   5  21
TORSDOF 3
ENDMDL
MODEL 7
REMARK VINA RESULT:      -6.6      1.080      1.206
REMARK  Name = 
REMARK  3 active torsions:
REMARK  status: ('A' for Active; 'I' for Inactive)
REMARK    1  A    between atoms: C_5  and  C_6
REMARK    2  A    between atoms: C_9  and  C_10
REMARK    3  A    between atoms: C_17  and  N_18
REMARK                            x       y       z     vdW  Elec       q    Type
REMARK                         _______ _______ _______ _____ _____    ______ ____
ROOT
ATOM      1  C   UNL     1       0.753   9.933  20.665  0.00  0.00    +0.000 A 
ATOM      2  N   UNL     1      -0.110   9.614  21.651  0.00  0.00    +0.000 NA
ATOM      3  N   UNL     1      -0.821  10.584  22.261  0.00  0.00    +0.000 NA
ATOM      4  C   UNL     1      -0.644  11.869  21.883  0.00  0.00    +0.000 A 
ATOM      5  C   UNL     1       0.342  12.192  20.923  0.00  0.00    +0.000 A 
ATOM      6  N   UNL     1       1.024  11.205  20.288  0.00  0.00    +0.000 NA
ENDROOT
BRANCH   1  11
ATOM      7 CL   UNL     1       3.346   5.374  17.683  0.00  0.00    +0.000 Cl
ATOM      8  C   UNL     1       2.601   6.666  18.538  0.00  0.00    +0.000 A 
ATOM      9  C   UNL     1       2.355   7.867  17.889  0.00  0.00    +0.000 A 
ATOM     10  C   UNL     1       1.748   8.919  18.590  0.00  0.00    +0.000 A 
ATOM     11  C   UNL     1       1.375   8.796  19.949  0.00  0.00    +0.000 A 
ATOM     12  C   UNL     1       1.632   7.562  20.566  0.00  0.00    +0.000 A 
ATOM     13  C   UNL     1       2.245   6.508  19.874  0.00  0.00    +0.000 A 
ENDBRANCH   1  11
BRANCH   4  14
ATOM     14  C   UNL     1      -1.626  12.801  22.479  0.00  0.00    +0.000 A 
ATOM     15  C   UNL     1      -1.242  13.735  23.460  0.00  0.00    +0.000 A 
ATOM     16  C   UNL     1      -2.161  14.641  24.005  0.00  0.00    +0.000 A 
ATOM     17  C   UNL     1      -3.479  14.639  23.561  0.00  0.00    +0.000 A 
ATOM     18 BR   UNL     1      -4.709  15.903  24.236  0.00  0.00    +0.000 Br
ATOM     19  C   UNL     1      -3.898  13.706  22.623  0.00  0.00    +0.000 A 
ATOM     20  C   UNL     1      -2.986  12.773  22.123  0.00  0.00    +0.000 A 
ENDBRANCH   4  14
BRANCH   5  21
ATOM     21  N   UNL     1       0.585  13.523  20.554  0.00  0.00    +0.000 N 
ATOM     22  C   UNL     1       0.257  13.945  19.189  0.00  0.00    +0.000 C 
ATOM     23  C   UNL     1      -0.334  15.360  19.254  0.00  0.00    +0.000 C 
ATOM     24  S   UNL     1       0.877  16.591  19.871  0.00  0.00    +0.000 S 
ATOM     25  C   UNL     1       1.442  15.709  21.372  0.00  0.00    +0.000 C 
ATOM     26  C   UNL     1       1.753  14.217  21.138  0.00  0.00    +0.000 C 
ENDBRANCH   5  21
TORSDOF 3
ENDMDL
MODEL 8
REMARK VINA RESULT:      -6.5      2.306      4.149
REMARK  Name = 
REMARK  3 active torsions:
REMARK  status: ('A' for Active; 'I' for Inactive)
REMARK    1  A    between atoms: C_5  and  C_6
REMARK    2  A    between atoms: C_9  and  C_10
REMARK    3  A    between atoms: C_17  and  N_18
REMARK                            x       y       z     vdW  Elec       q    Type
REMARK                         _______ _______ _______ _____ _____    ______ ____
ROOT
ATOM      1  C   UNL     1       1.738   9.216  18.899  0.00  0.00    +0.000 A 
ATOM      2  N   UNL     1       2.389  10.058  18.071  0.00  0.00    +0.000 NA
ATOM      3  N   UNL     1       2.106  11.376  18.096  0.00  0.00    +0.000 NA
ATOM      4  C   UNL     1       1.158  11.832  18.945  0.00  0.00    +0.000 A 
ATOM      5  C   UNL     1       0.414  10.919  19.726  0.00  0.00    +0.000 A 
ATOM      6  N   UNL     1       0.733   9.599  19.721  0.00  0.00    +0.000 NA
ENDROOT
BRANCH   1  11
ATOM      7 CL   UNL     1       3.602   3.479  19.022  0.00  0.00    +0.000 Cl
ATOM      8  C   UNL     1       3.080   5.117  18.981  0.00  0.00    +0.000 A 
ATOM      9  C   UNL     1       2.382   5.641  20.059  0.00  0.00    +0.000 A 
ATOM     10  C   UNL     1       1.957   6.977  20.022  0.00  0.00    +0.000 A 
ATOM     11  C   UNL     1       2.218   7.815  18.913  0.00  0.00    +0.000 A 
ATOM     12  C   UNL     1       2.935   7.249  17.847  0.00  0.00    +0.000 A 
ATOM     13  C   UNL     1       3.358   5.912  17.874  0.00  0.00    +0.000 A 
ENDBRANCH   1  11
BRANCH   4  14
ATOM     14  C   UNL     1       1.093  13.308  19.021  0.00  0.00    +0.000 A 
ATOM     15  C   UNL     1      -0.037  14.012  18.564  0.00  0.00    +0.000 A 
ATOM     16  C   UNL     1      -0.117  15.407  18.663  0.00  0.00    +0.000 A 
ATOM     17  C   UNL     1       0.928  16.120  19.240  0.00  0.00    +0.000 A 
ATOM     18 BR   UNL     1       0.801  17.993  19.445  0.00  0.00    +0.000 Br
ATOM     19  C   UNL     1       2.072  15.459  19.665  0.00  0.00    +0.000 A 
ATOM     20  C   UNL     1       2.164  14.072  19.516  0.00  0.00    +0.000 A 
ENDBRANCH   4  14
BRANCH   5  21
ATOM     21  N   UNL     1      -0.613  11.359  20.572  0.00  0.00    +0.000 N 
ATOM     22  C   UNL     1      -0.565  10.987  21.989  0.00  0.00    +0.000 C 
ATOM     23  C   UNL     1      -1.038  12.191  22.816  0.00  0.00    +0.000 C 
ATOM     24  S   UNL     1      -2.788  12.621  22.482  0.00  0.00    +0.000 S 
ATOM     25  C   UNL     1      -2.726  12.669  20.653  0.00  0.00    +0.000 C 
ATOM     26  C   UNL     1      -1.983  11.474  20.023  0.00  0.00    +0.000 C 
ENDBRANCH   5  21
TORSDOF 3
ENDMDL
MODEL 9
REMARK VINA RESULT:      -6.5      2.343      4.075
REMARK  Name = 
REMARK  3 active torsions:
REMARK  status: ('A' for Active; 'I' for Inactive)
REMARK    1  A    between atoms: C_5  and  C_6
REMARK    2  A    between atoms: C_9  and  C_10
REMARK    3  A    between atoms: C_17  and  N_18
REMARK                            x       y       z     vdW  Elec       q    Type
REMARK                         _______ _______ _______ _____ _____    ______ ____
ROOT
ATOM      1  C   UNL     1       1.561   9.670  19.011  0.00  0.00    +0.000 A 
ATOM      2  N   UNL     1       2.211  10.531  18.203  0.00  0.00    +0.000 NA
ATOM      3  N   UNL     1       1.923  11.848  18.255  0.00  0.00    +0.000 NA
ATOM      4  C   UNL     1       0.970  12.282  19.109  0.00  0.00    +0.000 A 
ATOM      5  C   UNL     1       0.227  11.350  19.868  0.00  0.00    +0.000 A 
ATOM      6  N   UNL     1       0.551  10.032  19.836  0.00  0.00    +0.000 NA
ENDROOT
BRANCH   1  11
ATOM      7 CL   UNL     1       3.448   3.939  19.024  0.00  0.00    +0.000 Cl
ATOM      8  C   UNL     1       2.919   5.575  19.014  0.00  0.00    +0.000 A 
ATOM      9  C   UNL     1       2.246   6.085  20.115  0.00  0.00    +0.000 A 
ATOM     10  C   UNL     1       1.816   7.419  20.103  0.00  0.00    +0.000 A 
ATOM     11  C   UNL     1       2.046   8.271  18.997  0.00  0.00    +0.000 A 
ATOM     12  C   UNL     1       2.738   7.720  17.908  0.00  0.00    +0.000 A 
ATOM     13  C   UNL     1       3.166   6.384  17.909  0.00  0.00    +0.000 A 
ENDBRANCH   1  11
BRANCH   4  14
ATOM     14  C   UNL     1       0.899  13.756  19.216  0.00  0.00    +0.000 A 
ATOM     15  C   UNL     1       1.856  14.480  19.953  0.00  0.00    +0.000 A 
ATOM     16  C   UNL     1       1.812  15.878  20.032  0.00  0.00    +0.000 A 
ATOM     17  C   UNL     1       0.817  16.577  19.357  0.00  0.00    +0.000 A 
ATOM     18 BR   UNL     1       0.790  18.464  19.397  0.00  0.00    +0.000 Br
ATOM     19  C   UNL     1      -0.162  15.891  18.653  0.00  0.00    +0.000 A 
ATOM     20  C   UNL     1      -0.140  14.493  18.622  0.00  0.00    +0.000 A 
ENDBRANCH   4  14
BRANCH   5  21
ATOM     21  N   UNL     1      -0.805  11.769  20.719  0.00  0.00    +0.000 N 
ATOM     22  C   UNL     1      -0.799  11.308  22.111  0.00  0.00    +0.000 C 
ATOM     23  C   UNL     1      -1.254  12.473  23.002  0.00  0.00    +0.000 C 
ATOM     24  S   UNL     1      -2.983  12.977  22.660  0.00  0.00    +0.000 S 
ATOM     25  C   UNL     1      -2.879  13.136  20.839  0.00  0.00    +0.000 C 
ATOM     26  C   UNL     1      -2.158  11.960  20.151  0.00  0.00    +0.000 C 
ENDBRANCH   5  21
TORSDOF 3
ENDMDL
