MODEL 1
REMARK VINA RESULT:      -8.9      0.000      0.000
REMARK  Name = 
REMARK  3 active torsions:
REMARK  status: ('A' for Active; 'I' for Inactive)
REMARK    1  A    between atoms: C_2  and  C_3
REMARK    2  A    between atoms: C_6  and  S_7
REMARK    3  A    between atoms: S_7  and  N_10
REMARK                            x       y       z     vdW  Elec       q    Type
REMARK                         _______ _______ _______ _____ _____    ______ ____
ROOT
ATOM      1  C   UNL     1       2.573   8.013  18.601  0.00  0.00    +0.000 A 
ATOM      2  C   UNL     1       3.478   7.720  17.548  0.00  0.00    +0.000 A 
ATOM      3  C   UNL     1       4.173   6.516  17.483  0.00  0.00    +0.000 A 
ATOM      4  C   UNL     1       4.004   5.590  18.504  0.00  0.00    +0.000 A 
ATOM      5  C   UNL     1       3.103   5.849  19.553  0.00  0.00    +0.000 A 
ATOM      6  C   UNL     1       2.386   7.064  19.603  0.00  0.00    +0.000 A 
ENDROOT
BRANCH   1   8
ATOM      7  O   UNL     1       1.971   9.788  17.319  0.00  0.00    +0.000 OA
ATOM      8  C   UNL     1       1.691   9.179  18.362  0.00  0.00    +0.000 C 
ATOM      9  N   UNL     1       0.594   9.605  19.125  0.00  0.00    +0.000 N 
ATOM     10  C   UNL     1      -0.096  10.708  18.448  0.00  0.00    +0.000 C 
ATOM     11  C   UNL     1      -1.474  11.039  18.952  0.00  0.00    +0.000 C 
ATOM     12  C   UNL     1      -1.392  11.300  20.417  0.00  0.00    +0.000 A 
ATOM     13  C   UNL     1      -2.115  12.378  20.950  0.00  0.00    +0.000 A 
ATOM     14  C   UNL     1      -2.021  12.686  22.297  0.00  0.00    +0.000 A 
ATOM     15  C   UNL     1      -1.260  11.859  23.118  0.00  0.00    +0.000 A 
ATOM     16  C   UNL     1      -0.560  10.750  22.591  0.00  0.00    +0.000 A 
ATOM     17  C   UNL     1      -0.564  10.486  21.210  0.00  0.00    +0.000 A 
ATOM     18  C   UNL     1       0.250   9.353  20.558  0.00  0.00    +0.000 C 
ENDBRANCH   1   8
BRANCH   4  19
ATOM     19  S   UNL     1       4.829   4.006  18.378  0.00  0.00    +0.000 S 
ATOM     20  O   UNL     1       5.688   4.081  17.215  0.00  0.00    +0.000 OA
ATOM     21  O   UNL     1       5.387   3.716  19.683  0.00  0.00    +0.000 OA
BRANCH  19  22
ATOM     22  N   UNL     1       3.607   2.915  18.069  0.00  0.00    +0.000 NA
ATOM     23  C   UNL     1       2.497   3.286  17.157  0.00  0.00    +0.000 C 
ATOM     24  C   UNL     1       1.233   3.665  17.940  0.00  0.00    +0.000 C 
ATOM     25  O   UNL     1       0.859   2.648  18.880  0.00  0.00    +0.000 OA
ATOM     26  C   UNL     1       1.914   2.392  19.816  0.00  0.00    +0.000 C 
ATOM     27  C   UNL     1       3.188   1.934  19.103  0.00  0.00    +0.000 C 
ENDBRANCH  19  22
ENDBRANCH   4  19
TORSDOF 3
ENDMDL
MODEL 2
REMARK VINA RESULT:      -8.8      2.250      3.854
REMARK  Name = 
REMARK  3 active torsions:
REMARK  status: ('A' for Active; 'I' for Inactive)
REMARK    1  A    between atoms: C_2  and  C_3
REMARK    2  A    between atoms: C_6  and  S_7
REMARK    3  A    between atoms: S_7  and  N_10
REMARK                            x       y       z     vdW  Elec       q    Type
REMARK                         _______ _______ _______ _____ _____    ______ ____
ROOT
ATOM      1  C   UNL     1       1.708   7.979  20.089  0.00  0.00    +0.000 A 
ATOM      2  C   UNL     1       2.306   8.153  18.815  0.00  0.00    +0.000 A 
ATOM      3  C   UNL     1       3.021   7.136  18.186  0.00  0.00    +0.000 A 
ATOM      4  C   UNL     1       3.185   5.927  18.848  0.00  0.00    +0.000 A 
ATOM      5  C   UNL     1       2.591   5.722  20.107  0.00  0.00    +0.000 A 
ATOM      6  C   UNL     1       1.852   6.749  20.730  0.00  0.00    +0.000 A 
ENDROOT
BRANCH   1   8
ATOM      7  O   UNL     1       0.663   9.192  21.699  0.00  0.00    +0.000 OA
ATOM      8  C   UNL     1       0.734   9.026  20.472  0.00  0.00    +0.000 C 
ATOM      9  N   UNL     1      -0.033   9.845  19.630  0.00  0.00    +0.000 N 
ATOM     10  C   UNL     1      -0.750  10.852  20.418  0.00  0.00    +0.000 C 
ATOM     11  C   UNL     1      -1.327  12.009  19.650  0.00  0.00    +0.000 C 
ATOM     12  C   UNL     1      -2.209  11.470  18.575  0.00  0.00    +0.000 A 
ATOM     13  C   UNL     1      -3.440  12.097  18.337  0.00  0.00    +0.000 A 
ATOM     14  C   UNL     1      -4.310  11.593  17.384  0.00  0.00    +0.000 A 
ATOM     15  C   UNL     1      -3.902  10.504  16.620  0.00  0.00    +0.000 A 
ATOM     16  C   UNL     1      -2.645   9.893  16.832  0.00  0.00    +0.000 A 
ATOM     17  C   UNL     1      -1.797  10.329  17.864  0.00  0.00    +0.000 A 
ATOM     18  C   UNL     1      -0.458   9.650  18.210  0.00  0.00    +0.000 C 
ENDBRANCH   1   8
BRANCH   4  19
ATOM     19  S   UNL     1       4.027   4.590  18.006  0.00  0.00    +0.000 S 
ATOM     20  O   UNL     1       4.607   3.756  19.038  0.00  0.00    +0.000 OA
ATOM     21  O   UNL     1       3.087   4.032  17.056  0.00  0.00    +0.000 OA
BRANCH  19  22
ATOM     22  N   UNL     1       5.260   5.329  17.162  0.00  0.00    +0.000 NA
ATOM     23  C   UNL     1       5.434   5.056  15.714  0.00  0.00    +0.000 C 
ATOM     24  C   UNL     1       6.580   4.066  15.467  0.00  0.00    +0.000 C 
ATOM     25  O   UNL     1       7.797   4.486  16.099  0.00  0.00    +0.000 OA
ATOM     26  C   UNL     1       7.622   4.634  17.514  0.00  0.00    +0.000 C 
ATOM     27  C   UNL     1       6.540   5.668  17.834  0.00  0.00    +0.000 C 
ENDBRANCH  19  22
ENDBRANCH   4  19
TORSDOF 3
ENDMDL
MODEL 3
REMARK VINA RESULT:      -8.8      1.533      2.564
REMARK  Name = 
REMARK  3 active torsions:
REMARK  status: ('A' for Active; 'I' for Inactive)
REMARK    1  A    between atoms: C_2  and  C_3
REMARK    2  A    between atoms: C_6  and  S_7
REMARK    3  A    between atoms: S_7  and  N_10
REMARK                            x       y       z     vdW  Elec       q    Type
REMARK                         _______ _______ _______ _____ _____    ______ ____
ROOT
ATOM      1  C   UNL     1       1.838   7.991  19.359  0.00  0.00    +0.000 A 
ATOM      2  C   UNL     1       2.098   6.871  20.191  0.00  0.00    +0.000 A 
ATOM      3  C   UNL     1       3.028   5.893  19.847  0.00  0.00    +0.000 A 
ATOM      4  C   UNL     1       3.690   5.998  18.631  0.00  0.00    +0.000 A 
ATOM      5  C   UNL     1       3.462   7.105  17.793  0.00  0.00    +0.000 A 
ATOM      6  C   UNL     1       2.533   8.104  18.157  0.00  0.00    +0.000 A 
ENDROOT
BRANCH   1   8
ATOM      7  O   UNL     1       1.387   9.258  21.188  0.00  0.00    +0.000 OA
ATOM      8  C   UNL     1       1.072   9.083  20.002  0.00  0.00    +0.000 C 
ATOM      9  N   UNL     1       0.120   9.932  19.419  0.00  0.00    +0.000 N 
ATOM     10  C   UNL     1      -0.279  10.975  20.370  0.00  0.00    +0.000 C 
ATOM     11  C   UNL     1      -1.015  12.153  19.793  0.00  0.00    +0.000 C 
ATOM     12  C   UNL     1      -2.204  11.649  19.049  0.00  0.00    +0.000 A 
ATOM     13  C   UNL     1      -3.422  12.331  19.186  0.00  0.00    +0.000 A 
ATOM     14  C   UNL     1      -4.562  11.862  18.554  0.00  0.00    +0.000 A 
ATOM     15  C   UNL     1      -4.453  10.751  17.723  0.00  0.00    +0.000 A 
ATOM     16  C   UNL     1      -3.219  10.084  17.552  0.00  0.00    +0.000 A 
ATOM     17  C   UNL     1      -2.078  10.487  18.267  0.00  0.00    +0.000 A 
ATOM     18  C   UNL     1      -0.728   9.750  18.201  0.00  0.00    +0.000 C 
ENDBRANCH   1   8
BRANCH   4  19
ATOM     19  S   UNL     1       4.949   4.790  18.226  0.00  0.00    +0.000 S 
ATOM     20  O   UNL     1       5.493   5.179  16.942  0.00  0.00    +0.000 OA
ATOM     21  O   UNL     1       5.812   4.678  19.384  0.00  0.00    +0.000 OA
BRANCH  19  22
ATOM     22  N   UNL     1       4.117   3.358  18.042  0.00  0.00    +0.000 NA
ATOM     23  C   UNL     1       2.904   3.310  17.189  0.00  0.00    +0.000 C 
ATOM     24  C   UNL     1       1.625   3.323  18.035  0.00  0.00    +0.000 C 
ATOM     25  O   UNL     1       1.634   2.297  19.038  0.00  0.00    +0.000 OA
ATOM     26  C   UNL     1       2.761   2.438  19.913  0.00  0.00    +0.000 C 
ATOM     27  C   UNL     1       4.078   2.358  19.139  0.00  0.00    +0.000 C 
ENDBRANCH  19  22
ENDBRANCH   4  19
TORSDOF 3
ENDMDL
MODEL 4
REMARK VINA RESULT:      -8.8      2.104      3.614
REMARK  Name = 
REMARK  3 active torsions:
REMARK  status: ('A' for Active; 'I' for Inactive)
REMARK    1  A    between atoms: C_2  and  C_3
REMARK    2  A    between atoms: C_6  and  S_7
REMARK    3  A    between atoms: S_7  and  N_10
REMARK                            x       y       z     vdW  Elec       q    Type
REMARK                         _______ _______ _______ _____ _____    ______ ____
ROOT
ATOM      1  C   UNL     1       1.585   7.805  19.999  0.00  0.00    +0.000 A 
ATOM      2  C   UNL     1       1.698   6.513  20.574  0.00  0.00    +0.000 A 
ATOM      3  C   UNL     1       2.442   5.499  19.976  0.00  0.00    +0.000 A 
ATOM      4  C   UNL     1       3.059   5.750  18.758  0.00  0.00    +0.000 A 
ATOM      5  C   UNL     1       2.974   7.027  18.172  0.00  0.00    +0.000 A 
ATOM      6  C   UNL     1       2.235   8.057  18.792  0.00  0.00    +0.000 A 
ENDROOT
BRANCH   1   8
ATOM      7  O   UNL     1       1.316   8.649  22.089  0.00  0.00    +0.000 OA
ATOM      8  C   UNL     1       1.034   8.844  20.898  0.00  0.00    +0.000 C 
ATOM      9  N   UNL     1       0.313   9.996  20.550  0.00  0.00    +0.000 N 
ATOM     10  C   UNL     1       0.094  10.833  21.734  0.00  0.00    +0.000 C 
ATOM     11  C   UNL     1      -0.347  12.248  21.475  0.00  0.00    +0.000 C 
ATOM     12  C   UNL     1      -1.575  12.213  20.631  0.00  0.00    +0.000 A 
ATOM     13  C   UNL     1      -2.627  13.088  20.939  0.00  0.00    +0.000 A 
ATOM     14  C   UNL     1      -3.806  13.048  20.213  0.00  0.00    +0.000 A 
ATOM     15  C   UNL     1      -3.890  12.181  19.128  0.00  0.00    +0.000 A 
ATOM     16  C   UNL     1      -2.816  11.325  18.791  0.00  0.00    +0.000 A 
ATOM     17  C   UNL     1      -1.655  11.282  19.581  0.00  0.00    +0.000 A 
ATOM     18  C   UNL     1      -0.489  10.309  19.328  0.00  0.00    +0.000 C 
ENDBRANCH   1   8
BRANCH   4  19
ATOM     19  S   UNL     1       4.087   4.478  18.032  0.00  0.00    +0.000 S 
ATOM     20  O   UNL     1       4.623   3.705  19.133  0.00  0.00    +0.000 OA
ATOM     21  O   UNL     1       3.297   3.835  17.002  0.00  0.00    +0.000 OA
BRANCH  19  22
ATOM     22  N   UNL     1       5.337   5.307  17.303  0.00  0.00    +0.000 NA
ATOM     23  C   UNL     1       5.514   5.236  15.832  0.00  0.00    +0.000 C 
ATOM     24  C   UNL     1       6.644   4.271  15.451  0.00  0.00    +0.000 C 
ATOM     25  O   UNL     1       7.865   4.576  16.140  0.00  0.00    +0.000 OA
ATOM     26  C   UNL     1       7.685   4.527  17.561  0.00  0.00    +0.000 C 
ATOM     27  C   UNL     1       6.619   5.525  18.019  0.00  0.00    +0.000 C 
ENDBRANCH  19  22
ENDBRANCH   4  19
TORSDOF 3
ENDMDL
MODEL 5
REMARK VINA RESULT:      -8.7      3.217      3.944
REMARK  Name = 
REMARK  3 active torsions:
REMARK  status: ('A' for Active; 'I' for Inactive)
REMARK    1  A    between atoms: C_2  and  C_3
REMARK    2  A    between atoms: C_6  and  S_7
REMARK    3  A    between atoms: S_7  and  N_10
REMARK                            x       y       z     vdW  Elec       q    Type
REMARK                         _______ _______ _______ _____ _____    ______ ____
ROOT
ATOM      1  C   UNL     1       1.189   9.897  19.025  0.00  0.00    +0.000 A 
ATOM      2  C   UNL     1       1.828   9.445  17.842  0.00  0.00    +0.000 A 
ATOM      3  C   UNL     1       2.436   8.195  17.760  0.00  0.00    +0.000 A 
ATOM      4  C   UNL     1       2.451   7.383  18.886  0.00  0.00    +0.000 A 
ATOM      5  C   UNL     1       1.812   7.800  20.068  0.00  0.00    +0.000 A 
ATOM      6  C   UNL     1       1.180   9.060  20.140  0.00  0.00    +0.000 A 
ENDROOT
BRANCH   1   8
ATOM      7  O   UNL     1      -0.828  10.808  18.519  0.00  0.00    +0.000 OA
ATOM      8  C   UNL     1       0.331  11.092  18.856  0.00  0.00    +0.000 C 
ATOM      9  N   UNL     1       0.663  12.435  19.082  0.00  0.00    +0.000 N 
ATOM     10  C   UNL     1      -0.526  13.282  18.944  0.00  0.00    +0.000 C 
ATOM     11  C   UNL     1      -0.415  14.678  19.492  0.00  0.00    +0.000 C 
ATOM     12  C   UNL     1       0.766  15.339  18.867  0.00  0.00    +0.000 A 
ATOM     13  C   UNL     1       0.648  16.672  18.449  0.00  0.00    +0.000 A 
ATOM     14  C   UNL     1       1.706  17.304  17.815  0.00  0.00    +0.000 A 
ATOM     15  C   UNL     1       2.905  16.613  17.674  0.00  0.00    +0.000 A 
ATOM     16  C   UNL     1       3.040  15.281  18.128  0.00  0.00    +0.000 A 
ATOM     17  C   UNL     1       1.944  14.595  18.679  0.00  0.00    +0.000 A 
ATOM     18  C   UNL     1       1.994  13.116  19.107  0.00  0.00    +0.000 C 
ENDBRANCH   1   8
BRANCH   4  19
ATOM     19  S   UNL     1       3.154   5.741  18.758  0.00  0.00    +0.000 S 
ATOM     20  O   UNL     1       3.624   5.601  17.395  0.00  0.00    +0.000 OA
ATOM     21  O   UNL     1       4.071   5.588  19.868  0.00  0.00    +0.000 OA
BRANCH  19  22
ATOM     22  N   UNL     1       1.865   4.709  18.986  0.00  0.00    +0.000 NA
ATOM     23  C   UNL     1       1.546   4.212  20.347  0.00  0.00    +0.000 C 
ATOM     24  C   UNL     1       2.043   2.775  20.548  0.00  0.00    +0.000 C 
ATOM     25  O   UNL     1       1.573   1.896  19.516  0.00  0.00    +0.000 OA
ATOM     26  C   UNL     1       1.993   2.345  18.221  0.00  0.00    +0.000 C 
ATOM     27  C   UNL     1       1.465   3.751  17.924  0.00  0.00    +0.000 C 
ENDBRANCH  19  22
ENDBRANCH   4  19
TORSDOF 3
ENDMDL
MODEL 6
REMARK VINA RESULT:      -8.7      3.031      4.153
REMARK  Name = 
REMARK  3 active torsions:
REMARK  status: ('A' for Active; 'I' for Inactive)
REMARK    1  A    between atoms: C_2  and  C_3
REMARK    2  A    between atoms: C_6  and  S_7
REMARK    3  A    between atoms: S_7  and  N_10
REMARK                            x       y       z     vdW  Elec       q    Type
REMARK                         _______ _______ _______ _____ _____    ______ ____
ROOT
ATOM      1  C   UNL     1       1.402   9.318  18.848  0.00  0.00    +0.000 A 
ATOM      2  C   UNL     1       2.150   9.052  17.672  0.00  0.00    +0.000 A 
ATOM      3  C   UNL     1       2.918   7.900  17.528  0.00  0.00    +0.000 A 
ATOM      4  C   UNL     1       2.984   7.003  18.586  0.00  0.00    +0.000 A 
ATOM      5  C   UNL     1       2.242   7.234  19.758  0.00  0.00    +0.000 A 
ATOM      6  C   UNL     1       1.449   8.395  19.891  0.00  0.00    +0.000 A 
ENDROOT
BRANCH   1   8
ATOM      7  O   UNL     1      -0.683  10.013  18.280  0.00  0.00    +0.000 OA
ATOM      8  C   UNL     1       0.405  10.406  18.723  0.00  0.00    +0.000 C 
ATOM      9  N   UNL     1       0.544  11.753  19.091  0.00  0.00    +0.000 N 
ATOM     10  C   UNL     1      -0.737  12.452  18.942  0.00  0.00    +0.000 C 
ATOM     11  C   UNL     1      -0.844  13.792  19.618  0.00  0.00    +0.000 C 
ATOM     12  C   UNL     1       0.275  14.653  19.140  0.00  0.00    +0.000 A 
ATOM     13  C   UNL     1       0.007  15.995  18.835  0.00  0.00    +0.000 A 
ATOM     14  C   UNL     1       1.008  16.813  18.337  0.00  0.00    +0.000 A 
ATOM     15  C   UNL     1       2.295  16.296  18.222  0.00  0.00    +0.000 A 
ATOM     16  C   UNL     1       2.576  14.954  18.565  0.00  0.00    +0.000 A 
ATOM     17  C   UNL     1       1.550  14.085  18.974  0.00  0.00    +0.000 A 
ATOM     18  C   UNL     1       1.769  12.590  19.271  0.00  0.00    +0.000 C 
ENDBRANCH   1   8
BRANCH   4  19
ATOM     19  S   UNL     1       3.899   5.479  18.370  0.00  0.00    +0.000 S 
ATOM     20  O   UNL     1       4.373   5.095  19.684  0.00  0.00    +0.000 OA
ATOM     21  O   UNL     1       3.054   4.585  17.606  0.00  0.00    +0.000 OA
BRANCH  19  22
ATOM     22  N   UNL     1       5.211   5.901  17.433  0.00  0.00    +0.000 NA
ATOM     23  C   UNL     1       5.303   5.427  16.030  0.00  0.00    +0.000 C 
ATOM     24  C   UNL     1       6.270   4.244  15.902  0.00  0.00    +0.000 C 
ATOM     25  O   UNL     1       7.554   4.537  16.470  0.00  0.00    +0.000 OA
ATOM     26  C   UNL     1       7.442   4.885  17.856  0.00  0.00    +0.000 C 
ATOM     27  C   UNL     1       6.546   6.110  18.049  0.00  0.00    +0.000 C 
ENDBRANCH  19  22
ENDBRANCH   4  19
TORSDOF 3
ENDMDL
MODEL 7
REMARK VINA RESULT:      -8.7      3.023      3.630
REMARK  Name = 
REMARK  3 active torsions:
REMARK  status: ('A' for Active; 'I' for Inactive)
REMARK    1  A    between atoms: C_2  and  C_3
REMARK    2  A    between atoms: C_6  and  S_7
REMARK    3  A    between atoms: S_7  and  N_10
REMARK                            x       y       z     vdW  Elec       q    Type
REMARK                         _______ _______ _______ _____ _____    ______ ____
ROOT
ATOM      1  C   UNL     1       1.196   9.523  19.170  0.00  0.00    +0.000 A 
ATOM      2  C   UNL     1       1.899   8.896  18.110  0.00  0.00    +0.000 A 
ATOM      3  C   UNL     1       2.507   7.652  18.258  0.00  0.00    +0.000 A 
ATOM      4  C   UNL     1       2.456   7.026  19.496  0.00  0.00    +0.000 A 
ATOM      5  C   UNL     1       1.754   7.618  20.561  0.00  0.00    +0.000 A 
ATOM      6  C   UNL     1       1.123   8.871  20.400  0.00  0.00    +0.000 A 
ENDROOT
BRANCH   1   8
ATOM      7  O   UNL     1      -0.648  10.331  18.120  0.00  0.00    +0.000 OA
ATOM      8  C   UNL     1       0.352  10.672  18.769  0.00  0.00    +0.000 C 
ATOM      9  N   UNL     1       0.531  12.028  19.081  0.00  0.00    +0.000 N 
ATOM     10  C   UNL     1      -0.619  12.810  18.616  0.00  0.00    +0.000 C 
ATOM     11  C   UNL     1      -0.746  14.201  19.175  0.00  0.00    +0.000 C 
ATOM     12  C   UNL     1       0.523  14.936  18.907  0.00  0.00    +0.000 A 
ATOM     13  C   UNL     1       0.450  16.268  18.475  0.00  0.00    +0.000 A 
ATOM     14  C   UNL     1       1.604  16.968  18.164  0.00  0.00    +0.000 A 
ATOM     15  C   UNL     1       2.833  16.346  18.363  0.00  0.00    +0.000 A 
ATOM     16  C   UNL     1       2.912  15.016  18.834  0.00  0.00    +0.000 A 
ATOM     17  C   UNL     1       1.747  14.261  19.056  0.00  0.00    +0.000 A 
ATOM     18  C   UNL     1       1.760  12.780  19.479  0.00  0.00    +0.000 C 
ENDBRANCH   1   8
BRANCH   4  19
ATOM     19  S   UNL     1       3.160   5.388  19.665  0.00  0.00    +0.000 S 
ATOM     20  O   UNL     1       4.597   5.550  19.593  0.00  0.00    +0.000 OA
ATOM     21  O   UNL     1       2.548   4.785  20.831  0.00  0.00    +0.000 OA
BRANCH  19  22
ATOM     22  N   UNL     1       2.648   4.565  18.309  0.00  0.00    +0.000 NA
ATOM     23  C   UNL     1       1.315   3.913  18.298  0.00  0.00    +0.000 C 
ATOM     24  C   UNL     1       1.430   2.400  18.518  0.00  0.00    +0.000 C 
ATOM     25  O   UNL     1       2.348   1.792  17.598  0.00  0.00    +0.000 OA
ATOM     26  C   UNL     1       3.655   2.370  17.712  0.00  0.00    +0.000 C 
ATOM     27  C   UNL     1       3.624   3.873  17.429  0.00  0.00    +0.000 C 
ENDBRANCH  19  22
ENDBRANCH   4  19
TORSDOF 3
ENDMDL
MODEL 8
REMARK VINA RESULT:      -8.5      0.703      1.172
REMARK  Name = 
REMARK  3 active torsions:
REMARK  status: ('A' for Active; 'I' for Inactive)
REMARK    1  A    between atoms: C_2  and  C_3
REMARK    2  A    between atoms: C_6  and  S_7
REMARK    3  A    between atoms: S_7  and  N_10
REMARK                            x       y       z     vdW  Elec       q    Type
REMARK                         _______ _______ _______ _____ _____    ______ ____
ROOT
ATOM      1  C   UNL     1       2.554   7.987  18.087  0.00  0.00    +0.000 A 
ATOM      2  C   UNL     1       2.567   7.229  19.287  0.00  0.00    +0.000 A 
ATOM      3  C   UNL     1       3.386   6.115  19.449  0.00  0.00    +0.000 A 
ATOM      4  C   UNL     1       4.186   5.711  18.388  0.00  0.00    +0.000 A 
ATOM      5  C   UNL     1       4.203   6.452  17.193  0.00  0.00    +0.000 A 
ATOM      6  C   UNL     1       3.385   7.593  17.040  0.00  0.00    +0.000 A 
ENDROOT
BRANCH   1   8
ATOM      7  O   UNL     1       2.349  10.143  17.405  0.00  0.00    +0.000 OA
ATOM      8  C   UNL     1       1.879   9.302  18.185  0.00  0.00    +0.000 C 
ATOM      9  N   UNL     1       0.783   9.655  18.986  0.00  0.00    +0.000 N 
ATOM     10  C   UNL     1       0.334  11.012  18.660  0.00  0.00    +0.000 C 
ATOM     11  C   UNL     1      -1.026  11.402  19.171  0.00  0.00    +0.000 C 
ATOM     12  C   UNL     1      -1.056  11.187  20.646  0.00  0.00    +0.000 A 
ATOM     13  C   UNL     1      -1.665  12.157  21.455  0.00  0.00    +0.000 A 
ATOM     14  C   UNL     1      -1.666  12.021  22.833  0.00  0.00    +0.000 A 
ATOM     15  C   UNL     1      -1.120  10.867  23.388  0.00  0.00    +0.000 A 
ATOM     16  C   UNL     1      -0.538   9.869  22.573  0.00  0.00    +0.000 A 
ATOM     17  C   UNL     1      -0.440  10.042  21.182  0.00  0.00    +0.000 A 
ATOM     18  C   UNL     1       0.264   9.041  20.247  0.00  0.00    +0.000 C 
ENDBRANCH   1   8
BRANCH   4  19
ATOM     19  S   UNL     1       5.304   4.333  18.625  0.00  0.00    +0.000 S 
ATOM     20  O   UNL     1       6.093   4.232  17.415  0.00  0.00    +0.000 OA
ATOM     21  O   UNL     1       5.950   4.530  19.906  0.00  0.00    +0.000 OA
BRANCH  19  22
ATOM     22  N   UNL     1       4.313   2.997  18.729  0.00  0.00    +0.000 NA
ATOM     23  C   UNL     1       3.269   2.767  17.701  0.00  0.00    +0.000 C 
ATOM     24  C   UNL     1       1.881   3.171  18.215  0.00  0.00    +0.000 C 
ATOM     25  O   UNL     1       1.569   2.544  19.467  0.00  0.00    +0.000 OA
ATOM     26  C   UNL     1       2.539   2.876  20.469  0.00  0.00    +0.000 C 
ATOM     27  C   UNL     1       3.942   2.430  20.051  0.00  0.00    +0.000 C 
ENDBRANCH  19  22
ENDBRANCH   4  19
TORSDOF 3
ENDMDL
MODEL 9
REMARK VINA RESULT:      -8.4      1.682      2.941
REMARK  Name = 
REMARK  3 active torsions:
REMARK  status: ('A' for Active; 'I' for Inactive)
REMARK    1  A    between atoms: C_2  and  C_3
REMARK    2  A    between atoms: C_6  and  S_7
REMARK    3  A    between atoms: S_7  and  N_10
REMARK                            x       y       z     vdW  Elec       q    Type
REMARK                         _______ _______ _______ _____ _____    ______ ____
ROOT
ATOM      1  C   UNL     1       2.467   8.157  18.567  0.00  0.00    +0.000 A 
ATOM      2  C   UNL     1       3.259   7.796  17.447  0.00  0.00    +0.000 A 
ATOM      3  C   UNL     1       3.907   6.566  17.364  0.00  0.00    +0.000 A 
ATOM      4  C   UNL     1       3.806   5.683  18.430  0.00  0.00    +0.000 A 
ATOM      5  C   UNL     1       3.017   6.010  19.548  0.00  0.00    +0.000 A 
ATOM      6  C   UNL     1       2.346   7.250  19.618  0.00  0.00    +0.000 A 
ENDROOT
BRANCH   1   8
ATOM      7  O   UNL     1       1.900   9.988  17.351  0.00  0.00    +0.000 OA
ATOM      8  C   UNL     1       1.604   9.344  18.368  0.00  0.00    +0.000 C 
ATOM      9  N   UNL     1       0.507   9.756  19.139  0.00  0.00    +0.000 N 
ATOM     10  C   UNL     1      -0.161  10.894  18.501  0.00  0.00    +0.000 C 
ATOM     11  C   UNL     1      -1.539  11.225  19.007  0.00  0.00    +0.000 C 
ATOM     12  C   UNL     1      -1.463  11.429  20.482  0.00  0.00    +0.000 A 
ATOM     13  C   UNL     1      -2.175  12.496  21.051  0.00  0.00    +0.000 A 
ATOM     14  C   UNL     1      -2.087  12.750  22.409  0.00  0.00    +0.000 A 
ATOM     15  C   UNL     1      -1.344  11.882  23.203  0.00  0.00    +0.000 A 
ATOM     16  C   UNL     1      -0.656  10.783  22.638  0.00  0.00    +0.000 A 
ATOM     17  C   UNL     1      -0.653  10.573  21.249  0.00  0.00    +0.000 A 
ATOM     18  C   UNL     1       0.150   9.455  20.559  0.00  0.00    +0.000 C 
ENDBRANCH   1   8
BRANCH   4  19
ATOM     19  S   UNL     1       4.565   4.067  18.288  0.00  0.00    +0.000 S 
ATOM     20  O   UNL     1       4.468   3.453  19.596  0.00  0.00    +0.000 OA
ATOM     21  O   UNL     1       3.975   3.425  17.131  0.00  0.00    +0.000 OA
BRANCH  19  22
ATOM     22  N   UNL     1       6.169   4.380  17.963  0.00  0.00    +0.000 NA
ATOM     23  C   UNL     1       6.885   5.440  18.715  0.00  0.00    +0.000 C 
ATOM     24  C   UNL     1       7.020   6.721  17.883  0.00  0.00    +0.000 C 
ATOM     25  O   UNL     1       7.605   6.467  16.598  0.00  0.00    +0.000 OA
ATOM     26  C   UNL     1       6.828   5.520  15.853  0.00  0.00    +0.000 C 
ATOM     27  C   UNL     1       6.716   4.188  16.596  0.00  0.00    +0.000 C 
ENDBRANCH  19  22
ENDBRANCH   4  19
TORSDOF 3
ENDMDL
