MODEL 1
REMARK VINA RESULT:      -8.7      0.000      0.000
REMARK  Name = 
REMARK  8 active torsions:
REMARK  status: ('A' for Active; 'I' for Inactive)
REMARK    1  A    between atoms: C_1  and  C_2
REMARK    2  A    between atoms: C_2  and  C_3
REMARK    3  A    between atoms: C_2  and  N_4
REMARK    4  A    between atoms: C_5  and  C_7
REMARK    5  A    between atoms: C_12  and  C_13
REMARK    6  A    between atoms: C_13  and  C_14
REMARK    7  A    between atoms: C_17  and  C_18
REMARK    8  A    between atoms: C_18  and  O_20
REMARK                            x       y       z     vdW  Elec       q    Type
REMARK                         _______ _______ _______ _____ _____    ______ ____
ROOT
ATOM      1  C   UNL     1       5.472   5.018  16.073  0.00  0.00    +0.000 A 
ATOM      2  C   UNL     1       6.227   6.198  15.986  0.00  0.00    +0.000 A 
ATOM      3  C   UNL     1       6.095   7.172  16.961  0.00  0.00    +0.000 A 
ATOM      4  C   UNL     1       5.168   6.989  17.983  0.00  0.00    +0.000 A 
ATOM      5  C   UNL     1       4.322   5.851  18.040  0.00  0.00    +0.000 A 
ATOM      6  C   UNL     1       3.261   5.691  18.987  0.00  0.00    +0.000 A 
ATOM      7  C   UNL     1       2.465   4.503  18.964  0.00  0.00    +0.000 A 
ATOM      8  C   UNL     1       1.360   4.234  19.817  0.00  0.00    +0.000 A 
ATOM      9  C   UNL     1       0.639   3.042  19.736  0.00  0.00    +0.000 A 
ATOM     10  C   UNL     1       1.004   2.089  18.799  0.00  0.00    +0.000 A 
ATOM     11  C   UNL     1       2.078   2.344  17.949  0.00  0.00    +0.000 A 
ATOM     12  C   UNL     1       2.803   3.531  18.009  0.00  0.00    +0.000 A 
ATOM     13  N   UNL     1       3.788   3.687  17.127  0.00  0.00    +0.000 NA
ATOM     14  C   UNL     1       4.517   4.826  17.085  0.00  0.00    +0.000 A 
ENDROOT
BRANCH   1  16
ATOM     15  N   UNL     1       5.441   4.299  13.746  0.00  0.00    +0.000 N 
ATOM     16  C   UNL     1       5.771   3.979  15.042  0.00  0.00    +0.000 C 
ATOM     17  O   UNL     1       6.220   2.888  15.377  0.00  0.00    +0.000 OA
ATOM     18  H   UNL     1       5.306   5.290  13.551  0.00  0.00    +0.000 HD
BRANCH  15  20
ATOM     19  C   UNL     1       4.425   3.478  11.698  0.00  0.00    +0.000 C 
ATOM     20  C   UNL     1       5.631   3.393  12.629  0.00  0.00    +0.000 C 
ATOM     21  C   UNL     1       6.921   3.717  11.884  0.00  0.00    +0.000 C 
ENDBRANCH  15  20
ENDBRANCH   1  16
BRANCH   6  22
ATOM     22  C   UNL     1       2.908   6.821  19.949  0.00  0.00    +0.000 C 
BRANCH  22  23
ATOM     23  C   UNL     1       1.917   7.881  19.500  0.00  0.00    +0.000 A 
ATOM     24  C   UNL     1       1.145   8.523  20.484  0.00  0.00    +0.000 A 
ATOM     25  C   UNL     1       0.401   9.667  20.186  0.00  0.00    +0.000 A 
ATOM     26  C   UNL     1       0.415  10.201  18.894  0.00  0.00    +0.000 A 
ATOM     27  C   UNL     1       1.136   9.543  17.891  0.00  0.00    +0.000 A 
ATOM     28  C   UNL     1       1.866   8.385  18.192  0.00  0.00    +0.000 A 
BRANCH  26  29
ATOM     29  C   UNL     1      -0.251  11.514  18.682  0.00  0.00    +0.000 C 
ATOM     30  O   UNL     1      -1.408  11.720  19.007  0.00  0.00    +0.000 OA
BRANCH  29  31
ATOM     31  O   UNL     1       0.522  12.455  18.101  0.00  0.00    +0.000 OA
ATOM     32  H   UNL     1       1.052  12.995  18.711  0.00  0.00    +0.000 HD
ENDBRANCH  29  31
ENDBRANCH  26  29
ENDBRANCH  22  23
ENDBRANCH   6  22
TORSDOF 6
ENDMDL
MODEL 2
REMARK VINA RESULT:      -8.4      5.106     10.407
REMARK  Name = 
REMARK  8 active torsions:
REMARK  status: ('A' for Active; 'I' for Inactive)
REMARK    1  A    between atoms: C_1  and  C_2
REMARK    2  A    between atoms: C_2  and  C_3
REMARK    3  A    between atoms: C_2  and  N_4
REMARK    4  A    between atoms: C_5  and  C_7
REMARK    5  A    between atoms: C_12  and  C_13
REMARK    6  A    between atoms: C_13  and  C_14
REMARK    7  A    between atoms: C_17  and  C_18
REMARK    8  A    between atoms: C_18  and  O_20
REMARK                            x       y       z     vdW  Elec       q    Type
REMARK                         _______ _______ _______ _____ _____    ______ ____
ROOT
ATOM      1  C   UNL     1      -4.121  11.203  17.450  0.00  0.00    +0.000 A 
ATOM      2  C   UNL     1      -3.846  10.484  16.278  0.00  0.00    +0.000 A 
ATOM      3  C   UNL     1      -2.591   9.932  16.087  0.00  0.00    +0.000 A 
ATOM      4  C   UNL     1      -1.600  10.151  17.040  0.00  0.00    +0.000 A 
ATOM      5  C   UNL     1      -1.823  10.957  18.188  0.00  0.00    +0.000 A 
ATOM      6  C   UNL     1      -0.798  11.326  19.115  0.00  0.00    +0.000 A 
ATOM      7  C   UNL     1      -1.124  12.141  20.244  0.00  0.00    +0.000 A 
ATOM      8  C   UNL     1      -0.199  12.612  21.216  0.00  0.00    +0.000 A 
ATOM      9  C   UNL     1      -0.602  13.398  22.296  0.00  0.00    +0.000 A 
ATOM     10  C   UNL     1      -1.940  13.735  22.431  0.00  0.00    +0.000 A 
ATOM     11  C   UNL     1      -2.854  13.289  21.479  0.00  0.00    +0.000 A 
ATOM     12  C   UNL     1      -2.469  12.512  20.391  0.00  0.00    +0.000 A 
ATOM     13  N   UNL     1      -3.419  12.171  19.522  0.00  0.00    +0.000 NA
ATOM     14  C   UNL     1      -3.128  11.453  18.413  0.00  0.00    +0.000 A 
ENDROOT
BRANCH   1  16
ATOM     15  N   UNL     1      -5.786  12.976  17.324  0.00  0.00    +0.000 N 
ATOM     16  C   UNL     1      -5.535  11.656  17.618  0.00  0.00    +0.000 C 
ATOM     17  O   UNL     1      -6.381  10.888  18.063  0.00  0.00    +0.000 OA
ATOM     18  H   UNL     1      -5.088  13.446  16.748  0.00  0.00    +0.000 HD
BRANCH  15  20
ATOM     19  C   UNL     1      -7.248  14.128  18.883  0.00  0.00    +0.000 C 
ATOM     20  C   UNL     1      -7.093  13.588  17.465  0.00  0.00    +0.000 C 
ATOM     21  C   UNL     1      -7.287  14.695  16.434  0.00  0.00    +0.000 C 
ENDBRANCH  15  20
ENDBRANCH   1  16
BRANCH   6  22
ATOM     22  C   UNL     1       0.656  10.944  18.851  0.00  0.00    +0.000 C 
BRANCH  22  23
ATOM     23  C   UNL     1       1.081   9.500  19.060  0.00  0.00    +0.000 A 
ATOM     24  C   UNL     1       1.723   8.840  17.998  0.00  0.00    +0.000 A 
ATOM     25  C   UNL     1       2.360   7.611  18.190  0.00  0.00    +0.000 A 
ATOM     26  C   UNL     1       2.374   7.014  19.454  0.00  0.00    +0.000 A 
ATOM     27  C   UNL     1       1.694   7.633  20.510  0.00  0.00    +0.000 A 
ATOM     28  C   UNL     1       1.042   8.857  20.306  0.00  0.00    +0.000 A 
BRANCH  26  29
ATOM     29  C   UNL     1       3.215   5.801  19.635  0.00  0.00    +0.000 C 
ATOM     30  O   UNL     1       2.911   4.903  20.403  0.00  0.00    +0.000 OA
BRANCH  29  31
ATOM     31  O   UNL     1       4.338   5.773  18.889  0.00  0.00    +0.000 OA
ATOM     32  H   UNL     1       4.678   4.886  18.677  0.00  0.00    +0.000 HD
ENDBRANCH  29  31
ENDBRANCH  26  29
ENDBRANCH  22  23
ENDBRANCH   6  22
TORSDOF 6
ENDMDL
MODEL 3
REMARK VINA RESULT:      -8.4      0.635      1.089
REMARK  Name = 
REMARK  8 active torsions:
REMARK  status: ('A' for Active; 'I' for Inactive)
REMARK    1  A    between atoms: C_1  and  C_2
REMARK    2  A    between atoms: C_2  and  C_3
REMARK    3  A    between atoms: C_2  and  N_4
REMARK    4  A    between atoms: C_5  and  C_7
REMARK    5  A    between atoms: C_12  and  C_13
REMARK    6  A    between atoms: C_13  and  C_14
REMARK    7  A    between atoms: C_17  and  C_18
REMARK    8  A    between atoms: C_18  and  O_20
REMARK                            x       y       z     vdW  Elec       q    Type
REMARK                         _______ _______ _______ _____ _____    ______ ____
ROOT
ATOM      1  C   UNL     1       5.429   5.021  16.136  0.00  0.00    +0.000 A 
ATOM      2  C   UNL     1       6.207   6.185  16.050  0.00  0.00    +0.000 A 
ATOM      3  C   UNL     1       6.090   7.164  17.022  0.00  0.00    +0.000 A 
ATOM      4  C   UNL     1       5.156   7.002  18.041  0.00  0.00    +0.000 A 
ATOM      5  C   UNL     1       4.288   5.880  18.097  0.00  0.00    +0.000 A 
ATOM      6  C   UNL     1       3.221   5.743  19.040  0.00  0.00    +0.000 A 
ATOM      7  C   UNL     1       2.402   4.570  19.017  0.00  0.00    +0.000 A 
ATOM      8  C   UNL     1       1.288   4.325  19.865  0.00  0.00    +0.000 A 
ATOM      9  C   UNL     1       0.545   3.147  19.784  0.00  0.00    +0.000 A 
ATOM     10  C   UNL     1       0.895   2.185  18.851  0.00  0.00    +0.000 A 
ATOM     11  C   UNL     1       1.977   2.417  18.005  0.00  0.00    +0.000 A 
ATOM     12  C   UNL     1       2.724   3.590  18.065  0.00  0.00    +0.000 A 
ATOM     13  N   UNL     1       3.715   3.725  17.186  0.00  0.00    +0.000 NA
ATOM     14  C   UNL     1       4.466   4.850  17.145  0.00  0.00    +0.000 A 
ENDROOT
BRANCH   1  16
ATOM     15  N   UNL     1       5.547   4.353  13.797  0.00  0.00    +0.000 N 
ATOM     16  C   UNL     1       5.712   3.974  15.108  0.00  0.00    +0.000 C 
ATOM     17  O   UNL     1       6.003   2.833  15.453  0.00  0.00    +0.000 OA
ATOM     18  H   UNL     1       5.542   5.356  13.619  0.00  0.00    +0.000 HD
BRANCH  15  20
ATOM     19  C   UNL     1       4.510   3.479  11.782  0.00  0.00    +0.000 C 
ATOM     20  C   UNL     1       5.745   3.452  12.677  0.00  0.00    +0.000 C 
ATOM     21  C   UNL     1       6.997   3.831  11.894  0.00  0.00    +0.000 C 
ENDBRANCH  15  20
ENDBRANCH   1  16
BRANCH   6  22
ATOM     22  C   UNL     1       2.886   6.882  19.999  0.00  0.00    +0.000 C 
BRANCH  22  23
ATOM     23  C   UNL     1       2.023   8.028  19.499  0.00  0.00    +0.000 A 
ATOM     24  C   UNL     1       1.918   8.218  18.111  0.00  0.00    +0.000 A 
ATOM     25  C   UNL     1       0.960   9.080  17.570  0.00  0.00    +0.000 A 
ATOM     26  C   UNL     1       0.079   9.771  18.409  0.00  0.00    +0.000 A 
ATOM     27  C   UNL     1       0.206   9.632  19.796  0.00  0.00    +0.000 A 
ATOM     28  C   UNL     1       1.181   8.780  20.332  0.00  0.00    +0.000 A 
BRANCH  26  29
ATOM     29  C   UNL     1      -1.028  10.532  17.770  0.00  0.00    +0.000 C 
ATOM     30  O   UNL     1      -1.990   9.983  17.260  0.00  0.00    +0.000 OA
BRANCH  29  31
ATOM     31  O   UNL     1      -0.883  11.873  17.797  0.00  0.00    +0.000 OA
ATOM     32  H   UNL     1      -0.509  12.269  16.992  0.00  0.00    +0.000 HD
ENDBRANCH  29  31
ENDBRANCH  26  29
ENDBRANCH  22  23
ENDBRANCH   6  22
TORSDOF 6
ENDMDL
MODEL 4
REMARK VINA RESULT:      -8.3      5.043     10.464
REMARK  Name = 
REMARK  8 active torsions:
REMARK  status: ('A' for Active; 'I' for Inactive)
REMARK    1  A    between atoms: C_1  and  C_2
REMARK    2  A    between atoms: C_2  and  C_3
REMARK    3  A    between atoms: C_2  and  N_4
REMARK    4  A    between atoms: C_5  and  C_7
REMARK    5  A    between atoms: C_12  and  C_13
REMARK    6  A    between atoms: C_13  and  C_14
REMARK    7  A    between atoms: C_17  and  C_18
REMARK    8  A    between atoms: C_18  and  O_20
REMARK                            x       y       z     vdW  Elec       q    Type
REMARK                         _______ _______ _______ _____ _____    ______ ____
ROOT
ATOM      1  C   UNL     1      -4.078  11.274  17.693  0.00  0.00    +0.000 A 
ATOM      2  C   UNL     1      -3.893  10.515  16.528  0.00  0.00    +0.000 A 
ATOM      3  C   UNL     1      -2.660   9.943  16.268  0.00  0.00    +0.000 A 
ATOM      4  C   UNL     1      -1.602  10.181  17.142  0.00  0.00    +0.000 A 
ATOM      5  C   UNL     1      -1.736  11.025  18.276  0.00  0.00    +0.000 A 
ATOM      6  C   UNL     1      -0.645  11.411  19.117  0.00  0.00    +0.000 A 
ATOM      7  C   UNL     1      -0.884  12.264  20.239  0.00  0.00    +0.000 A 
ATOM      8  C   UNL     1       0.111  12.755  21.128  0.00  0.00    +0.000 A 
ATOM      9  C   UNL     1      -0.207  13.579  22.209  0.00  0.00    +0.000 A 
ATOM     10  C   UNL     1      -1.529  13.935  22.426  0.00  0.00    +0.000 A 
ATOM     11  C   UNL     1      -2.512  13.470  21.555  0.00  0.00    +0.000 A 
ATOM     12  C   UNL     1      -2.212  12.656  20.468  0.00  0.00    +0.000 A 
ATOM     13  N   UNL     1      -3.223  12.298  19.679  0.00  0.00    +0.000 NA
ATOM     14  C   UNL     1      -3.017  11.542  18.575  0.00  0.00    +0.000 A 
ENDROOT
BRANCH   1  16
ATOM     15  N   UNL     1      -5.988  11.479  19.191  0.00  0.00    +0.000 N 
ATOM     16  C   UNL     1      -5.472  11.749  17.945  0.00  0.00    +0.000 C 
ATOM     17  O   UNL     1      -6.115  12.281  17.046  0.00  0.00    +0.000 OA
ATOM     18  H   UNL     1      -5.307  11.259  19.917  0.00  0.00    +0.000 HD
BRANCH  15  20
ATOM     19  C   UNL     1      -7.800  10.902  20.701  0.00  0.00    +0.000 C 
ATOM     20  C   UNL     1      -7.335  11.838  19.589  0.00  0.00    +0.000 C 
ATOM     21  C   UNL     1      -7.396  13.294  20.038  0.00  0.00    +0.000 C 
ENDBRANCH  15  20
ENDBRANCH   1  16
BRANCH   6  22
ATOM     22  C   UNL     1       0.783  11.003  18.764  0.00  0.00    +0.000 C 
BRANCH  22  23
ATOM     23  C   UNL     1       1.195   9.552  18.946  0.00  0.00    +0.000 A 
ATOM     24  C   UNL     1       1.864   8.918  17.885  0.00  0.00    +0.000 A 
ATOM     25  C   UNL     1       2.490   7.681  18.063  0.00  0.00    +0.000 A 
ATOM     26  C   UNL     1       2.464   7.049  19.310  0.00  0.00    +0.000 A 
ATOM     27  C   UNL     1       1.756   7.643  20.361  0.00  0.00    +0.000 A 
ATOM     28  C   UNL     1       1.116   8.876  20.172  0.00  0.00    +0.000 A 
BRANCH  26  29
ATOM     29  C   UNL     1       3.293   5.826  19.482  0.00  0.00    +0.000 C 
ATOM     30  O   UNL     1       4.081   5.446  18.632  0.00  0.00    +0.000 OA
BRANCH  29  31
ATOM     31  O   UNL     1       3.103   5.172  20.646  0.00  0.00    +0.000 OA
ATOM     32  H   UNL     1       3.562   5.548  21.417  0.00  0.00    +0.000 HD
ENDBRANCH  29  31
ENDBRANCH  26  29
ENDBRANCH  22  23
ENDBRANCH   6  22
TORSDOF 6
ENDMDL
MODEL 5
REMARK VINA RESULT:      -8.2      5.187     10.348
REMARK  Name = 
REMARK  8 active torsions:
REMARK  status: ('A' for Active; 'I' for Inactive)
REMARK    1  A    between atoms: C_1  and  C_2
REMARK    2  A    between atoms: C_2  and  C_3
REMARK    3  A    between atoms: C_2  and  N_4
REMARK    4  A    between atoms: C_5  and  C_7
REMARK    5  A    between atoms: C_12  and  C_13
REMARK    6  A    between atoms: C_13  and  C_14
REMARK    7  A    between atoms: C_17  and  C_18
REMARK    8  A    between atoms: C_18  and  O_20
REMARK                            x       y       z     vdW  Elec       q    Type
REMARK                         _______ _______ _______ _____ _____    ______ ____
ROOT
ATOM      1  C   UNL     1      -4.062  11.151  17.769  0.00  0.00    +0.000 A 
ATOM      2  C   UNL     1      -3.895  10.391  16.602  0.00  0.00    +0.000 A 
ATOM      3  C   UNL     1      -2.649   9.876  16.289  0.00  0.00    +0.000 A 
ATOM      4  C   UNL     1      -1.565  10.172  17.111  0.00  0.00    +0.000 A 
ATOM      5  C   UNL     1      -1.686  11.019  18.244  0.00  0.00    +0.000 A 
ATOM      6  C   UNL     1      -0.577  11.464  19.030  0.00  0.00    +0.000 A 
ATOM      7  C   UNL     1      -0.804  12.316  20.156  0.00  0.00    +0.000 A 
ATOM      8  C   UNL     1       0.206  12.862  20.995  0.00  0.00    +0.000 A 
ATOM      9  C   UNL     1      -0.102  13.679  22.083  0.00  0.00    +0.000 A 
ATOM     10  C   UNL     1      -1.427  13.974  22.359  0.00  0.00    +0.000 A 
ATOM     11  C   UNL     1      -2.426  13.455  21.538  0.00  0.00    +0.000 A 
ATOM     12  C   UNL     1      -2.138  12.645  20.444  0.00  0.00    +0.000 A 
ATOM     13  N   UNL     1      -3.167  12.232  19.706  0.00  0.00    +0.000 NA
ATOM     14  C   UNL     1      -2.976  11.477  18.599  0.00  0.00    +0.000 A 
ENDROOT
BRANCH   1  16
ATOM     15  N   UNL     1      -5.949  11.171  19.309  0.00  0.00    +0.000 N 
ATOM     16  C   UNL     1      -5.464  11.561  18.082  0.00  0.00    +0.000 C 
ATOM     17  O   UNL     1      -6.138  12.147  17.242  0.00  0.00    +0.000 OA
ATOM     18  H   UNL     1      -5.249  10.911  20.003  0.00  0.00    +0.000 HD
BRANCH  15  20
ATOM     19  C   UNL     1      -7.769  10.338  20.683  0.00  0.00    +0.000 C 
ATOM     20  C   UNL     1      -7.299  11.455  19.758  0.00  0.00    +0.000 C 
ATOM     21  C   UNL     1      -7.362  12.808  20.458  0.00  0.00    +0.000 C 
ENDBRANCH  15  20
ENDBRANCH   1  16
BRANCH   6  22
ATOM     22  C   UNL     1       0.851  11.122  18.614  0.00  0.00    +0.000 C 
BRANCH  22  23
ATOM     23  C   UNL     1       1.424   9.772  19.012  0.00  0.00    +0.000 A 
ATOM     24  C   UNL     1       1.110   9.272  20.287  0.00  0.00    +0.000 A 
ATOM     25  C   UNL     1       1.387   7.946  20.631  0.00  0.00    +0.000 A 
ATOM     26  C   UNL     1       1.982   7.086  19.703  0.00  0.00    +0.000 A 
ATOM     27  C   UNL     1       2.348   7.583  18.447  0.00  0.00    +0.000 A 
ATOM     28  C   UNL     1       2.084   8.920  18.115  0.00  0.00    +0.000 A 
BRANCH  26  29
ATOM     29  C   UNL     1       2.089   5.647  20.064  0.00  0.00    +0.000 C 
ATOM     30  O   UNL     1       1.826   4.753  19.277  0.00  0.00    +0.000 OA
BRANCH  29  31
ATOM     31  O   UNL     1       2.494   5.408  21.328  0.00  0.00    +0.000 OA
ATOM     32  H   UNL     1       3.386   5.726  21.549  0.00  0.00    +0.000 HD
ENDBRANCH  29  31
ENDBRANCH  26  29
ENDBRANCH  22  23
ENDBRANCH   6  22
TORSDOF 6
ENDMDL
MODEL 6
REMARK VINA RESULT:      -8.2      5.286     10.285
REMARK  Name = 
REMARK  8 active torsions:
REMARK  status: ('A' for Active; 'I' for Inactive)
REMARK    1  A    between atoms: C_1  and  C_2
REMARK    2  A    between atoms: C_2  and  C_3
REMARK    3  A    between atoms: C_2  and  N_4
REMARK    4  A    between atoms: C_5  and  C_7
REMARK    5  A    between atoms: C_12  and  C_13
REMARK    6  A    between atoms: C_13  and  C_14
REMARK    7  A    between atoms: C_17  and  C_18
REMARK    8  A    between atoms: C_18  and  O_20
REMARK                            x       y       z     vdW  Elec       q    Type
REMARK                         _______ _______ _______ _____ _____    ______ ____
ROOT
ATOM      1  C   UNL     1      -3.977  11.110  17.550  0.00  0.00    +0.000 A 
ATOM      2  C   UNL     1      -3.761  10.331  16.404  0.00  0.00    +0.000 A 
ATOM      3  C   UNL     1      -2.520   9.759  16.185  0.00  0.00    +0.000 A 
ATOM      4  C   UNL     1      -1.485  10.017  17.079  0.00  0.00    +0.000 A 
ATOM      5  C   UNL     1      -1.649  10.882  18.194  0.00  0.00    +0.000 A 
ATOM      6  C   UNL     1      -0.580  11.288  19.053  0.00  0.00    +0.000 A 
ATOM      7  C   UNL     1      -0.849  12.161  20.154  0.00  0.00    +0.000 A 
ATOM      8  C   UNL     1       0.122  12.672  21.058  0.00  0.00    +0.000 A 
ATOM      9  C   UNL     1      -0.226  13.514  22.114  0.00  0.00    +0.000 A 
ATOM     10  C   UNL     1      -1.554  13.869  22.293  0.00  0.00    +0.000 A 
ATOM     11  C   UNL     1      -2.514  13.384  21.407  0.00  0.00    +0.000 A 
ATOM     12  C   UNL     1      -2.184  12.551  20.343  0.00  0.00    +0.000 A 
ATOM     13  N   UNL     1      -3.175  12.174  19.536  0.00  0.00    +0.000 NA
ATOM     14  C   UNL     1      -2.939  11.399  18.452  0.00  0.00    +0.000 A 
ENDROOT
BRANCH   1  16
ATOM     15  N   UNL     1      -5.601  12.926  17.557  0.00  0.00    +0.000 N 
ATOM     16  C   UNL     1      -5.379  11.583  17.759  0.00  0.00    +0.000 C 
ATOM     17  O   UNL     1      -6.241  10.806  18.156  0.00  0.00    +0.000 OA
ATOM     18  H   UNL     1      -4.895  13.417  17.010  0.00  0.00    +0.000 HD
BRANCH  15  20
ATOM     19  C   UNL     1      -6.861  14.395  19.024  0.00  0.00    +0.000 C 
ATOM     20  C   UNL     1      -6.892  13.556  17.750  0.00  0.00    +0.000 C 
ATOM     21  C   UNL     1      -7.262  14.411  16.542  0.00  0.00    +0.000 C 
ENDBRANCH  15  20
ENDBRANCH   1  16
BRANCH   6  22
ATOM     22  C   UNL     1       0.857  10.880  18.744  0.00  0.00    +0.000 C 
BRANCH  22  23
ATOM     23  C   UNL     1       1.358   9.533  19.239  0.00  0.00    +0.000 A 
ATOM     24  C   UNL     1       0.967   9.117  20.524  0.00  0.00    +0.000 A 
ATOM     25  C   UNL     1       1.176   7.802  20.951  0.00  0.00    +0.000 A 
ATOM     26  C   UNL     1       1.777   6.870  20.099  0.00  0.00    +0.000 A 
ATOM     27  C   UNL     1       2.219   7.284  18.837  0.00  0.00    +0.000 A 
ATOM     28  C   UNL     1       2.023   8.609  18.421  0.00  0.00    +0.000 A 
BRANCH  26  29
ATOM     29  C   UNL     1       1.810   5.451  20.542  0.00  0.00    +0.000 C 
ATOM     30  O   UNL     1       0.846   4.711  20.437  0.00  0.00    +0.000 OA
BRANCH  29  31
ATOM     31  O   UNL     1       2.984   5.049  21.070  0.00  0.00    +0.000 OA
ATOM     32  H   UNL     1       2.972   4.179  21.504  0.00  0.00    +0.000 HD
ENDBRANCH  29  31
ENDBRANCH  26  29
ENDBRANCH  22  23
ENDBRANCH   6  22
TORSDOF 6
ENDMDL
MODEL 7
REMARK VINA RESULT:      -8.1      5.212     10.831
REMARK  Name = 
REMARK  8 active torsions:
REMARK  status: ('A' for Active; 'I' for Inactive)
REMARK    1  A    between atoms: C_1  and  C_2
REMARK    2  A    between atoms: C_2  and  C_3
REMARK    3  A    between atoms: C_2  and  N_4
REMARK    4  A    between atoms: C_5  and  C_7
REMARK    5  A    between atoms: C_12  and  C_13
REMARK    6  A    between atoms: C_13  and  C_14
REMARK    7  A    between atoms: C_17  and  C_18
REMARK    8  A    between atoms: C_18  and  O_20
REMARK                            x       y       z     vdW  Elec       q    Type
REMARK                         _______ _______ _______ _____ _____    ______ ____
ROOT
ATOM      1  C   UNL     1      -2.979  13.138  21.844  0.00  0.00    +0.000 A 
ATOM      2  C   UNL     1      -2.062  13.451  22.858  0.00  0.00    +0.000 A 
ATOM      3  C   UNL     1      -0.707  13.275  22.639  0.00  0.00    +0.000 A 
ATOM      4  C   UNL     1      -0.278  12.731  21.432  0.00  0.00    +0.000 A 
ATOM      5  C   UNL     1      -1.190  12.314  20.427  0.00  0.00    +0.000 A 
ATOM      6  C   UNL     1      -0.803  11.621  19.236  0.00  0.00    +0.000 A 
ATOM      7  C   UNL     1      -1.799  11.246  18.281  0.00  0.00    +0.000 A 
ATOM      8  C   UNL     1      -1.559  10.521  17.081  0.00  0.00    +0.000 A 
ATOM      9  C   UNL     1      -2.588  10.201  16.195  0.00  0.00    +0.000 A 
ATOM     10  C   UNL     1      -3.885  10.595  16.487  0.00  0.00    +0.000 A 
ATOM     11  C   UNL     1      -4.135  11.295  17.666  0.00  0.00    +0.000 A 
ATOM     12  C   UNL     1      -3.123  11.615  18.565  0.00  0.00    +0.000 A 
ATOM     13  N   UNL     1      -3.478  12.255  19.678  0.00  0.00    +0.000 NA
ATOM     14  C   UNL     1      -2.567  12.568  20.627  0.00  0.00    +0.000 A 
ENDROOT
BRANCH   1  16
ATOM     15  N   UNL     1      -5.301  12.433  22.048  0.00  0.00    +0.000 N 
ATOM     16  C   UNL     1      -4.406  13.474  22.131  0.00  0.00    +0.000 C 
ATOM     17  O   UNL     1      -4.734  14.635  22.354  0.00  0.00    +0.000 OA
ATOM     18  H   UNL     1      -4.903  11.497  22.095  0.00  0.00    +0.000 HD
BRANCH  15  20
ATOM     19  C   UNL     1      -7.486  11.678  21.304  0.00  0.00    +0.000 C 
ATOM     20  C   UNL     1      -6.727  12.592  22.261  0.00  0.00    +0.000 C 
ATOM     21  C   UNL     1      -7.093  12.290  23.711  0.00  0.00    +0.000 C 
ENDBRANCH  15  20
ENDBRANCH   1  16
BRANCH   6  22
ATOM     22  C   UNL     1       0.646  11.191  19.029  0.00  0.00    +0.000 C 
BRANCH  22  23
ATOM     23  C   UNL     1       1.001   9.721  19.178  0.00  0.00    +0.000 A 
ATOM     24  C   UNL     1       1.575   9.066  18.075  0.00  0.00    +0.000 A 
ATOM     25  C   UNL     1       2.152   7.800  18.208  0.00  0.00    +0.000 A 
ATOM     26  C   UNL     1       2.172   7.160  19.451  0.00  0.00    +0.000 A 
ATOM     27  C   UNL     1       1.557   7.777  20.547  0.00  0.00    +0.000 A 
ATOM     28  C   UNL     1       0.964   9.039  20.403  0.00  0.00    +0.000 A 
BRANCH  26  29
ATOM     29  C   UNL     1       2.953   5.900  19.567  0.00  0.00    +0.000 C 
ATOM     30  O   UNL     1       4.172   5.886  19.597  0.00  0.00    +0.000 OA
BRANCH  29  31
ATOM     31  O   UNL     1       2.210   4.776  19.631  0.00  0.00    +0.000 OA
ATOM     32  H   UNL     1       2.111   4.390  20.518  0.00  0.00    +0.000 HD
ENDBRANCH  29  31
ENDBRANCH  26  29
ENDBRANCH  22  23
ENDBRANCH   6  22
TORSDOF 6
ENDMDL
MODEL 8
REMARK VINA RESULT:      -8.0      5.399     11.156
REMARK  Name = 
REMARK  8 active torsions:
REMARK  status: ('A' for Active; 'I' for Inactive)
REMARK    1  A    between atoms: C_1  and  C_2
REMARK    2  A    between atoms: C_2  and  C_3
REMARK    3  A    between atoms: C_2  and  N_4
REMARK    4  A    between atoms: C_5  and  C_7
REMARK    5  A    between atoms: C_12  and  C_13
REMARK    6  A    between atoms: C_13  and  C_14
REMARK    7  A    between atoms: C_17  and  C_18
REMARK    8  A    between atoms: C_18  and  O_20
REMARK                            x       y       z     vdW  Elec       q    Type
REMARK                         _______ _______ _______ _____ _____    ______ ____
ROOT
ATOM      1  C   UNL     1      -3.294  12.747  22.139  0.00  0.00    +0.000 A 
ATOM      2  C   UNL     1      -2.350  12.907  23.163  0.00  0.00    +0.000 A 
ATOM      3  C   UNL     1      -0.999  12.833  22.871  0.00  0.00    +0.000 A 
ATOM      4  C   UNL     1      -0.600  12.540  21.570  0.00  0.00    +0.000 A 
ATOM      5  C   UNL     1      -1.536  12.276  20.536  0.00  0.00    +0.000 A 
ATOM      6  C   UNL     1      -1.173  11.833  19.225  0.00  0.00    +0.000 A 
ATOM      7  C   UNL     1      -2.192  11.597  18.250  0.00  0.00    +0.000 A 
ATOM      8  C   UNL     1      -1.975  11.117  16.929  0.00  0.00    +0.000 A 
ATOM      9  C   UNL     1      -3.027  10.922  16.034  0.00  0.00    +0.000 A 
ATOM     10  C   UNL     1      -4.324  11.199  16.437  0.00  0.00    +0.000 A 
ATOM     11  C   UNL     1      -4.552  11.658  17.732  0.00  0.00    +0.000 A 
ATOM     12  C   UNL     1      -3.516  11.850  18.641  0.00  0.00    +0.000 A 
ATOM     13  N   UNL     1      -3.849  12.258  19.865  0.00  0.00    +0.000 NA
ATOM     14  C   UNL     1      -2.911  12.430  20.825  0.00  0.00    +0.000 A 
ENDROOT
BRANCH   1  16
ATOM     15  N   UNL     1      -5.392  13.950  21.850  0.00  0.00    +0.000 N 
ATOM     16  C   UNL     1      -4.720  12.962  22.531  0.00  0.00    +0.000 C 
ATOM     17  O   UNL     1      -5.209  12.327  23.460  0.00  0.00    +0.000 OA
ATOM     18  H   UNL     1      -4.982  14.239  20.962  0.00  0.00    +0.000 HD
BRANCH  15  20
ATOM     19  C   UNL     1      -6.798  15.610  22.929  0.00  0.00    +0.000 C 
ATOM     20  C   UNL     1      -6.769  14.313  22.128  0.00  0.00    +0.000 C 
ATOM     21  C   UNL     1      -7.563  14.452  20.833  0.00  0.00    +0.000 C 
ENDBRANCH  15  20
ENDBRANCH   1  16
BRANCH   6  22
ATOM     22  C   UNL     1       0.282  11.511  18.894  0.00  0.00    +0.000 C 
BRANCH  22  23
ATOM     23  C   UNL     1       0.750  10.068  18.983  0.00  0.00    +0.000 A 
ATOM     24  C   UNL     1       1.366   9.504  17.853  0.00  0.00    +0.000 A 
ATOM     25  C   UNL     1       2.040   8.282  17.933  0.00  0.00    +0.000 A 
ATOM     26  C   UNL     1       2.117   7.596  19.149  0.00  0.00    +0.000 A 
ATOM     27  C   UNL     1       1.463   8.119  20.270  0.00  0.00    +0.000 A 
ATOM     28  C   UNL     1       0.773   9.337  20.179  0.00  0.00    +0.000 A 
BRANCH  26  29
ATOM     29  C   UNL     1       2.993   6.396  19.211  0.00  0.00    +0.000 C 
ATOM     30  O   UNL     1       3.484   5.893  18.215  0.00  0.00    +0.000 OA
BRANCH  29  31
ATOM     31  O   UNL     1       3.199   5.908  20.451  0.00  0.00    +0.000 OA
ATOM     32  H   UNL     1       4.074   5.514  20.606  0.00  0.00    +0.000 HD
ENDBRANCH  29  31
ENDBRANCH  26  29
ENDBRANCH  22  23
ENDBRANCH   6  22
TORSDOF 6
ENDMDL
MODEL 9
REMARK VINA RESULT:      -7.8      5.030     10.465
REMARK  Name = 
REMARK  8 active torsions:
REMARK  status: ('A' for Active; 'I' for Inactive)
REMARK    1  A    between atoms: C_1  and  C_2
REMARK    2  A    between atoms: C_2  and  C_3
REMARK    3  A    between atoms: C_2  and  N_4
REMARK    4  A    between atoms: C_5  and  C_7
REMARK    5  A    between atoms: C_12  and  C_13
REMARK    6  A    between atoms: C_13  and  C_14
REMARK    7  A    between atoms: C_17  and  C_18
REMARK    8  A    between atoms: C_18  and  O_20
REMARK                            x       y       z     vdW  Elec       q    Type
REMARK                         _______ _______ _______ _____ _____    ______ ____
ROOT
ATOM      1  C   UNL     1      -3.837  11.518  18.386  0.00  0.00    +0.000 A 
ATOM      2  C   UNL     1      -4.044  10.611  17.336  0.00  0.00    +0.000 A 
ATOM      3  C   UNL     1      -2.984   9.865  16.853  0.00  0.00    +0.000 A 
ATOM      4  C   UNL     1      -1.711  10.071  17.378  0.00  0.00    +0.000 A 
ATOM      5  C   UNL     1      -1.456  11.052  18.372  0.00  0.00    +0.000 A 
ATOM      6  C   UNL     1      -0.147  11.396  18.836  0.00  0.00    +0.000 A 
ATOM      7  C   UNL     1       0.005  12.398  19.846  0.00  0.00    +0.000 A 
ATOM      8  C   UNL     1       1.244  12.863  20.366  0.00  0.00    +0.000 A 
ATOM      9  C   UNL     1       1.306  13.841  21.359  0.00  0.00    +0.000 A 
ATOM     10  C   UNL     1       0.131  14.380  21.856  0.00  0.00    +0.000 A 
ATOM     11  C   UNL     1      -1.090  13.942  21.347  0.00  0.00    +0.000 A 
ATOM     12  C   UNL     1      -1.170  12.975  20.350  0.00  0.00    +0.000 A 
ATOM     13  N   UNL     1      -2.386  12.654  19.911  0.00  0.00    +0.000 NA
ATOM     14  C   UNL     1      -2.556  11.755  18.914  0.00  0.00    +0.000 A 
ENDROOT
BRANCH   1  16
ATOM     15  N   UNL     1      -5.283  12.060  20.269  0.00  0.00    +0.000 N 
ATOM     16  C   UNL     1      -5.062  12.188  18.917  0.00  0.00    +0.000 C 
ATOM     17  O   UNL     1      -5.840  12.749  18.153  0.00  0.00    +0.000 OA
ATOM     18  H   UNL     1      -4.476  11.793  20.830  0.00  0.00    +0.000 HD
BRANCH  15  20
ATOM     19  C   UNL     1      -7.545  11.566  21.004  0.00  0.00    +0.000 C 
ATOM     20  C   UNL     1      -6.441  12.617  20.941  0.00  0.00    +0.000 C 
ATOM     21  C   UNL     1      -6.072  13.106  22.338  0.00  0.00    +0.000 C 
ENDBRANCH  15  20
ENDBRANCH   1  16
BRANCH   6  22
ATOM     22  C   UNL     1       1.089  10.776  18.190  0.00  0.00    +0.000 C 
BRANCH  22  23
ATOM     23  C   UNL     1       1.626   9.468  18.745  0.00  0.00    +0.000 A 
ATOM     24  C   UNL     1       1.245   9.098  20.047  0.00  0.00    +0.000 A 
ATOM     25  C   UNL     1       1.489   7.810  20.532  0.00  0.00    +0.000 A 
ATOM     26  C   UNL     1       2.116   6.858  19.722  0.00  0.00    +0.000 A 
ATOM     27  C   UNL     1       2.548   7.227  18.443  0.00  0.00    +0.000 A 
ATOM     28  C   UNL     1       2.317   8.526  17.969  0.00  0.00    +0.000 A 
BRANCH  26  29
ATOM     29  C   UNL     1       2.187   5.461  20.227  0.00  0.00    +0.000 C 
ATOM     30  O   UNL     1       1.225   4.892  20.716  0.00  0.00    +0.000 OA
BRANCH  29  31
ATOM     31  O   UNL     1       3.396   4.875  20.106  0.00  0.00    +0.000 OA
ATOM     32  H   UNL     1       3.403   4.023  19.638  0.00  0.00    +0.000 HD
ENDBRANCH  29  31
ENDBRANCH  26  29
ENDBRANCH  22  23
ENDBRANCH   6  22
TORSDOF 6
ENDMDL
