MODEL 1
REMARK VINA RESULT:      -5.9      0.000      0.000
REMARK  Name = 
REMARK  12 active torsions:
REMARK  status: ('A' for Active; 'I' for Inactive)
REMARK    1  A    between atoms: C_1  and  C_2
REMARK    2  A    between atoms: C_2  and  C_3
REMARK    3  A    between atoms: C_3  and  C_4
REMARK    4  A    between atoms: C_4  and  C_5
REMARK    5  A    between atoms: C_5  and  C_6
REMARK    6  A    between atoms: C_6  and  C_7
REMARK    7  A    between atoms: C_7  and  C_8
REMARK    8  A    between atoms: C_8  and  C_9
REMARK    9  A    between atoms: C_9  and  C_10
REMARK   10  A    between atoms: C_10  and  C_11
REMARK   11  A    between atoms: C_11  and  C_12
REMARK   12  A    between atoms: C_12  and  N_13
REMARK                            x       y       z     vdW  Elec       q    Type
REMARK                         _______ _______ _______ _____ _____    ______ ____
ROOT
ATOM      1  C   UNL     1       2.981   2.329  20.136  0.00  0.00    +0.000 C 
ENDROOT
BRANCH   1   2
ATOM      2  C   UNL     1       2.589   1.713  18.792  0.00  0.00    +0.000 C 
BRANCH   2   3
ATOM      3  C   UNL     1       1.981   2.764  17.869  0.00  0.00    +0.000 C 
BRANCH   3   4
ATOM      4  C   UNL     1       1.260   3.837  18.674  0.00  0.00    +0.000 C 
BRANCH   4   5
ATOM      5  C   UNL     1       1.950   5.181  18.501  0.00  0.00    +0.000 C 
BRANCH   5   6
ATOM      6  C   UNL     1       2.053   5.896  19.837  0.00  0.00    +0.000 C 
BRANCH   6   7
ATOM      7  C   UNL     1       2.351   7.372  19.624  0.00  0.00    +0.000 C 
BRANCH   7   8
ATOM      8  C   UNL     1       2.597   7.652  18.150  0.00  0.00    +0.000 C 
BRANCH   8   9
ATOM      9  C   UNL     1       1.776   8.850  17.696  0.00  0.00    +0.000 C 
BRANCH   9  11
ATOM     10  C   UNL     1       1.229  11.030  18.784  0.00  0.00    +0.000 C 
ATOM     11  C   UNL     1       1.101   9.521  18.885  0.00  0.00    +0.000 C 
ENDBRANCH   9  11
ENDBRANCH   8   9
ENDBRANCH   7   8
ENDBRANCH   6   7
ENDBRANCH   5   6
ENDBRANCH   4   5
ENDBRANCH   3   4
ENDBRANCH   2   3
ENDBRANCH   1   2
BRANCH   1  12
ATOM     12  C   UNL     1       4.484   2.592  20.203  0.00  0.00    +0.000 C 
BRANCH  12  13
ATOM     13  N   UNL     1       5.055   2.925  18.907  0.00  0.00    +0.000 N 
ATOM     14  C   UNL     1       5.438   4.226  18.647  0.00  0.00    +0.000 C 
ATOM     15  O   UNL     1       5.365   5.186  19.379  0.00  0.00    +0.000 OA
ATOM     16  N   UNL     1       6.060   4.348  17.395  0.00  0.00    +0.000 N 
ATOM     17  C   UNL     1       5.560   4.048  16.148  0.00  0.00    +0.000 A 
ATOM     18  C   UNL     1       6.550   4.397  15.256  0.00  0.00    +0.000 A 
ATOM     19  N   UNL     1       7.643   4.888  15.913  0.00  0.00    +0.000 NA
ATOM     20  C   UNL     1       7.306   4.891  17.187  0.00  0.00    +0.000 A 
ATOM     21  H   UNL     1       5.411   2.169  18.330  0.00  0.00    +0.000 HD
ENDBRANCH  12  13
ENDBRANCH   1  12
TORSDOF 11
ENDMDL
MODEL 2
REMARK VINA RESULT:      -5.8      3.552      7.129
REMARK  Name = 
REMARK  12 active torsions:
REMARK  status: ('A' for Active; 'I' for Inactive)
REMARK    1  A    between atoms: C_1  and  C_2
REMARK    2  A    between atoms: C_2  and  C_3
REMARK    3  A    between atoms: C_3  and  C_4
REMARK    4  A    between atoms: C_4  and  C_5
REMARK    5  A    between atoms: C_5  and  C_6
REMARK    6  A    between atoms: C_6  and  C_7
REMARK    7  A    between atoms: C_7  and  C_8
REMARK    8  A    between atoms: C_8  and  C_9
REMARK    9  A    between atoms: C_9  and  C_10
REMARK   10  A    between atoms: C_10  and  C_11
REMARK   11  A    between atoms: C_11  and  C_12
REMARK   12  A    between atoms: C_12  and  N_13
REMARK                            x       y       z     vdW  Elec       q    Type
REMARK                         _______ _______ _______ _____ _____    ______ ____
ROOT
ATOM      1  C   UNL     1       5.548   6.083  17.518  0.00  0.00    +0.000 C 
ENDROOT
BRANCH   1   2
ATOM      2  C   UNL     1       6.504   5.152  16.772  0.00  0.00    +0.000 C 
BRANCH   2   3
ATOM      3  C   UNL     1       5.736   4.202  15.859  0.00  0.00    +0.000 C 
BRANCH   3   4
ATOM      4  C   UNL     1       6.582   3.807  14.657  0.00  0.00    +0.000 C 
BRANCH   4   5
ATOM      5  C   UNL     1       5.909   4.254  13.368  0.00  0.00    +0.000 C 
BRANCH   5   6
ATOM      6  C   UNL     1       6.481   3.492  12.184  0.00  0.00    +0.000 C 
BRANCH   6   7
ATOM      7  C   UNL     1       5.385   2.696  11.490  0.00  0.00    +0.000 C 
BRANCH   7   8
ATOM      8  C   UNL     1       4.031   3.344  11.730  0.00  0.00    +0.000 C 
BRANCH   8   9
ATOM      9  C   UNL     1       3.144   3.182  10.505  0.00  0.00    +0.000 C 
BRANCH   9  11
ATOM     10  C   UNL     1       2.236   4.920   8.960  0.00  0.00    +0.000 C 
ATOM     11  C   UNL     1       3.492   4.221   9.447  0.00  0.00    +0.000 C 
ENDBRANCH   9  11
ENDBRANCH   8   9
ENDBRANCH   7   8
ENDBRANCH   6   7
ENDBRANCH   5   6
ENDBRANCH   4   5
ENDBRANCH   3   4
ENDBRANCH   2   3
ENDBRANCH   1   2
BRANCH   1  12
ATOM     12  C   UNL     1       5.626   5.857  19.027  0.00  0.00    +0.000 C 
BRANCH  12  13
ATOM     13  N   UNL     1       4.592   4.957  19.515  0.00  0.00    +0.000 N 
ATOM     14  C   UNL     1       3.306   5.429  19.689  0.00  0.00    +0.000 C 
ATOM     15  O   UNL     1       2.887   6.545  19.484  0.00  0.00    +0.000 OA
ATOM     16  N   UNL     1       2.420   4.409  20.066  0.00  0.00    +0.000 N 
ATOM     17  C   UNL     1       2.467   3.585  21.169  0.00  0.00    +0.000 A 
ATOM     18  C   UNL     1       1.339   2.798  21.094  0.00  0.00    +0.000 A 
ATOM     19  N   UNL     1       0.610   3.100  19.979  0.00  0.00    +0.000 NA
ATOM     20  C   UNL     1       1.254   4.098  19.406  0.00  0.00    +0.000 A 
ATOM     21  H   UNL     1       4.759   3.957  19.459  0.00  0.00    +0.000 HD
ENDBRANCH  12  13
ENDBRANCH   1  12
TORSDOF 11
ENDMDL
MODEL 3
REMARK VINA RESULT:      -5.8      3.171      6.605
REMARK  Name = 
REMARK  12 active torsions:
REMARK  status: ('A' for Active; 'I' for Inactive)
REMARK    1  A    between atoms: C_1  and  C_2
REMARK    2  A    between atoms: C_2  and  C_3
REMARK    3  A    between atoms: C_3  and  C_4
REMARK    4  A    between atoms: C_4  and  C_5
REMARK    5  A    between atoms: C_5  and  C_6
REMARK    6  A    between atoms: C_6  and  C_7
REMARK    7  A    between atoms: C_7  and  C_8
REMARK    8  A    between atoms: C_8  and  C_9
REMARK    9  A    between atoms: C_9  and  C_10
REMARK   10  A    between atoms: C_10  and  C_11
REMARK   11  A    between atoms: C_11  and  C_12
REMARK   12  A    between atoms: C_12  and  N_13
REMARK                            x       y       z     vdW  Elec       q    Type
REMARK                         _______ _______ _______ _____ _____    ______ ____
ROOT
ATOM      1  C   UNL     1       6.595   5.600  19.270  0.00  0.00    +0.000 C 
ENDROOT
BRANCH   1   2
ATOM      2  C   UNL     1       7.656   6.135  18.308  0.00  0.00    +0.000 C 
BRANCH   2   3
ATOM      3  C   UNL     1       7.041   7.109  17.307  0.00  0.00    +0.000 C 
BRANCH   3   4
ATOM      4  C   UNL     1       5.721   6.571  16.773  0.00  0.00    +0.000 C 
BRANCH   4   5
ATOM      5  C   UNL     1       5.851   6.217  15.300  0.00  0.00    +0.000 C 
BRANCH   5   6
ATOM      6  C   UNL     1       5.165   4.892  15.013  0.00  0.00    +0.000 C 
BRANCH   6   7
ATOM      7  C   UNL     1       6.197   3.826  14.677  0.00  0.00    +0.000 C 
BRANCH   7   8
ATOM      8  C   UNL     1       6.342   3.691  13.169  0.00  0.00    +0.000 C 
BRANCH   8   9
ATOM      9  C   UNL     1       5.014   3.977  12.484  0.00  0.00    +0.000 C 
BRANCH   9  11
ATOM     10  C   UNL     1       3.466   3.273  10.656  0.00  0.00    +0.000 C 
ATOM     11  C   UNL     1       4.683   2.885  11.474  0.00  0.00    +0.000 C 
ENDBRANCH   9  11
ENDBRANCH   8   9
ENDBRANCH   7   8
ENDBRANCH   6   7
ENDBRANCH   5   6
ENDBRANCH   4   5
ENDBRANCH   3   4
ENDBRANCH   2   3
ENDBRANCH   1   2
BRANCH   1  12
ATOM     12  C   UNL     1       6.069   4.242  18.809  0.00  0.00    +0.000 C 
BRANCH  12  13
ATOM     13  N   UNL     1       4.680   4.021  19.181  0.00  0.00    +0.000 N 
ATOM     14  C   UNL     1       4.342   2.903  19.916  0.00  0.00    +0.000 C 
ATOM     15  O   UNL     1       5.073   2.028  20.322  0.00  0.00    +0.000 OA
ATOM     16  N   UNL     1       2.985   2.899  20.272  0.00  0.00    +0.000 N 
ATOM     17  C   UNL     1       1.877   2.926  19.455  0.00  0.00    +0.000 A 
ATOM     18  C   UNL     1       0.791   2.857  20.300  0.00  0.00    +0.000 A 
ATOM     19  N   UNL     1       1.193   2.801  21.604  0.00  0.00    +0.000 NA
ATOM     20  C   UNL     1       2.510   2.781  21.557  0.00  0.00    +0.000 A 
ATOM     21  H   UNL     1       4.039   4.807  19.135  0.00  0.00    +0.000 HD
ENDBRANCH  12  13
ENDBRANCH   1  12
TORSDOF 11
ENDMDL
MODEL 4
REMARK VINA RESULT:      -5.8      4.501      6.698
REMARK  Name = 
REMARK  12 active torsions:
REMARK  status: ('A' for Active; 'I' for Inactive)
REMARK    1  A    between atoms: C_1  and  C_2
REMARK    2  A    between atoms: C_2  and  C_3
REMARK    3  A    between atoms: C_3  and  C_4
REMARK    4  A    between atoms: C_4  and  C_5
REMARK    5  A    between atoms: C_5  and  C_6
REMARK    6  A    between atoms: C_6  and  C_7
REMARK    7  A    between atoms: C_7  and  C_8
REMARK    8  A    between atoms: C_8  and  C_9
REMARK    9  A    between atoms: C_9  and  C_10
REMARK   10  A    between atoms: C_10  and  C_11
REMARK   11  A    between atoms: C_11  and  C_12
REMARK   12  A    between atoms: C_12  and  N_13
REMARK                            x       y       z     vdW  Elec       q    Type
REMARK                         _______ _______ _______ _____ _____    ______ ____
ROOT
ATOM      1  C   UNL     1       5.361   4.786  16.493  0.00  0.00    +0.000 C 
ENDROOT
BRANCH   1   2
ATOM      2  C   UNL     1       5.457   5.570  17.803  0.00  0.00    +0.000 C 
BRANCH   2   3
ATOM      3  C   UNL     1       6.912   5.848  18.164  0.00  0.00    +0.000 C 
BRANCH   3   4
ATOM      4  C   UNL     1       7.401   7.122  17.489  0.00  0.00    +0.000 C 
BRANCH   4   5
ATOM      5  C   UNL     1       8.299   7.909  18.432  0.00  0.00    +0.000 C 
BRANCH   5   6
ATOM      6  C   UNL     1       8.324   9.375  18.034  0.00  0.00    +0.000 C 
BRANCH   6   7
ATOM      7  C   UNL     1       9.207  10.165  18.988  0.00  0.00    +0.000 C 
BRANCH   7   8
ATOM      8  C   UNL     1       9.979  11.232  18.229  0.00  0.00    +0.000 C 
BRANCH   8   9
ATOM      9  C   UNL     1      10.773  12.097  19.196  0.00  0.00    +0.000 C 
BRANCH   9  11
ATOM     10  C   UNL     1       9.920  13.010  21.358  0.00  0.00    +0.000 C 
ATOM     11  C   UNL     1      10.408  11.767  20.638  0.00  0.00    +0.000 C 
ENDBRANCH   9  11
ENDBRANCH   8   9
ENDBRANCH   7   8
ENDBRANCH   6   7
ENDBRANCH   5   6
ENDBRANCH   4   5
ENDBRANCH   3   4
ENDBRANCH   2   3
ENDBRANCH   1   2
BRANCH   1  12
ATOM     12  C   UNL     1       4.151   3.854  16.497  0.00  0.00    +0.000 C 
BRANCH  12  13
ATOM     13  N   UNL     1       3.464   3.828  17.779  0.00  0.00    +0.000 N 
ATOM     14  C   UNL     1       3.334   2.632  18.457  0.00  0.00    +0.000 C 
ATOM     15  O   UNL     1       3.730   1.539  18.123  0.00  0.00    +0.000 OA
ATOM     16  N   UNL     1       2.739   2.805  19.715  0.00  0.00    +0.000 N 
ATOM     17  C   UNL     1       1.504   3.329  20.024  0.00  0.00    +0.000 A 
ATOM     18  C   UNL     1       1.388   3.227  21.392  0.00  0.00    +0.000 A 
ATOM     19  N   UNL     1       2.512   2.671  21.934  0.00  0.00    +0.000 NA
ATOM     20  C   UNL     1       3.285   2.386  20.906  0.00  0.00    +0.000 A 
ATOM     21  H   UNL     1       3.337   4.705  18.274  0.00  0.00    +0.000 HD
ENDBRANCH  12  13
ENDBRANCH   1  12
TORSDOF 11
ENDMDL
MODEL 5
REMARK VINA RESULT:      -5.8      4.126      7.120
REMARK  Name = 
REMARK  12 active torsions:
REMARK  status: ('A' for Active; 'I' for Inactive)
REMARK    1  A    between atoms: C_1  and  C_2
REMARK    2  A    between atoms: C_2  and  C_3
REMARK    3  A    between atoms: C_3  and  C_4
REMARK    4  A    between atoms: C_4  and  C_5
REMARK    5  A    between atoms: C_5  and  C_6
REMARK    6  A    between atoms: C_6  and  C_7
REMARK    7  A    between atoms: C_7  and  C_8
REMARK    8  A    between atoms: C_8  and  C_9
REMARK    9  A    between atoms: C_9  and  C_10
REMARK   10  A    between atoms: C_10  and  C_11
REMARK   11  A    between atoms: C_11  and  C_12
REMARK   12  A    between atoms: C_12  and  N_13
REMARK                            x       y       z     vdW  Elec       q    Type
REMARK                         _______ _______ _______ _____ _____    ______ ____
ROOT
ATOM      1  C   UNL     1       2.549   6.941  17.923  0.00  0.00    +0.000 C 
ENDROOT
BRANCH   1   2
ATOM      2  C   UNL     1       3.894   6.253  18.155  0.00  0.00    +0.000 C 
BRANCH   2   3
ATOM      3  C   UNL     1       4.394   5.589  16.877  0.00  0.00    +0.000 C 
BRANCH   3   4
ATOM      4  C   UNL     1       4.984   4.218  17.176  0.00  0.00    +0.000 C 
BRANCH   4   5
ATOM      5  C   UNL     1       4.160   3.509  18.240  0.00  0.00    +0.000 C 
BRANCH   5   6
ATOM      6  C   UNL     1       3.062   2.683  17.592  0.00  0.00    +0.000 C 
BRANCH   6   7
ATOM      7  C   UNL     1       1.701   3.299  17.877  0.00  0.00    +0.000 C 
BRANCH   7   8
ATOM      8  C   UNL     1       0.883   2.380  18.771  0.00  0.00    +0.000 C 
BRANCH   8   9
ATOM      9  C   UNL     1       0.986   2.827  20.222  0.00  0.00    +0.000 C 
BRANCH   9  11
ATOM     10  C   UNL     1       2.286   4.737  21.170  0.00  0.00    +0.000 C 
ATOM     11  C   UNL     1       1.098   4.344  20.311  0.00  0.00    +0.000 C 
ENDBRANCH   9  11
ENDBRANCH   8   9
ENDBRANCH   7   8
ENDBRANCH   6   7
ENDBRANCH   5   6
ENDBRANCH   4   5
ENDBRANCH   3   4
ENDBRANCH   2   3
ENDBRANCH   1   2
BRANCH   1  12
ATOM     12  C   UNL     1       2.686   8.460  18.001  0.00  0.00    +0.000 C 
BRANCH  12  13
ATOM     13  N   UNL     1       1.441   9.154  17.711  0.00  0.00    +0.000 N 
ATOM     14  C   UNL     1       0.721   9.720  18.744  0.00  0.00    +0.000 C 
ATOM     15  O   UNL     1       0.988   9.725  19.924  0.00  0.00    +0.000 OA
ATOM     16  N   UNL     1      -0.393  10.433  18.278  0.00  0.00    +0.000 N 
ATOM     17  C   UNL     1      -1.460   9.981  17.533  0.00  0.00    +0.000 A 
ATOM     18  C   UNL     1      -2.297  11.065  17.387  0.00  0.00    +0.000 A 
ATOM     19  N   UNL     1      -1.776  12.167  18.003  0.00  0.00    +0.000 NA
ATOM     20  C   UNL     1      -0.660  11.751  18.567  0.00  0.00    +0.000 A 
ATOM     21  H   UNL     1       1.264   9.444  16.754  0.00  0.00    +0.000 HD
ENDBRANCH  12  13
ENDBRANCH   1  12
TORSDOF 11
ENDMDL
MODEL 6
REMARK VINA RESULT:      -5.7      3.382      7.028
REMARK  Name = 
REMARK  12 active torsions:
REMARK  status: ('A' for Active; 'I' for Inactive)
REMARK    1  A    between atoms: C_1  and  C_2
REMARK    2  A    between atoms: C_2  and  C_3
REMARK    3  A    between atoms: C_3  and  C_4
REMARK    4  A    between atoms: C_4  and  C_5
REMARK    5  A    between atoms: C_5  and  C_6
REMARK    6  A    between atoms: C_6  and  C_7
REMARK    7  A    between atoms: C_7  and  C_8
REMARK    8  A    between atoms: C_8  and  C_9
REMARK    9  A    between atoms: C_9  and  C_10
REMARK   10  A    between atoms: C_10  and  C_11
REMARK   11  A    between atoms: C_11  and  C_12
REMARK   12  A    between atoms: C_12  and  N_13
REMARK                            x       y       z     vdW  Elec       q    Type
REMARK                         _______ _______ _______ _____ _____    ______ ____
ROOT
ATOM      1  C   UNL     1       6.625   5.607  18.186  0.00  0.00    +0.000 C 
ENDROOT
BRANCH   1   2
ATOM      2  C   UNL     1       6.519   4.513  17.123  0.00  0.00    +0.000 C 
BRANCH   2   3
ATOM      3  C   UNL     1       7.346   4.869  15.891  0.00  0.00    +0.000 C 
BRANCH   3   4
ATOM      4  C   UNL     1       6.599   4.504  14.616  0.00  0.00    +0.000 C 
BRANCH   4   5
ATOM      5  C   UNL     1       7.568   4.392  13.450  0.00  0.00    +0.000 C 
BRANCH   5   6
ATOM      6  C   UNL     1       6.807   4.335  12.136  0.00  0.00    +0.000 C 
BRANCH   6   7
ATOM      7  C   UNL     1       6.800   2.914  11.592  0.00  0.00    +0.000 C 
BRANCH   7   8
ATOM      8  C   UNL     1       5.410   2.309  11.719  0.00  0.00    +0.000 C 
BRANCH   8   9
ATOM      9  C   UNL     1       4.351   3.397  11.631  0.00  0.00    +0.000 C 
BRANCH   9  11
ATOM     10  C   UNL     1       2.979   4.321   9.760  0.00  0.00    +0.000 C 
ATOM     11  C   UNL     1       3.333   3.072  10.545  0.00  0.00    +0.000 C 
ENDBRANCH   9  11
ENDBRANCH   8   9
ENDBRANCH   7   8
ENDBRANCH   6   7
ENDBRANCH   5   6
ENDBRANCH   4   5
ENDBRANCH   3   4
ENDBRANCH   2   3
ENDBRANCH   1   2
BRANCH   1  12
ATOM     12  C   UNL     1       5.878   5.212  19.458  0.00  0.00    +0.000 C 
BRANCH  12  13
ATOM     13  N   UNL     1       4.541   4.705  19.192  0.00  0.00    +0.000 N 
ATOM     14  C   UNL     1       4.241   3.390  19.486  0.00  0.00    +0.000 C 
ATOM     15  O   UNL     1       4.967   2.547  19.960  0.00  0.00    +0.000 OA
ATOM     16  N   UNL     1       2.887   3.099  19.262  0.00  0.00    +0.000 N 
ATOM     17  C   UNL     1       2.161   3.200  18.097  0.00  0.00    +0.000 A 
ATOM     18  C   UNL     1       0.897   2.747  18.405  0.00  0.00    +0.000 A 
ATOM     19  N   UNL     1       0.819   2.385  19.720  0.00  0.00    +0.000 NA
ATOM     20  C   UNL     1       2.034   2.562  20.198  0.00  0.00    +0.000 A 
ATOM     21  H   UNL     1       3.791   5.376  19.057  0.00  0.00    +0.000 HD
ENDBRANCH  12  13
ENDBRANCH   1  12
TORSDOF 11
ENDMDL
MODEL 7
REMARK VINA RESULT:      -5.7      2.322      4.812
REMARK  Name = 
REMARK  12 active torsions:
REMARK  status: ('A' for Active; 'I' for Inactive)
REMARK    1  A    between atoms: C_1  and  C_2
REMARK    2  A    between atoms: C_2  and  C_3
REMARK    3  A    between atoms: C_3  and  C_4
REMARK    4  A    between atoms: C_4  and  C_5
REMARK    5  A    between atoms: C_5  and  C_6
REMARK    6  A    between atoms: C_6  and  C_7
REMARK    7  A    between atoms: C_7  and  C_8
REMARK    8  A    between atoms: C_8  and  C_9
REMARK    9  A    between atoms: C_9  and  C_10
REMARK   10  A    between atoms: C_10  and  C_11
REMARK   11  A    between atoms: C_11  and  C_12
REMARK   12  A    between atoms: C_12  and  N_13
REMARK                            x       y       z     vdW  Elec       q    Type
REMARK                         _______ _______ _______ _____ _____    ______ ____
ROOT
ATOM      1  C   UNL     1       4.595   7.308  17.241  0.00  0.00    +0.000 C 
ENDROOT
BRANCH   1   2
ATOM      2  C   UNL     1       3.722   6.231  17.885  0.00  0.00    +0.000 C 
BRANCH   2   3
ATOM      3  C   UNL     1       2.336   6.777  18.212  0.00  0.00    +0.000 C 
BRANCH   3   4
ATOM      4  C   UNL     1       2.098   6.779  19.715  0.00  0.00    +0.000 C 
BRANCH   4   5
ATOM      5  C   UNL     1       2.593   5.480  20.331  0.00  0.00    +0.000 C 
BRANCH   5   6
ATOM      6  C   UNL     1       1.423   4.556  20.623  0.00  0.00    +0.000 C 
BRANCH   6   7
ATOM      7  C   UNL     1       1.922   3.149  20.915  0.00  0.00    +0.000 C 
BRANCH   7   8
ATOM      8  C   UNL     1       1.466   2.191  19.825  0.00  0.00    +0.000 C 
BRANCH   8   9
ATOM      9  C   UNL     1       1.199   2.950  18.534  0.00  0.00    +0.000 C 
BRANCH   9  11
ATOM     10  C   UNL     1       3.354   1.777  18.073  0.00  0.00    +0.000 C 
ATOM     11  C   UNL     1       2.391   2.846  17.591  0.00  0.00    +0.000 C 
ENDBRANCH   9  11
ENDBRANCH   8   9
ENDBRANCH   7   8
ENDBRANCH   6   7
ENDBRANCH   5   6
ENDBRANCH   4   5
ENDBRANCH   3   4
ENDBRANCH   2   3
ENDBRANCH   1   2
BRANCH   1  12
ATOM     12  C   UNL     1       6.032   6.821  17.068  0.00  0.00    +0.000 C 
BRANCH  12  13
ATOM     13  N   UNL     1       6.293   6.301  15.734  0.00  0.00    +0.000 N 
ATOM     14  C   UNL     1       6.574   4.960  15.570  0.00  0.00    +0.000 C 
ATOM     15  O   UNL     1       6.638   4.102  16.420  0.00  0.00    +0.000 OA
ATOM     16  N   UNL     1       6.699   4.612  14.217  0.00  0.00    +0.000 N 
ATOM     17  C   UNL     1       7.575   5.102  13.275  0.00  0.00    +0.000 A 
ATOM     18  C   UNL     1       7.316   4.395  12.122  0.00  0.00    +0.000 A 
ATOM     19  N   UNL     1       6.304   3.499  12.319  0.00  0.00    +0.000 NA
ATOM     20  C   UNL     1       5.984   3.617  13.592  0.00  0.00    +0.000 A 
ATOM     21  H   UNL     1       6.002   6.857  14.936  0.00  0.00    +0.000 HD
ENDBRANCH  12  13
ENDBRANCH   1  12
TORSDOF 11
ENDMDL
MODEL 8
REMARK VINA RESULT:      -5.6      4.563      7.714
REMARK  Name = 
REMARK  12 active torsions:
REMARK  status: ('A' for Active; 'I' for Inactive)
REMARK    1  A    between atoms: C_1  and  C_2
REMARK    2  A    between atoms: C_2  and  C_3
REMARK    3  A    between atoms: C_3  and  C_4
REMARK    4  A    between atoms: C_4  and  C_5
REMARK    5  A    between atoms: C_5  and  C_6
REMARK    6  A    between atoms: C_6  and  C_7
REMARK    7  A    between atoms: C_7  and  C_8
REMARK    8  A    between atoms: C_8  and  C_9
REMARK    9  A    between atoms: C_9  and  C_10
REMARK   10  A    between atoms: C_10  and  C_11
REMARK   11  A    between atoms: C_11  and  C_12
REMARK   12  A    between atoms: C_12  and  N_13
REMARK                            x       y       z     vdW  Elec       q    Type
REMARK                         _______ _______ _______ _____ _____    ______ ____
ROOT
ATOM      1  C   UNL     1       2.338   7.798  17.987  0.00  0.00    +0.000 C 
ENDROOT
BRANCH   1   2
ATOM      2  C   UNL     1       3.747   7.537  17.455  0.00  0.00    +0.000 C 
BRANCH   2   3
ATOM      3  C   UNL     1       4.041   6.041  17.403  0.00  0.00    +0.000 C 
BRANCH   3   4
ATOM      4  C   UNL     1       3.930   5.421  18.789  0.00  0.00    +0.000 C 
BRANCH   4   5
ATOM      5  C   UNL     1       5.066   4.437  19.021  0.00  0.00    +0.000 C 
BRANCH   5   6
ATOM      6  C   UNL     1       4.514   3.088  19.452  0.00  0.00    +0.000 C 
BRANCH   6   7
ATOM      7  C   UNL     1       3.560   2.548  18.398  0.00  0.00    +0.000 C 
BRANCH   7   8
ATOM      8  C   UNL     1       2.323   1.960  19.059  0.00  0.00    +0.000 C 
BRANCH   8   9
ATOM      9  C   UNL     1       1.145   2.912  18.914  0.00  0.00    +0.000 C 
BRANCH   9  11
ATOM     10  C   UNL     1       1.331   2.843  21.402  0.00  0.00    +0.000 C 
ATOM     11  C   UNL     1       0.909   3.679  20.209  0.00  0.00    +0.000 C 
ENDBRANCH   9  11
ENDBRANCH   8   9
ENDBRANCH   7   8
ENDBRANCH   6   7
ENDBRANCH   5   6
ENDBRANCH   4   5
ENDBRANCH   3   4
ENDBRANCH   2   3
ENDBRANCH   1   2
BRANCH   1  12
ATOM     12  C   UNL     1       2.075   9.294  18.139  0.00  0.00    +0.000 C 
BRANCH  12  13
ATOM     13  N   UNL     1       0.752   9.684  17.677  0.00  0.00    +0.000 N 
ATOM     14  C   UNL     1      -0.248   9.921  18.599  0.00  0.00    +0.000 C 
ATOM     15  O   UNL     1      -0.183   9.850  19.805  0.00  0.00    +0.000 OA
ATOM     16  N   UNL     1      -1.424  10.383  17.990  0.00  0.00    +0.000 N 
ATOM     17  C   UNL     1      -2.198   9.772  17.029  0.00  0.00    +0.000 A 
ATOM     18  C   UNL     1      -3.262  10.621  16.814  0.00  0.00    +0.000 A 
ATOM     19  N   UNL     1      -3.160  11.735  17.597  0.00  0.00    +0.000 NA
ATOM     20  C   UNL     1      -2.077  11.547  18.324  0.00  0.00    +0.000 A 
ATOM     21  H   UNL     1       0.658  10.035  16.729  0.00  0.00    +0.000 HD
ENDBRANCH  12  13
ENDBRANCH   1  12
TORSDOF 11
ENDMDL
MODEL 9
REMARK VINA RESULT:      -5.6      5.210      7.353
REMARK  Name = 
REMARK  12 active torsions:
REMARK  status: ('A' for Active; 'I' for Inactive)
REMARK    1  A    between atoms: C_1  and  C_2
REMARK    2  A    between atoms: C_2  and  C_3
REMARK    3  A    between atoms: C_3  and  C_4
REMARK    4  A    between atoms: C_4  and  C_5
REMARK    5  A    between atoms: C_5  and  C_6
REMARK    6  A    between atoms: C_6  and  C_7
REMARK    7  A    between atoms: C_7  and  C_8
REMARK    8  A    between atoms: C_8  and  C_9
REMARK    9  A    between atoms: C_9  and  C_10
REMARK   10  A    between atoms: C_10  and  C_11
REMARK   11  A    between atoms: C_11  and  C_12
REMARK   12  A    between atoms: C_12  and  N_13
REMARK                            x       y       z     vdW  Elec       q    Type
REMARK                         _______ _______ _______ _____ _____    ______ ____
ROOT
ATOM      1  C   UNL     1       7.458   5.766  18.514  0.00  0.00    +0.000 C 
ENDROOT
BRANCH   1   2
ATOM      2  C   UNL     1       6.841   6.982  17.823  0.00  0.00    +0.000 C 
BRANCH   2   3
ATOM      3  C   UNL     1       7.920   7.851  17.185  0.00  0.00    +0.000 C 
BRANCH   3   4
ATOM      4  C   UNL     1       7.961   9.226  17.838  0.00  0.00    +0.000 C 
BRANCH   4   5
ATOM      5  C   UNL     1       8.960   9.237  18.984  0.00  0.00    +0.000 C 
BRANCH   5   6
ATOM      6  C   UNL     1       9.375  10.663  19.307  0.00  0.00    +0.000 C 
BRANCH   6   7
ATOM      7  C   UNL     1       9.456  11.490  18.034  0.00  0.00    +0.000 C 
BRANCH   7   8
ATOM      8  C   UNL     1      10.337  12.710  18.253  0.00  0.00    +0.000 C 
BRANCH   8   9
ATOM      9  C   UNL     1      11.765  12.415  17.821  0.00  0.00    +0.000 C 
BRANCH   9  11
ATOM     10  C   UNL     1      11.846  14.801  17.091  0.00  0.00    +0.000 C 
ATOM     11  C   UNL     1      12.204  13.374  16.722  0.00  0.00    +0.000 C 
ENDBRANCH   9  11
ENDBRANCH   8   9
ENDBRANCH   7   8
ENDBRANCH   6   7
ENDBRANCH   5   6
ENDBRANCH   4   5
ENDBRANCH   3   4
ENDBRANCH   2   3
ENDBRANCH   1   2
BRANCH   1  12
ATOM     12  C   UNL     1       6.990   4.466  17.861  0.00  0.00    +0.000 C 
BRANCH  12  13
ATOM     13  N   UNL     1       5.831   3.889  18.524  0.00  0.00    +0.000 N 
ATOM     14  C   UNL     1       4.587   3.995  17.934  0.00  0.00    +0.000 C 
ATOM     15  O   UNL     1       4.301   4.529  16.886  0.00  0.00    +0.000 OA
ATOM     16  N   UNL     1       3.604   3.299  18.653  0.00  0.00    +0.000 N 
ATOM     17  C   UNL     1       3.206   3.468  19.960  0.00  0.00    +0.000 A 
ATOM     18  C   UNL     1       2.180   2.570  20.155  0.00  0.00    +0.000 A 
ATOM     19  N   UNL     1       1.944   1.848  19.020  0.00  0.00    +0.000 NA
ATOM     20  C   UNL     1       2.778   2.335  18.123  0.00  0.00    +0.000 A 
ATOM     21  H   UNL     1       5.987   3.196  19.250  0.00  0.00    +0.000 HD
ENDBRANCH  12  13
ENDBRANCH   1  12
TORSDOF 11
ENDMDL
