MODEL 1
REMARK VINA RESULT:      -8.8      0.000      0.000
REMARK  Name = 
REMARK  5 active torsions:
REMARK  status: ('A' for Active; 'I' for Inactive)
REMARK    1  A    between atoms: C_4  and  C_5
REMARK    2  A    between atoms: N_13  and  C_14
REMARK    3  A    between atoms: C_14  and  C_15
REMARK    4  A    between atoms: C_15  and  C_16
REMARK    5  A    between atoms: C_19  and  N_20
REMARK                            x       y       z     vdW  Elec       q    Type
REMARK                         _______ _______ _______ _____ _____    ______ ____
ROOT
ATOM      1  C   UNL     1       3.499   5.469  17.725  0.00  0.00    +0.000 C 
ENDROOT
BRANCH   1   8
ATOM      2  O   UNL     1       5.534   3.572  18.614  0.00  0.00    +0.000 OA
ATOM      3  C   UNL     1       5.746   4.384  17.728  0.00  0.00    +0.000 C 
ATOM      4  C   UNL     1       7.060   4.530  17.013  0.00  0.00    +0.000 C 
ATOM      5  C   UNL     1       6.775   5.549  15.910  0.00  0.00    +0.000 C 
ATOM      6  C   UNL     1       5.397   6.073  16.248  0.00  0.00    +0.000 C 
ATOM      7  O   UNL     1       4.839   7.004  15.681  0.00  0.00    +0.000 OA
ATOM      8  N   UNL     1       4.868   5.311  17.251  0.00  0.00    +0.000 N 
BRANCH   5   9
ATOM      9  C   UNL     1       6.817   4.940  14.523  0.00  0.00    +0.000 A 
ATOM     10  C   UNL     1       5.939   3.903  14.165  0.00  0.00    +0.000 A 
ATOM     11  C   UNL     1       5.973   3.350  12.887  0.00  0.00    +0.000 A 
ATOM     12  C   UNL     1       6.883   3.828  11.950  0.00  0.00    +0.000 A 
ATOM     13  C   UNL     1       7.759   4.857  12.287  0.00  0.00    +0.000 A 
ATOM     14  C   UNL     1       7.728   5.411  13.569  0.00  0.00    +0.000 A 
ENDBRANCH   5   9
ENDBRANCH   1   8
BRANCH   1  15
ATOM     15  C   UNL     1       3.433   6.158  19.094  0.00  0.00    +0.000 C 
BRANCH  15  16
ATOM     16  C   UNL     1       2.550   7.382  19.075  0.00  0.00    +0.000 A 
ATOM     17  C   UNL     1       1.864   7.800  20.218  0.00  0.00    +0.000 A 
ATOM     18  C   UNL     1       1.051   8.942  20.181  0.00  0.00    +0.000 A 
ATOM     19  C   UNL     1       0.884   9.679  19.001  0.00  0.00    +0.000 A 
ATOM     20  C   UNL     1       1.561   9.237  17.856  0.00  0.00    +0.000 A 
ATOM     21  C   UNL     1       2.392   8.111  17.894  0.00  0.00    +0.000 A 
BRANCH  19  22
ATOM     22  N   UNL     1       0.067  10.841  18.964  0.00  0.00    +0.000 N 
ATOM     23  C   UNL     1      -1.211  10.895  18.479  0.00  0.00    +0.000 C 
ATOM     24  O   UNL     1      -1.935  10.030  18.017  0.00  0.00    +0.000 OA
ATOM     25  C   UNL     1      -1.689  12.272  18.652  0.00  0.00    +0.000 C 
ATOM     26  C   UNL     1      -0.711  12.978  19.210  0.00  0.00    +0.000 C 
ATOM     27  C   UNL     1       0.429  12.080  19.421  0.00  0.00    +0.000 C 
ATOM     28  O   UNL     1       1.478  12.492  19.889  0.00  0.00    +0.000 OA
ENDBRANCH  19  22
ENDBRANCH  15  16
ENDBRANCH   1  15
TORSDOF 5
ENDMDL
MODEL 2
REMARK VINA RESULT:      -8.7      0.277      1.427
REMARK  Name = 
REMARK  5 active torsions:
REMARK  status: ('A' for Active; 'I' for Inactive)
REMARK    1  A    between atoms: C_4  and  C_5
REMARK    2  A    between atoms: N_13  and  C_14
REMARK    3  A    between atoms: C_14  and  C_15
REMARK    4  A    between atoms: C_15  and  C_16
REMARK    5  A    between atoms: C_19  and  N_20
REMARK                            x       y       z     vdW  Elec       q    Type
REMARK                         _______ _______ _______ _____ _____    ______ ____
ROOT
ATOM      1  C   UNL     1       3.418   5.305  17.976  0.00  0.00    +0.000 C 
ENDROOT
BRANCH   1   8
ATOM      2  O   UNL     1       5.603   3.568  18.834  0.00  0.00    +0.000 OA
ATOM      3  C   UNL     1       5.737   4.385  17.937  0.00  0.00    +0.000 C 
ATOM      4  C   UNL     1       7.021   4.619  17.192  0.00  0.00    +0.000 C 
ATOM      5  C   UNL     1       6.640   5.605  16.088  0.00  0.00    +0.000 C 
ATOM      6  C   UNL     1       5.234   6.031  16.454  0.00  0.00    +0.000 C 
ATOM      7  O   UNL     1       4.599   6.915  15.893  0.00  0.00    +0.000 OA
ATOM      8  N   UNL     1       4.784   5.242  17.473  0.00  0.00    +0.000 N 
BRANCH   5   9
ATOM      9  C   UNL     1       6.696   4.989  14.706  0.00  0.00    +0.000 A 
ATOM     10  C   UNL     1       5.768   4.007  14.316  0.00  0.00    +0.000 A 
ATOM     11  C   UNL     1       5.815   3.448  13.042  0.00  0.00    +0.000 A 
ATOM     12  C   UNL     1       6.788   3.864  12.139  0.00  0.00    +0.000 A 
ATOM     13  C   UNL     1       7.713   4.837  12.507  0.00  0.00    +0.000 A 
ATOM     14  C   UNL     1       7.670   5.398  13.786  0.00  0.00    +0.000 A 
ENDBRANCH   5   9
ENDBRANCH   1   8
BRANCH   1  15
ATOM     15  C   UNL     1       3.322   6.062  19.307  0.00  0.00    +0.000 C 
BRANCH  15  16
ATOM     16  C   UNL     1       2.494   7.319  19.190  0.00  0.00    +0.000 A 
ATOM     17  C   UNL     1       1.798   7.835  20.286  0.00  0.00    +0.000 A 
ATOM     18  C   UNL     1       1.037   9.005  20.159  0.00  0.00    +0.000 A 
ATOM     19  C   UNL     1       0.932   9.675  18.932  0.00  0.00    +0.000 A 
ATOM     20  C   UNL     1       1.617   9.135  17.834  0.00  0.00    +0.000 A 
ATOM     21  C   UNL     1       2.396   7.980  17.963  0.00  0.00    +0.000 A 
BRANCH  19  22
ATOM     22  N   UNL     1       0.167  10.866  18.803  0.00  0.00    +0.000 N 
ATOM     23  C   UNL     1       0.640  12.135  18.993  0.00  0.00    +0.000 C 
ATOM     24  O   UNL     1       1.753  12.547  19.273  0.00  0.00    +0.000 OA
ATOM     25  C   UNL     1      -0.469  13.061  18.736  0.00  0.00    +0.000 C 
ATOM     26  C   UNL     1      -1.539  12.339  18.418  0.00  0.00    +0.000 C 
ATOM     27  C   UNL     1      -1.155  10.924  18.452  0.00  0.00    +0.000 C 
ATOM     28  O   UNL     1      -1.970  10.044  18.233  0.00  0.00    +0.000 OA
ENDBRANCH  19  22
ENDBRANCH  15  16
ENDBRANCH   1  15
TORSDOF 5
ENDMDL
MODEL 3
REMARK VINA RESULT:      -8.7      0.520      1.743
REMARK  Name = 
REMARK  5 active torsions:
REMARK  status: ('A' for Active; 'I' for Inactive)
REMARK    1  A    between atoms: C_4  and  C_5
REMARK    2  A    between atoms: N_13  and  C_14
REMARK    3  A    between atoms: C_14  and  C_15
REMARK    4  A    between atoms: C_15  and  C_16
REMARK    5  A    between atoms: C_19  and  N_20
REMARK                            x       y       z     vdW  Elec       q    Type
REMARK                         _______ _______ _______ _____ _____    ______ ____
ROOT
ATOM      1  C   UNL     1       3.392   5.408  17.898  0.00  0.00    +0.000 C 
ENDROOT
BRANCH   1   8
ATOM      2  O   UNL     1       5.486   3.567  18.767  0.00  0.00    +0.000 OA
ATOM      3  C   UNL     1       5.668   4.385  17.880  0.00  0.00    +0.000 C 
ATOM      4  C   UNL     1       6.971   4.567  17.153  0.00  0.00    +0.000 C 
ATOM      5  C   UNL     1       6.650   5.578  16.054  0.00  0.00    +0.000 C 
ATOM      6  C   UNL     1       5.260   6.064  16.405  0.00  0.00    +0.000 C 
ATOM      7  O   UNL     1       4.673   6.980  15.843  0.00  0.00    +0.000 OA
ATOM      8  N   UNL     1       4.762   5.287  17.411  0.00  0.00    +0.000 N 
BRANCH   5   9
ATOM      9  C   UNL     1       6.696   4.972  14.667  0.00  0.00    +0.000 A 
ATOM     10  C   UNL     1       5.766   3.992  14.277  0.00  0.00    +0.000 A 
ATOM     11  C   UNL     1       5.805   3.441  12.999  0.00  0.00    +0.000 A 
ATOM     12  C   UNL     1       6.771   3.864  12.092  0.00  0.00    +0.000 A 
ATOM     13  C   UNL     1       7.698   4.835  12.460  0.00  0.00    +0.000 A 
ATOM     14  C   UNL     1       7.663   5.387  13.743  0.00  0.00    +0.000 A 
ENDBRANCH   5   9
ENDBRANCH   1   8
BRANCH   1  15
ATOM     15  C   UNL     1       3.329   5.974  19.322  0.00  0.00    +0.000 C 
BRANCH  15  16
ATOM     16  C   UNL     1       2.475   7.216  19.405  0.00  0.00    +0.000 A 
ATOM     17  C   UNL     1       2.364   8.094  18.324  0.00  0.00    +0.000 A 
ATOM     18  C   UNL     1       1.562   9.241  18.419  0.00  0.00    +0.000 A 
ATOM     19  C   UNL     1       0.872   9.550  19.598  0.00  0.00    +0.000 A 
ATOM     20  C   UNL     1       1.008   8.672  20.683  0.00  0.00    +0.000 A 
ATOM     21  C   UNL     1       1.789   7.515  20.585  0.00  0.00    +0.000 A 
BRANCH  19  22
ATOM     22  N   UNL     1       0.053  10.708  19.694  0.00  0.00    +0.000 N 
ATOM     23  C   UNL     1       0.350  11.830  20.417  0.00  0.00    +0.000 C 
ATOM     24  O   UNL     1       1.324  12.121  21.090  0.00  0.00    +0.000 OA
ATOM     25  C   UNL     1      -0.749  12.783  20.221  0.00  0.00    +0.000 C 
ATOM     26  C   UNL     1      -1.644  12.216  19.418  0.00  0.00    +0.000 C 
ATOM     27  C   UNL     1      -1.150  10.881  19.065  0.00  0.00    +0.000 C 
ATOM     28  O   UNL     1      -1.808  10.131  18.362  0.00  0.00    +0.000 OA
ENDBRANCH  19  22
ENDBRANCH  15  16
ENDBRANCH   1  15
TORSDOF 5
ENDMDL
MODEL 4
REMARK VINA RESULT:      -8.7      0.506      1.036
REMARK  Name = 
REMARK  5 active torsions:
REMARK  status: ('A' for Active; 'I' for Inactive)
REMARK    1  A    between atoms: C_4  and  C_5
REMARK    2  A    between atoms: N_13  and  C_14
REMARK    3  A    between atoms: C_14  and  C_15
REMARK    4  A    between atoms: C_15  and  C_16
REMARK    5  A    between atoms: C_19  and  N_20
REMARK                            x       y       z     vdW  Elec       q    Type
REMARK                         _______ _______ _______ _____ _____    ______ ____
ROOT
ATOM      1  C   UNL     1       3.420   5.602  17.667  0.00  0.00    +0.000 C 
ENDROOT
BRANCH   1   8
ATOM      2  O   UNL     1       5.322   3.581  18.579  0.00  0.00    +0.000 OA
ATOM      3  C   UNL     1       5.601   4.390  17.708  0.00  0.00    +0.000 C 
ATOM      4  C   UNL     1       6.938   4.468  17.026  0.00  0.00    +0.000 C 
ATOM      5  C   UNL     1       6.739   5.514  15.929  0.00  0.00    +0.000 C 
ATOM      6  C   UNL     1       5.384   6.113  16.242  0.00  0.00    +0.000 C 
ATOM      7  O   UNL     1       4.895   7.081  15.674  0.00  0.00    +0.000 OA
ATOM      8  N   UNL     1       4.790   5.371  17.222  0.00  0.00    +0.000 N 
BRANCH   5   9
ATOM      9  C   UNL     1       6.779   4.920  14.537  0.00  0.00    +0.000 A 
ATOM     10  C   UNL     1       5.890   3.897  14.164  0.00  0.00    +0.000 A 
ATOM     11  C   UNL     1       5.923   3.357  12.881  0.00  0.00    +0.000 A 
ATOM     12  C   UNL     1       6.842   3.834  11.952  0.00  0.00    +0.000 A 
ATOM     13  C   UNL     1       7.729   4.849  12.304  0.00  0.00    +0.000 A 
ATOM     14  C   UNL     1       7.700   5.390  13.591  0.00  0.00    +0.000 A 
ENDBRANCH   5   9
ENDBRANCH   1   8
BRANCH   1  15
ATOM     15  C   UNL     1       3.356   6.111  19.112  0.00  0.00    +0.000 C 
BRANCH  15  16
ATOM     16  C   UNL     1       2.481   7.333  19.248  0.00  0.00    +0.000 A 
ATOM     17  C   UNL     1       2.300   8.219  18.182  0.00  0.00    +0.000 A 
ATOM     18  C   UNL     1       1.480   9.347  18.326  0.00  0.00    +0.000 A 
ATOM     19  C   UNL     1       0.840   9.631  19.540  0.00  0.00    +0.000 A 
ATOM     20  C   UNL     1       1.046   8.746  20.608  0.00  0.00    +0.000 A 
ATOM     21  C   UNL     1       1.845   7.607  20.462  0.00  0.00    +0.000 A 
BRANCH  19  22
ATOM     22  N   UNL     1       0.002  10.770  19.686  0.00  0.00    +0.000 N 
ATOM     23  C   UNL     1      -1.214  10.941  19.082  0.00  0.00    +0.000 C 
ATOM     24  O   UNL     1      -1.857  10.213  18.345  0.00  0.00    +0.000 OA
ATOM     25  C   UNL     1      -1.744  12.236  19.522  0.00  0.00    +0.000 C 
ATOM     26  C   UNL     1      -0.855  12.786  20.342  0.00  0.00    +0.000 C 
ATOM     27  C   UNL     1       0.277  11.861  20.465  0.00  0.00    +0.000 C 
ATOM     28  O   UNL     1       1.255  12.147  21.137  0.00  0.00    +0.000 OA
ENDBRANCH  19  22
ENDBRANCH  15  16
ENDBRANCH   1  15
TORSDOF 5
ENDMDL
MODEL 5
REMARK VINA RESULT:      -8.2      5.758      7.589
REMARK  Name = 
REMARK  5 active torsions:
REMARK  status: ('A' for Active; 'I' for Inactive)
REMARK    1  A    between atoms: C_4  and  C_5
REMARK    2  A    between atoms: N_13  and  C_14
REMARK    3  A    between atoms: C_14  and  C_15
REMARK    4  A    between atoms: C_15  and  C_16
REMARK    5  A    between atoms: C_19  and  N_20
REMARK                            x       y       z     vdW  Elec       q    Type
REMARK                         _______ _______ _______ _____ _____    ______ ____
ROOT
ATOM      1  C   UNL     1       7.413   6.955  18.183  0.00  0.00    +0.000 C 
ENDROOT
BRANCH   1   8
ATOM      2  O   UNL     1       8.132   4.293  17.220  0.00  0.00    +0.000 OA
ATOM      3  C   UNL     1       6.993   4.725  17.146  0.00  0.00    +0.000 C 
ATOM      4  C   UNL     1       5.843   3.971  16.539  0.00  0.00    +0.000 C 
ATOM      5  C   UNL     1       4.626   4.852  16.824  0.00  0.00    +0.000 C 
ATOM      6  C   UNL     1       5.225   6.138  17.349  0.00  0.00    +0.000 C 
ATOM      7  O   UNL     1       4.597   7.163  17.584  0.00  0.00    +0.000 OA
ATOM      8  N   UNL     1       6.562   5.950  17.558  0.00  0.00    +0.000 N 
BRANCH   5   9
ATOM      9  C   UNL     1       3.673   4.230  17.823  0.00  0.00    +0.000 A 
ATOM     10  C   UNL     1       4.157   3.572  18.967  0.00  0.00    +0.000 A 
ATOM     11  C   UNL     1       3.279   3.008  19.890  0.00  0.00    +0.000 A 
ATOM     12  C   UNL     1       1.907   3.096  19.682  0.00  0.00    +0.000 A 
ATOM     13  C   UNL     1       1.410   3.746  18.556  0.00  0.00    +0.000 A 
ATOM     14  C   UNL     1       2.288   4.310  17.628  0.00  0.00    +0.000 A 
ENDBRANCH   5   9
ENDBRANCH   1   8
BRANCH   1  15
ATOM     15  C   UNL     1       7.796   8.078  17.212  0.00  0.00    +0.000 C 
BRANCH  15  16
ATOM     16  C   UNL     1       8.310   9.303  17.930  0.00  0.00    +0.000 A 
ATOM     17  C   UNL     1       8.142  10.582  17.394  0.00  0.00    +0.000 A 
ATOM     18  C   UNL     1       8.622  11.708  18.077  0.00  0.00    +0.000 A 
ATOM     19  C   UNL     1       9.300  11.584  19.298  0.00  0.00    +0.000 A 
ATOM     20  C   UNL     1       9.480  10.293  19.815  0.00  0.00    +0.000 A 
ATOM     21  C   UNL     1       8.983   9.169  19.147  0.00  0.00    +0.000 A 
BRANCH  19  22
ATOM     22  N   UNL     1       9.781  12.725  19.996  0.00  0.00    +0.000 N 
ATOM     23  C   UNL     1      10.893  13.448  19.661  0.00  0.00    +0.000 C 
ATOM     24  O   UNL     1      11.681  13.332  18.738  0.00  0.00    +0.000 OA
ATOM     25  C   UNL     1      11.010  14.546  20.626  0.00  0.00    +0.000 C 
ATOM     26  C   UNL     1      10.001  14.446  21.486  0.00  0.00    +0.000 C 
ATOM     27  C   UNL     1       9.196  13.282  21.101  0.00  0.00    +0.000 C 
ATOM     28  O   UNL     1       8.223  12.944  21.756  0.00  0.00    +0.000 OA
ENDBRANCH  19  22
ENDBRANCH  15  16
ENDBRANCH   1  15
TORSDOF 5
ENDMDL
MODEL 6
REMARK VINA RESULT:      -8.2      5.769      7.515
REMARK  Name = 
REMARK  5 active torsions:
REMARK  status: ('A' for Active; 'I' for Inactive)
REMARK    1  A    between atoms: C_4  and  C_5
REMARK    2  A    between atoms: N_13  and  C_14
REMARK    3  A    between atoms: C_14  and  C_15
REMARK    4  A    between atoms: C_15  and  C_16
REMARK    5  A    between atoms: C_19  and  N_20
REMARK                            x       y       z     vdW  Elec       q    Type
REMARK                         _______ _______ _______ _____ _____    ______ ____
ROOT
ATOM      1  C   UNL     1       7.454   6.942  18.163  0.00  0.00    +0.000 C 
ENDROOT
BRANCH   1   8
ATOM      2  O   UNL     1       8.162   4.259  17.251  0.00  0.00    +0.000 OA
ATOM      3  C   UNL     1       7.026   4.698  17.160  0.00  0.00    +0.000 C 
ATOM      4  C   UNL     1       5.875   3.942  16.556  0.00  0.00    +0.000 C 
ATOM      5  C   UNL     1       4.663   4.836  16.816  0.00  0.00    +0.000 C 
ATOM      6  C   UNL     1       5.267   6.127  17.325  0.00  0.00    +0.000 C 
ATOM      7  O   UNL     1       4.644   7.160  17.537  0.00  0.00    +0.000 OA
ATOM      8  N   UNL     1       6.600   5.932  17.548  0.00  0.00    +0.000 N 
BRANCH   5   9
ATOM      9  C   UNL     1       3.697   4.238  17.818  0.00  0.00    +0.000 A 
ATOM     10  C   UNL     1       2.311   4.436  17.690  0.00  0.00    +0.000 A 
ATOM     11  C   UNL     1       1.424   3.879  18.607  0.00  0.00    +0.000 A 
ATOM     12  C   UNL     1       1.909   3.114  19.663  0.00  0.00    +0.000 A 
ATOM     13  C   UNL     1       3.279   2.905  19.803  0.00  0.00    +0.000 A 
ATOM     14  C   UNL     1       4.171   3.465  18.886  0.00  0.00    +0.000 A 
ENDBRANCH   5   9
ENDBRANCH   1   8
BRANCH   1  15
ATOM     15  C   UNL     1       7.766   8.100  17.207  0.00  0.00    +0.000 C 
BRANCH  15  16
ATOM     16  C   UNL     1       8.309   9.308  17.933  0.00  0.00    +0.000 A 
ATOM     17  C   UNL     1       8.965   9.183  19.160  0.00  0.00    +0.000 A 
ATOM     18  C   UNL     1       9.466  10.316  19.817  0.00  0.00    +0.000 A 
ATOM     19  C   UNL     1       9.305  11.600  19.279  0.00  0.00    +0.000 A 
ATOM     20  C   UNL     1       8.626  11.714  18.057  0.00  0.00    +0.000 A 
ATOM     21  C   UNL     1       8.145  10.583  17.387  0.00  0.00    +0.000 A 
BRANCH  19  22
ATOM     22  N   UNL     1       9.818  12.749  19.939  0.00  0.00    +0.000 N 
ATOM     23  C   UNL     1       9.250  13.359  21.024  0.00  0.00    +0.000 C 
ATOM     24  O   UNL     1       8.254  13.086  21.672  0.00  0.00    +0.000 OA
ATOM     25  C   UNL     1      10.113  14.485  21.396  0.00  0.00    +0.000 C 
ATOM     26  C   UNL     1      11.134  14.518  20.546  0.00  0.00    +0.000 C 
ATOM     27  C   UNL     1      10.968  13.410  19.599  0.00  0.00    +0.000 C 
ATOM     28  O   UNL     1      11.757  13.238  18.685  0.00  0.00    +0.000 OA
ENDBRANCH  19  22
ENDBRANCH  15  16
ENDBRANCH   1  15
TORSDOF 5
ENDMDL
MODEL 7
REMARK VINA RESULT:      -8.0      4.201      6.536
REMARK  Name = 
REMARK  5 active torsions:
REMARK  status: ('A' for Active; 'I' for Inactive)
REMARK    1  A    between atoms: C_4  and  C_5
REMARK    2  A    between atoms: N_13  and  C_14
REMARK    3  A    between atoms: C_14  and  C_15
REMARK    4  A    between atoms: C_15  and  C_16
REMARK    5  A    between atoms: C_19  and  N_20
REMARK                            x       y       z     vdW  Elec       q    Type
REMARK                         _______ _______ _______ _____ _____    ______ ____
ROOT
ATOM      1  C   UNL     1       0.548  10.141  18.547  0.00  0.00    +0.000 C 
ENDROOT
BRANCH   1   8
ATOM      2  O   UNL     1       0.006   9.417  21.324  0.00  0.00    +0.000 OA
ATOM      3  C   UNL     1       0.836   8.828  20.649  0.00  0.00    +0.000 C 
ATOM      4  C   UNL     1       1.688   7.698  21.156  0.00  0.00    +0.000 C 
ATOM      5  C   UNL     1       2.434   7.207  19.915  0.00  0.00    +0.000 C 
ATOM      6  C   UNL     1       2.126   8.256  18.869  0.00  0.00    +0.000 C 
ATOM      7  O   UNL     1       2.633   8.308  17.756  0.00  0.00    +0.000 OA
ATOM      8  N   UNL     1       1.165   9.095  19.354  0.00  0.00    +0.000 N 
BRANCH   5   9
ATOM      9  C   UNL     1       1.992   5.827  19.472  0.00  0.00    +0.000 A 
ATOM     10  C   UNL     1       1.392   4.937  20.380  0.00  0.00    +0.000 A 
ATOM     11  C   UNL     1       0.979   3.672  19.969  0.00  0.00    +0.000 A 
ATOM     12  C   UNL     1       1.156   3.282  18.646  0.00  0.00    +0.000 A 
ATOM     13  C   UNL     1       1.745   4.152  17.733  0.00  0.00    +0.000 A 
ATOM     14  C   UNL     1       2.164   5.420  18.143  0.00  0.00    +0.000 A 
ENDBRANCH   5   9
ENDBRANCH   1   8
BRANCH   1  15
ATOM     15  C   UNL     1      -0.604   9.607  17.686  0.00  0.00    +0.000 C 
BRANCH  15  16
ATOM     16  C   UNL     1      -1.913  10.293  17.996  0.00  0.00    +0.000 A 
ATOM     17  C   UNL     1      -3.130   9.769  17.553  0.00  0.00    +0.000 A 
ATOM     18  C   UNL     1      -4.336  10.418  17.854  0.00  0.00    +0.000 A 
ATOM     19  C   UNL     1      -4.355  11.615  18.583  0.00  0.00    +0.000 A 
ATOM     20  C   UNL     1      -3.126  12.142  19.004  0.00  0.00    +0.000 A 
ATOM     21  C   UNL     1      -1.922  11.485  18.724  0.00  0.00    +0.000 A 
BRANCH  19  22
ATOM     22  N   UNL     1      -5.577  12.271  18.896  0.00  0.00    +0.000 N 
ATOM     23  C   UNL     1      -6.351  12.968  18.009  0.00  0.00    +0.000 C 
ATOM     24  O   UNL     1      -6.224  13.169  16.814  0.00  0.00    +0.000 OA
ATOM     25  C   UNL     1      -7.524  13.457  18.742  0.00  0.00    +0.000 C 
ATOM     26  C   UNL     1      -7.416  13.058  20.005  0.00  0.00    +0.000 C 
ATOM     27  C   UNL     1      -6.171  12.291  20.129  0.00  0.00    +0.000 C 
ATOM     28  O   UNL     1      -5.813  11.841  21.204  0.00  0.00    +0.000 OA
ENDBRANCH  19  22
ENDBRANCH  15  16
ENDBRANCH   1  15
TORSDOF 5
ENDMDL
MODEL 8
REMARK VINA RESULT:      -8.0      1.764      2.977
REMARK  Name = 
REMARK  5 active torsions:
REMARK  status: ('A' for Active; 'I' for Inactive)
REMARK    1  A    between atoms: C_4  and  C_5
REMARK    2  A    between atoms: N_13  and  C_14
REMARK    3  A    between atoms: C_14  and  C_15
REMARK    4  A    between atoms: C_15  and  C_16
REMARK    5  A    between atoms: C_19  and  N_20
REMARK                            x       y       z     vdW  Elec       q    Type
REMARK                         _______ _______ _______ _____ _____    ______ ____
ROOT
ATOM      1  C   UNL     1       2.340   6.261  19.263  0.00  0.00    +0.000 C 
ENDROOT
BRANCH   1   8
ATOM      2  O   UNL     1       1.044   4.301  17.528  0.00  0.00    +0.000 OA
ATOM      3  C   UNL     1       2.234   4.247  17.794  0.00  0.00    +0.000 C 
ATOM      4  C   UNL     1       3.162   3.173  17.297  0.00  0.00    +0.000 C 
ATOM      5  C   UNL     1       4.544   3.627  17.765  0.00  0.00    +0.000 C 
ATOM      6  C   UNL     1       4.250   4.786  18.693  0.00  0.00    +0.000 C 
ATOM      7  O   UNL     1       5.080   5.363  19.384  0.00  0.00    +0.000 OA
ATOM      8  N   UNL     1       2.926   5.104  18.595  0.00  0.00    +0.000 N 
BRANCH   5   9
ATOM      9  C   UNL     1       5.444   4.043  16.620  0.00  0.00    +0.000 A 
ATOM     10  C   UNL     1       5.000   3.962  15.289  0.00  0.00    +0.000 A 
ATOM     11  C   UNL     1       5.825   4.353  14.237  0.00  0.00    +0.000 A 
ATOM     12  C   UNL     1       7.105   4.831  14.502  0.00  0.00    +0.000 A 
ATOM     13  C   UNL     1       7.560   4.919  15.815  0.00  0.00    +0.000 A 
ATOM     14  C   UNL     1       6.735   4.526  16.871  0.00  0.00    +0.000 A 
ENDBRANCH   5   9
ENDBRANCH   1   8
BRANCH   1  15
ATOM     15  C   UNL     1       2.578   7.563  18.488  0.00  0.00    +0.000 C 
BRANCH  15  16
ATOM     16  C   UNL     1       1.693   8.685  18.973  0.00  0.00    +0.000 A 
ATOM     17  C   UNL     1       1.177   8.694  20.271  0.00  0.00    +0.000 A 
ATOM     18  C   UNL     1       0.360   9.748  20.705  0.00  0.00    +0.000 A 
ATOM     19  C   UNL     1       0.020  10.805  19.849  0.00  0.00    +0.000 A 
ATOM     20  C   UNL     1       0.528  10.774  18.542  0.00  0.00    +0.000 A 
ATOM     21  C   UNL     1       1.362   9.735  18.113  0.00  0.00    +0.000 A 
BRANCH  19  22
ATOM     22  N   UNL     1      -0.801  11.878  20.289  0.00  0.00    +0.000 N 
ATOM     23  C   UNL     1      -0.444  12.820  21.215  0.00  0.00    +0.000 C 
ATOM     24  O   UNL     1       0.593  12.990  21.833  0.00  0.00    +0.000 OA
ATOM     25  C   UNL     1      -1.572  13.748  21.354  0.00  0.00    +0.000 C 
ATOM     26  C   UNL     1      -2.541  13.342  20.539  0.00  0.00    +0.000 C 
ATOM     27  C   UNL     1      -2.068  12.140  19.842  0.00  0.00    +0.000 C 
ATOM     28  O   UNL     1      -2.787  11.543  19.058  0.00  0.00    +0.000 OA
ENDBRANCH  19  22
ENDBRANCH  15  16
ENDBRANCH   1  15
TORSDOF 5
ENDMDL
MODEL 9
REMARK VINA RESULT:      -8.0      6.075      7.575
REMARK  Name = 
REMARK  5 active torsions:
REMARK  status: ('A' for Active; 'I' for Inactive)
REMARK    1  A    between atoms: C_4  and  C_5
REMARK    2  A    between atoms: N_13  and  C_14
REMARK    3  A    between atoms: C_14  and  C_15
REMARK    4  A    between atoms: C_15  and  C_16
REMARK    5  A    between atoms: C_19  and  N_20
REMARK                            x       y       z     vdW  Elec       q    Type
REMARK                         _______ _______ _______ _____ _____    ______ ____
ROOT
ATOM      1  C   UNL     1       7.359   8.181  17.521  0.00  0.00    +0.000 C 
ENDROOT
BRANCH   1   8
ATOM      2  O   UNL     1       8.088   6.025  19.351  0.00  0.00    +0.000 OA
ATOM      3  C   UNL     1       7.348   5.845  18.397  0.00  0.00    +0.000 C 
ATOM      4  C   UNL     1       6.749   4.515  18.031  0.00  0.00    +0.000 C 
ATOM      5  C   UNL     1       5.793   4.838  16.883  0.00  0.00    +0.000 C 
ATOM      6  C   UNL     1       6.115   6.275  16.537  0.00  0.00    +0.000 C 
ATOM      7  O   UNL     1       5.657   6.888  15.581  0.00  0.00    +0.000 OA
ATOM      8  N   UNL     1       6.957   6.780  17.487  0.00  0.00    +0.000 N 
BRANCH   5   9
ATOM      9  C   UNL     1       4.338   4.667  17.266  0.00  0.00    +0.000 A 
ATOM     10  C   UNL     1       3.621   5.720  17.861  0.00  0.00    +0.000 A 
ATOM     11  C   UNL     1       2.280   5.564  18.204  0.00  0.00    +0.000 A 
ATOM     12  C   UNL     1       1.638   4.356  17.956  0.00  0.00    +0.000 A 
ATOM     13  C   UNL     1       2.332   3.303  17.365  0.00  0.00    +0.000 A 
ATOM     14  C   UNL     1       3.678   3.456  17.022  0.00  0.00    +0.000 A 
ENDBRANCH   5   9
ENDBRANCH   1   8
BRANCH   1  15
ATOM     15  C   UNL     1       8.538   8.425  18.472  0.00  0.00    +0.000 C 
BRANCH  15  16
ATOM     16  C   UNL     1       8.845   9.893  18.636  0.00  0.00    +0.000 A 
ATOM     17  C   UNL     1       8.487  10.824  17.657  0.00  0.00    +0.000 A 
ATOM     18  C   UNL     1       8.776  12.185  17.829  0.00  0.00    +0.000 A 
ATOM     19  C   UNL     1       9.449  12.647  18.969  0.00  0.00    +0.000 A 
ATOM     20  C   UNL     1       9.822  11.701  19.934  0.00  0.00    +0.000 A 
ATOM     21  C   UNL     1       9.514  10.345  19.776  0.00  0.00    +0.000 A 
BRANCH  19  22
ATOM     22  N   UNL     1       9.737  14.027  19.149  0.00  0.00    +0.000 N 
ATOM     23  C   UNL     1      10.900  14.648  18.783  0.00  0.00    +0.000 C 
ATOM     24  O   UNL     1      11.898  14.224  18.227  0.00  0.00    +0.000 OA
ATOM     25  C   UNL     1      10.767  16.068  19.128  0.00  0.00    +0.000 C 
ATOM     26  C   UNL     1       9.571  16.246  19.679  0.00  0.00    +0.000 C 
ATOM     27  C   UNL     1       8.888  14.947  19.704  0.00  0.00    +0.000 C 
ATOM     28  O   UNL     1       7.780  14.827  20.198  0.00  0.00    +0.000 OA
ENDBRANCH  19  22
ENDBRANCH  15  16
ENDBRANCH   1  15
TORSDOF 5
ENDMDL
