MODEL 1
REMARK VINA RESULT:      -8.5      0.000      0.000
REMARK  Name = 
REMARK  6 active torsions:
REMARK  status: ('A' for Active; 'I' for Inactive)
REMARK    1  A    between atoms: C_2  and  C_13
REMARK    2  A    between atoms: N_3  and  C_4
REMARK    3  A    between atoms: C_4  and  C_5
REMARK    4  A    between atoms: C_5  and  C_6
REMARK    5  A    between atoms: C_6  and  C_7
REMARK    6  A    between atoms: C_18  and  O_19
REMARK                            x       y       z     vdW  Elec       q    Type
REMARK                         _______ _______ _______ _____ _____    ______ ____
ROOT
ATOM      1  O   UNL     1       7.705   5.515  18.626  0.00  0.00    +0.000 OA
ATOM      2  C   UNL     1       6.725   6.028  18.083  0.00  0.00    +0.000 C 
ATOM      3  N   UNL     1       6.797   7.210  17.389  0.00  0.00    +0.000 N 
ATOM      4  H   UNL     1       5.942   7.600  16.991  0.00  0.00    +0.000 HD
ENDROOT
BRANCH   2   5
ATOM      5  C   UNL     1       5.377   5.374  18.135  0.00  0.00    +0.000 A 
ATOM      6  C   UNL     1       4.719   5.359  19.311  0.00  0.00    +0.000 A 
ATOM      7  C   UNL     1       3.424   4.693  19.412  0.00  0.00    +0.000 A 
ATOM      8  C   UNL     1       2.590   4.812  20.527  0.00  0.00    +0.000 A 
ATOM      9  C   UNL     1       1.378   4.110  20.575  0.00  0.00    +0.000 A 
ATOM     10  C   UNL     1       1.021   3.269  19.522  0.00  0.00    +0.000 A 
ATOM     11  C   UNL     1       1.839   3.138  18.410  0.00  0.00    +0.000 A 
ATOM     12  C   UNL     1       3.016   3.879  18.359  0.00  0.00    +0.000 A 
ATOM     13  O   UNL     1       3.748   3.827  17.164  0.00  0.00    +0.000 OA
ATOM     14  C   UNL     1       4.758   4.751  16.945  0.00  0.00    +0.000 A 
ATOM     15  O   UNL     1       5.152   4.995  15.805  0.00  0.00    +0.000 OA
BRANCH  10  16
ATOM     16  O   UNL     1      -0.144   2.562  19.534  0.00  0.00    +0.000 OA
ATOM     17  H   UNL     1      -0.417   2.384  18.619  0.00  0.00    +0.000 HD
ENDBRANCH  10  16
ENDBRANCH   2   5
BRANCH   3  18
ATOM     18  C   UNL     1       8.026   7.967  17.226  0.00  0.00    +0.000 C 
BRANCH  18  19
ATOM     19  C   UNL     1       8.271   8.937  18.382  0.00  0.00    +0.000 C 
BRANCH  19  20
ATOM     20  C   UNL     1       8.546  10.355  17.871  0.00  0.00    +0.000 C 
BRANCH  20  21
ATOM     21  C   UNL     1       9.699  11.019  18.587  0.00  0.00    +0.000 A 
ATOM     22  C   UNL     1       9.676  11.179  19.980  0.00  0.00    +0.000 A 
ATOM     23  C   UNL     1      10.733  11.811  20.640  0.00  0.00    +0.000 A 
ATOM     24  C   UNL     1      11.822  12.291  19.917  0.00  0.00    +0.000 A 
ATOM     25  C   UNL     1      11.860  12.132  18.533  0.00  0.00    +0.000 A 
ATOM     26  C   UNL     1      10.805  11.500  17.871  0.00  0.00    +0.000 A 
ENDBRANCH  20  21
ENDBRANCH  19  20
ENDBRANCH  18  19
ENDBRANCH   3  18
TORSDOF 6
ENDMDL
MODEL 2
REMARK VINA RESULT:      -8.5      1.390      2.146
REMARK  Name = 
REMARK  6 active torsions:
REMARK  status: ('A' for Active; 'I' for Inactive)
REMARK    1  A    between atoms: C_2  and  C_13
REMARK    2  A    between atoms: N_3  and  C_4
REMARK    3  A    between atoms: C_4  and  C_5
REMARK    4  A    between atoms: C_5  and  C_6
REMARK    5  A    between atoms: C_6  and  C_7
REMARK    6  A    between atoms: C_18  and  O_19
REMARK                            x       y       z     vdW  Elec       q    Type
REMARK                         _______ _______ _______ _____ _____    ______ ____
ROOT
ATOM      1  O   UNL     1       7.587   6.334  16.072  0.00  0.00    +0.000 OA
ATOM      2  C   UNL     1       7.118   6.583  17.183  0.00  0.00    +0.000 C 
ATOM      3  N   UNL     1       7.422   7.728  17.877  0.00  0.00    +0.000 N 
ATOM      4  H   UNL     1       7.027   7.858  18.808  0.00  0.00    +0.000 HD
ENDROOT
BRANCH   2   5
ATOM      5  C   UNL     1       6.158   5.643  17.849  0.00  0.00    +0.000 A 
ATOM      6  C   UNL     1       5.166   5.112  17.107  0.00  0.00    +0.000 A 
ATOM      7  C   UNL     1       4.186   4.226  17.730  0.00  0.00    +0.000 A 
ATOM      8  C   UNL     1       3.262   3.477  16.997  0.00  0.00    +0.000 A 
ATOM      9  C   UNL     1       2.320   2.680  17.662  0.00  0.00    +0.000 A 
ATOM     10  C   UNL     1       2.287   2.662  19.055  0.00  0.00    +0.000 A 
ATOM     11  C   UNL     1       3.195   3.402  19.796  0.00  0.00    +0.000 A 
ATOM     12  C   UNL     1       4.153   4.151  19.119  0.00  0.00    +0.000 A 
ATOM     13  O   UNL     1       5.137   4.777  19.898  0.00  0.00    +0.000 OA
ATOM     14  C   UNL     1       6.268   5.289  19.280  0.00  0.00    +0.000 A 
ATOM     15  O   UNL     1       7.300   5.486  19.920  0.00  0.00    +0.000 OA
BRANCH  10  16
ATOM     16  O   UNL     1       1.381   1.907  19.739  0.00  0.00    +0.000 OA
ATOM     17  H   UNL     1       0.485   2.156  19.459  0.00  0.00    +0.000 HD
ENDBRANCH  10  16
ENDBRANCH   2   5
BRANCH   3  18
ATOM     18  C   UNL     1       8.320   8.752  17.374  0.00  0.00    +0.000 C 
BRANCH  18  19
ATOM     19  C   UNL     1       8.254  10.040  18.195  0.00  0.00    +0.000 C 
BRANCH  19  20
ATOM     20  C   UNL     1       9.357  10.078  19.259  0.00  0.00    +0.000 C 
BRANCH  20  21
ATOM     21  C   UNL     1      10.349  11.195  19.029  0.00  0.00    +0.000 A 
ATOM     22  C   UNL     1      10.949  11.850  20.113  0.00  0.00    +0.000 A 
ATOM     23  C   UNL     1      11.851  12.896  19.901  0.00  0.00    +0.000 A 
ATOM     24  C   UNL     1      12.161  13.300  18.605  0.00  0.00    +0.000 A 
ATOM     25  C   UNL     1      11.577  12.652  17.518  0.00  0.00    +0.000 A 
ATOM     26  C   UNL     1      10.675  11.606  17.727  0.00  0.00    +0.000 A 
ENDBRANCH  20  21
ENDBRANCH  19  20
ENDBRANCH  18  19
ENDBRANCH   3  18
TORSDOF 6
ENDMDL
MODEL 3
REMARK VINA RESULT:      -8.4      1.193      1.599
REMARK  Name = 
REMARK  6 active torsions:
REMARK  status: ('A' for Active; 'I' for Inactive)
REMARK    1  A    between atoms: C_2  and  C_13
REMARK    2  A    between atoms: N_3  and  C_4
REMARK    3  A    between atoms: C_4  and  C_5
REMARK    4  A    between atoms: C_5  and  C_6
REMARK    5  A    between atoms: C_6  and  C_7
REMARK    6  A    between atoms: C_18  and  O_19
REMARK                            x       y       z     vdW  Elec       q    Type
REMARK                         _______ _______ _______ _____ _____    ______ ____
ROOT
ATOM      1  O   UNL     1       7.650   5.484  20.021  0.00  0.00    +0.000 OA
ATOM      2  C   UNL     1       6.978   5.802  19.038  0.00  0.00    +0.000 C 
ATOM      3  N   UNL     1       7.327   6.834  18.204  0.00  0.00    +0.000 N 
ATOM      4  H   UNL     1       6.709   7.070  17.427  0.00  0.00    +0.000 HD
ENDROOT
BRANCH   2   5
ATOM      5  C   UNL     1       5.725   5.059  18.680  0.00  0.00    +0.000 A 
ATOM      6  C   UNL     1       4.734   5.003  19.592  0.00  0.00    +0.000 A 
ATOM      7  C   UNL     1       3.517   4.252  19.297  0.00  0.00    +0.000 A 
ATOM      8  C   UNL     1       2.370   4.317  20.091  0.00  0.00    +0.000 A 
ATOM      9  C   UNL     1       1.251   3.535  19.773  0.00  0.00    +0.000 A 
ATOM     10  C   UNL     1       1.296   2.670  18.682  0.00  0.00    +0.000 A 
ATOM     11  C   UNL     1       2.429   2.591  17.886  0.00  0.00    +0.000 A 
ATOM     12  C   UNL     1       3.513   3.409  18.188  0.00  0.00    +0.000 A 
ATOM     13  O   UNL     1       4.585   3.403  17.285  0.00  0.00    +0.000 OA
ATOM     14  C   UNL     1       5.553   4.393  17.372  0.00  0.00    +0.000 A 
ATOM     15  O   UNL     1       6.269   4.660  16.408  0.00  0.00    +0.000 OA
BRANCH  10  16
ATOM     16  O   UNL     1       0.233   1.886  18.345  0.00  0.00    +0.000 OA
ATOM     17  H   UNL     1       0.359   1.551  17.442  0.00  0.00    +0.000 HD
ENDBRANCH  10  16
ENDBRANCH   2   5
BRANCH   3  18
ATOM     18  C   UNL     1       8.515   7.648  18.394  0.00  0.00    +0.000 C 
BRANCH  18  19
ATOM     19  C   UNL     1       8.268   9.123  18.079  0.00  0.00    +0.000 C 
BRANCH  19  20
ATOM     20  C   UNL     1       8.975  10.033  19.090  0.00  0.00    +0.000 C 
BRANCH  20  21
ATOM     21  C   UNL     1       9.509  11.298  18.460  0.00  0.00    +0.000 A 
ATOM     22  C   UNL     1      10.773  11.315  17.853  0.00  0.00    +0.000 A 
ATOM     23  C   UNL     1      11.275  12.490  17.288  0.00  0.00    +0.000 A 
ATOM     24  C   UNL     1      10.522  13.661  17.325  0.00  0.00    +0.000 A 
ATOM     25  C   UNL     1       9.262  13.657  17.919  0.00  0.00    +0.000 A 
ATOM     26  C   UNL     1       8.757  12.483  18.484  0.00  0.00    +0.000 A 
ENDBRANCH  20  21
ENDBRANCH  19  20
ENDBRANCH  18  19
ENDBRANCH   3  18
TORSDOF 6
ENDMDL
MODEL 4
REMARK VINA RESULT:      -8.4      1.165      1.527
REMARK  Name = 
REMARK  6 active torsions:
REMARK  status: ('A' for Active; 'I' for Inactive)
REMARK    1  A    between atoms: C_2  and  C_13
REMARK    2  A    between atoms: N_3  and  C_4
REMARK    3  A    between atoms: C_4  and  C_5
REMARK    4  A    between atoms: C_5  and  C_6
REMARK    5  A    between atoms: C_6  and  C_7
REMARK    6  A    between atoms: C_18  and  O_19
REMARK                            x       y       z     vdW  Elec       q    Type
REMARK                         _______ _______ _______ _____ _____    ______ ____
ROOT
ATOM      1  O   UNL     1       5.865   6.685  15.683  0.00  0.00    +0.000 OA
ATOM      2  C   UNL     1       5.908   6.487  16.899  0.00  0.00    +0.000 C 
ATOM      3  N   UNL     1       6.834   7.085  17.715  0.00  0.00    +0.000 N 
ATOM      4  H   UNL     1       6.839   6.852  18.708  0.00  0.00    +0.000 HD
ENDROOT
BRANCH   2   5
ATOM      5  C   UNL     1       4.924   5.576  17.572  0.00  0.00    +0.000 A 
ATOM      6  C   UNL     1       4.095   6.104  18.495  0.00  0.00    +0.000 A 
ATOM      7  C   UNL     1       3.154   5.241  19.203  0.00  0.00    +0.000 A 
ATOM      8  C   UNL     1       2.127   5.736  20.012  0.00  0.00    +0.000 A 
ATOM      9  C   UNL     1       1.286   4.849  20.698  0.00  0.00    +0.000 A 
ATOM     10  C   UNL     1       1.495   3.475  20.597  0.00  0.00    +0.000 A 
ATOM     11  C   UNL     1       2.512   2.969  19.801  0.00  0.00    +0.000 A 
ATOM     12  C   UNL     1       3.307   3.862  19.090  0.00  0.00    +0.000 A 
ATOM     13  O   UNL     1       4.233   3.312  18.191  0.00  0.00    +0.000 OA
ATOM     14  C   UNL     1       4.844   4.134  17.257  0.00  0.00    +0.000 A 
ATOM     15  O   UNL     1       5.341   3.664  16.235  0.00  0.00    +0.000 OA
BRANCH  10  16
ATOM     16  O   UNL     1       0.705   2.580  21.255  0.00  0.00    +0.000 OA
ATOM     17  H   UNL     1       0.857   1.693  20.889  0.00  0.00    +0.000 HD
ENDBRANCH  10  16
ENDBRANCH   2   5
BRANCH   3  18
ATOM     18  C   UNL     1       7.848   8.006  17.232  0.00  0.00    +0.000 C 
BRANCH  18  19
ATOM     19  C   UNL     1       8.495   8.807  18.362  0.00  0.00    +0.000 C 
BRANCH  19  20
ATOM     20  C   UNL     1       8.501  10.307  18.049  0.00  0.00    +0.000 C 
BRANCH  20  21
ATOM     21  C   UNL     1       9.687  11.023  18.652  0.00  0.00    +0.000 A 
ATOM     22  C   UNL     1      10.736  11.476  17.838  0.00  0.00    +0.000 A 
ATOM     23  C   UNL     1      11.843  12.120  18.398  0.00  0.00    +0.000 A 
ATOM     24  C   UNL     1      11.915  12.316  19.775  0.00  0.00    +0.000 A 
ATOM     25  C   UNL     1      10.877  11.877  20.593  0.00  0.00    +0.000 A 
ATOM     26  C   UNL     1       9.769  11.233  20.037  0.00  0.00    +0.000 A 
ENDBRANCH  20  21
ENDBRANCH  19  20
ENDBRANCH  18  19
ENDBRANCH   3  18
TORSDOF 6
ENDMDL
MODEL 5
REMARK VINA RESULT:      -8.3      0.963      1.362
REMARK  Name = 
REMARK  6 active torsions:
REMARK  status: ('A' for Active; 'I' for Inactive)
REMARK    1  A    between atoms: C_2  and  C_13
REMARK    2  A    between atoms: N_3  and  C_4
REMARK    3  A    between atoms: C_4  and  C_5
REMARK    4  A    between atoms: C_5  and  C_6
REMARK    5  A    between atoms: C_6  and  C_7
REMARK    6  A    between atoms: C_18  and  O_19
REMARK                            x       y       z     vdW  Elec       q    Type
REMARK                         _______ _______ _______ _____ _____    ______ ____
ROOT
ATOM      1  O   UNL     1       7.739   4.954  17.197  0.00  0.00    +0.000 OA
ATOM      2  C   UNL     1       6.803   5.634  17.624  0.00  0.00    +0.000 C 
ATOM      3  N   UNL     1       6.941   6.957  17.961  0.00  0.00    +0.000 N 
ATOM      4  H   UNL     1       6.136   7.454  18.342  0.00  0.00    +0.000 HD
ENDROOT
BRANCH   2   5
ATOM      5  C   UNL     1       5.431   5.050  17.788  0.00  0.00    +0.000 A 
ATOM      6  C   UNL     1       4.819   5.185  18.982  0.00  0.00    +0.000 A 
ATOM      7  C   UNL     1       3.501   4.592  19.194  0.00  0.00    +0.000 A 
ATOM      8  C   UNL     1       2.717   4.862  20.318  0.00  0.00    +0.000 A 
ATOM      9  C   UNL     1       1.479   4.224  20.478  0.00  0.00    +0.000 A 
ATOM     10  C   UNL     1       1.047   3.298  19.530  0.00  0.00    +0.000 A 
ATOM     11  C   UNL     1       1.816   3.018  18.411  0.00  0.00    +0.000 A 
ATOM     12  C   UNL     1       3.020   3.695  18.244  0.00  0.00    +0.000 A 
ATOM     13  O   UNL     1       3.703   3.489  17.037  0.00  0.00    +0.000 OA
ATOM     14  C   UNL     1       4.743   4.339  16.691  0.00  0.00    +0.000 A 
ATOM     15  O   UNL     1       5.103   4.448  15.519  0.00  0.00    +0.000 OA
BRANCH  10  16
ATOM     16  O   UNL     1      -0.145   2.650  19.654  0.00  0.00    +0.000 OA
ATOM     17  H   UNL     1      -0.555   2.898  20.500  0.00  0.00    +0.000 HD
ENDBRANCH  10  16
ENDBRANCH   2   5
BRANCH   3  18
ATOM     18  C   UNL     1       8.194   7.683  17.849  0.00  0.00    +0.000 C 
BRANCH  18  19
ATOM     19  C   UNL     1       7.996   9.199  17.901  0.00  0.00    +0.000 C 
BRANCH  19  20
ATOM     20  C   UNL     1       8.976   9.854  18.880  0.00  0.00    +0.000 C 
BRANCH  20  21
ATOM     21  C   UNL     1       9.592  11.118  18.327  0.00  0.00    +0.000 A 
ATOM     22  C   UNL     1      10.981  11.222  18.163  0.00  0.00    +0.000 A 
ATOM     23  C   UNL     1      11.553  12.399  17.671  0.00  0.00    +0.000 A 
ATOM     24  C   UNL     1      10.744  13.483  17.340  0.00  0.00    +0.000 A 
ATOM     25  C   UNL     1       9.363  13.390  17.491  0.00  0.00    +0.000 A 
ATOM     26  C   UNL     1       8.788  12.216  17.983  0.00  0.00    +0.000 A 
ENDBRANCH  20  21
ENDBRANCH  19  20
ENDBRANCH  18  19
ENDBRANCH   3  18
TORSDOF 6
ENDMDL
MODEL 6
REMARK VINA RESULT:      -8.2      0.739      1.189
REMARK  Name = 
REMARK  6 active torsions:
REMARK  status: ('A' for Active; 'I' for Inactive)
REMARK    1  A    between atoms: C_2  and  C_13
REMARK    2  A    between atoms: N_3  and  C_4
REMARK    3  A    between atoms: C_4  and  C_5
REMARK    4  A    between atoms: C_5  and  C_6
REMARK    5  A    between atoms: C_6  and  C_7
REMARK    6  A    between atoms: C_18  and  O_19
REMARK                            x       y       z     vdW  Elec       q    Type
REMARK                         _______ _______ _______ _____ _____    ______ ____
ROOT
ATOM      1  O   UNL     1       7.773   5.006  17.399  0.00  0.00    +0.000 OA
ATOM      2  C   UNL     1       6.778   5.717  17.554  0.00  0.00    +0.000 C 
ATOM      3  N   UNL     1       6.839   7.088  17.554  0.00  0.00    +0.000 N 
ATOM      4  H   UNL     1       5.984   7.618  17.723  0.00  0.00    +0.000 HD
ENDROOT
BRANCH   2   5
ATOM      5  C   UNL     1       5.416   5.116  17.740  0.00  0.00    +0.000 A 
ATOM      6  C   UNL     1       4.784   5.320  18.913  0.00  0.00    +0.000 A 
ATOM      7  C   UNL     1       3.476   4.715  19.148  0.00  0.00    +0.000 A 
ATOM      8  C   UNL     1       2.670   5.044  20.241  0.00  0.00    +0.000 A 
ATOM      9  C   UNL     1       1.443   4.393  20.429  0.00  0.00    +0.000 A 
ATOM     10  C   UNL     1       1.045   3.394  19.541  0.00  0.00    +0.000 A 
ATOM     11  C   UNL     1       1.836   3.054  18.455  0.00  0.00    +0.000 A 
ATOM     12  C   UNL     1       3.028   3.744  18.257  0.00  0.00    +0.000 A 
ATOM     13  O   UNL     1       3.733   3.469  17.076  0.00  0.00    +0.000 OA
ATOM     14  C   UNL     1       4.759   4.316  16.686  0.00  0.00    +0.000 A 
ATOM     15  O   UNL     1       5.134   4.351  15.515  0.00  0.00    +0.000 OA
BRANCH  10  16
ATOM     16  O   UNL     1      -0.136   2.730  19.694  0.00  0.00    +0.000 OA
ATOM     17  H   UNL     1      -0.734   2.974  18.969  0.00  0.00    +0.000 HD
ENDBRANCH  10  16
ENDBRANCH   2   5
BRANCH   3  18
ATOM     18  C   UNL     1       8.072   7.833  17.371  0.00  0.00    +0.000 C 
BRANCH  18  19
ATOM     19  C   UNL     1       7.987   9.250  17.938  0.00  0.00    +0.000 C 
BRANCH  19  20
ATOM     20  C   UNL     1       8.974   9.446  19.095  0.00  0.00    +0.000 C 
BRANCH  20  21
ATOM     21  C   UNL     1       9.589  10.827  19.106  0.00  0.00    +0.000 A 
ATOM     22  C   UNL     1       9.624  11.602  17.938  0.00  0.00    +0.000 A 
ATOM     23  C   UNL     1      10.211  12.870  17.944  0.00  0.00    +0.000 A 
ATOM     24  C   UNL     1      10.771  13.376  19.115  0.00  0.00    +0.000 A 
ATOM     25  C   UNL     1      10.736  12.619  20.284  0.00  0.00    +0.000 A 
ATOM     26  C   UNL     1      10.150  11.351  20.281  0.00  0.00    +0.000 A 
ENDBRANCH  20  21
ENDBRANCH  19  20
ENDBRANCH  18  19
ENDBRANCH   3  18
TORSDOF 6
ENDMDL
MODEL 7
REMARK VINA RESULT:      -8.1      1.123      1.426
REMARK  Name = 
REMARK  6 active torsions:
REMARK  status: ('A' for Active; 'I' for Inactive)
REMARK    1  A    between atoms: C_2  and  C_13
REMARK    2  A    between atoms: N_3  and  C_4
REMARK    3  A    between atoms: C_4  and  C_5
REMARK    4  A    between atoms: C_5  and  C_6
REMARK    5  A    between atoms: C_6  and  C_7
REMARK    6  A    between atoms: C_18  and  O_19
REMARK                            x       y       z     vdW  Elec       q    Type
REMARK                         _______ _______ _______ _____ _____    ______ ____
ROOT
ATOM      1  O   UNL     1       7.927   6.077  18.854  0.00  0.00    +0.000 OA
ATOM      2  C   UNL     1       7.034   6.460  18.096  0.00  0.00    +0.000 C 
ATOM      3  N   UNL     1       7.133   7.611  17.356  0.00  0.00    +0.000 N 
ATOM      4  H   UNL     1       6.343   7.891  16.774  0.00  0.00    +0.000 HD
ENDROOT
BRANCH   2   5
ATOM      5  C   UNL     1       5.771   5.669  17.921  0.00  0.00    +0.000 A 
ATOM      6  C   UNL     1       5.139   5.224  19.026  0.00  0.00    +0.000 A 
ATOM      7  C   UNL     1       3.931   4.414  18.895  0.00  0.00    +0.000 A 
ATOM      8  C   UNL     1       3.108   4.093  19.978  0.00  0.00    +0.000 A 
ATOM      9  C   UNL     1       1.987   3.275  19.788  0.00  0.00    +0.000 A 
ATOM     10  C   UNL     1       1.712   2.756  18.523  0.00  0.00    +0.000 A 
ATOM     11  C   UNL     1       2.521   3.063  17.440  0.00  0.00    +0.000 A 
ATOM     12  C   UNL     1       3.603   3.915  17.638  0.00  0.00    +0.000 A 
ATOM     13  O   UNL     1       4.316   4.311  16.497  0.00  0.00    +0.000 OA
ATOM     14  C   UNL     1       5.209   5.368  16.588  0.00  0.00    +0.000 A 
ATOM     15  O   UNL     1       5.553   5.989  15.583  0.00  0.00    +0.000 OA
BRANCH  10  16
ATOM     16  O   UNL     1       0.637   1.949  18.299  0.00  0.00    +0.000 OA
ATOM     17  H   UNL     1       0.801   1.414  17.505  0.00  0.00    +0.000 HD
ENDBRANCH  10  16
ENDBRANCH   2   5
BRANCH   3  18
ATOM     18  C   UNL     1       8.291   8.487  17.392  0.00  0.00    +0.000 C 
BRANCH  18  19
ATOM     19  C   UNL     1       8.013   9.793  18.137  0.00  0.00    +0.000 C 
BRANCH  19  20
ATOM     20  C   UNL     1       9.235  10.243  18.944  0.00  0.00    +0.000 C 
BRANCH  20  21
ATOM     21  C   UNL     1       9.874  11.492  18.383  0.00  0.00    +0.000 A 
ATOM     22  C   UNL     1       9.105  12.638  18.137  0.00  0.00    +0.000 A 
ATOM     23  C   UNL     1       9.692  13.787  17.599  0.00  0.00    +0.000 A 
ATOM     24  C   UNL     1      11.052  13.802  17.300  0.00  0.00    +0.000 A 
ATOM     25  C   UNL     1      11.829  12.672  17.546  0.00  0.00    +0.000 A 
ATOM     26  C   UNL     1      11.245  11.523  18.084  0.00  0.00    +0.000 A 
ENDBRANCH  20  21
ENDBRANCH  19  20
ENDBRANCH  18  19
ENDBRANCH   3  18
TORSDOF 6
ENDMDL
MODEL 8
REMARK VINA RESULT:      -8.1      3.842      5.956
REMARK  Name = 
REMARK  6 active torsions:
REMARK  status: ('A' for Active; 'I' for Inactive)
REMARK    1  A    between atoms: C_2  and  C_13
REMARK    2  A    between atoms: N_3  and  C_4
REMARK    3  A    between atoms: C_4  and  C_5
REMARK    4  A    between atoms: C_5  and  C_6
REMARK    5  A    between atoms: C_6  and  C_7
REMARK    6  A    between atoms: C_18  and  O_19
REMARK                            x       y       z     vdW  Elec       q    Type
REMARK                         _______ _______ _______ _____ _____    ______ ____
ROOT
ATOM      1  O   UNL     1       4.606   4.788  19.398  0.00  0.00    +0.000 OA
ATOM      2  C   UNL     1       3.735   5.244  18.654  0.00  0.00    +0.000 C 
ATOM      3  N   UNL     1       3.547   4.793  17.372  0.00  0.00    +0.000 N 
ATOM      4  H   UNL     1       2.831   5.237  16.795  0.00  0.00    +0.000 HD
ENDROOT
BRANCH   2   5
ATOM      5  C   UNL     1       2.804   6.324  19.119  0.00  0.00    +0.000 A 
ATOM      6  C   UNL     1       2.719   7.451  18.385  0.00  0.00    +0.000 A 
ATOM      7  C   UNL     1       1.856   8.543  18.828  0.00  0.00    +0.000 A 
ATOM      8  C   UNL     1       1.553   9.647  18.027  0.00  0.00    +0.000 A 
ATOM      9  C   UNL     1       0.752  10.681  18.532  0.00  0.00    +0.000 A 
ATOM     10  C   UNL     1       0.286  10.620  19.844  0.00  0.00    +0.000 A 
ATOM     11  C   UNL     1       0.582   9.532  20.652  0.00  0.00    +0.000 A 
ATOM     12  C   UNL     1       1.338   8.494  20.119  0.00  0.00    +0.000 A 
ATOM     13  O   UNL     1       1.502   7.352  20.917  0.00  0.00    +0.000 OA
ATOM     14  C   UNL     1       1.990   6.187  20.345  0.00  0.00    +0.000 A 
ATOM     15  O   UNL     1       1.792   5.095  20.874  0.00  0.00    +0.000 OA
BRANCH  10  16
ATOM     16  O   UNL     1      -0.487  11.608  20.376  0.00  0.00    +0.000 OA
ATOM     17  H   UNL     1       0.069  12.385  20.556  0.00  0.00    +0.000 HD
ENDBRANCH  10  16
ENDBRANCH   2   5
BRANCH   3  18
ATOM     18  C   UNL     1       4.348   3.743  16.768  0.00  0.00    +0.000 C 
BRANCH  18  19
ATOM     19  C   UNL     1       5.129   4.233  15.548  0.00  0.00    +0.000 C 
BRANCH  19  20
ATOM     20  C   UNL     1       6.641   4.154  15.788  0.00  0.00    +0.000 C 
BRANCH  20  21
ATOM     21  C   UNL     1       7.116   5.139  16.831  0.00  0.00    +0.000 A 
ATOM     22  C   UNL     1       7.032   6.519  16.600  0.00  0.00    +0.000 A 
ATOM     23  C   UNL     1       7.490   7.430  17.556  0.00  0.00    +0.000 A 
ATOM     24  C   UNL     1       8.039   6.972  18.751  0.00  0.00    +0.000 A 
ATOM     25  C   UNL     1       8.123   5.602  18.996  0.00  0.00    +0.000 A 
ATOM     26  C   UNL     1       7.665   4.690  18.043  0.00  0.00    +0.000 A 
ENDBRANCH  20  21
ENDBRANCH  19  20
ENDBRANCH  18  19
ENDBRANCH   3  18
TORSDOF 6
ENDMDL
MODEL 9
REMARK VINA RESULT:      -8.1      5.642      8.347
REMARK  Name = 
REMARK  6 active torsions:
REMARK  status: ('A' for Active; 'I' for Inactive)
REMARK    1  A    between atoms: C_2  and  C_13
REMARK    2  A    between atoms: N_3  and  C_4
REMARK    3  A    between atoms: C_4  and  C_5
REMARK    4  A    between atoms: C_5  and  C_6
REMARK    5  A    between atoms: C_6  and  C_7
REMARK    6  A    between atoms: C_18  and  O_19
REMARK                            x       y       z     vdW  Elec       q    Type
REMARK                         _______ _______ _______ _____ _____    ______ ____
ROOT
ATOM      1  O   UNL     1       3.631   5.807  19.936  0.00  0.00    +0.000 OA
ATOM      2  C   UNL     1       3.040   6.423  19.047  0.00  0.00    +0.000 C 
ATOM      3  N   UNL     1       3.093   6.051  17.727  0.00  0.00    +0.000 N 
ATOM      4  H   UNL     1       2.610   6.624  17.035  0.00  0.00    +0.000 HD
ENDROOT
BRANCH   2   5
ATOM      5  C   UNL     1       2.201   7.626  19.361  0.00  0.00    +0.000 A 
ATOM      6  C   UNL     1       1.710   7.752  20.610  0.00  0.00    +0.000 A 
ATOM      7  C   UNL     1       0.853   8.887  20.942  0.00  0.00    +0.000 A 
ATOM      8  C   UNL     1       0.478   9.201  22.251  0.00  0.00    +0.000 A 
ATOM      9  C   UNL     1      -0.382  10.280  22.494  0.00  0.00    +0.000 A 
ATOM     10  C   UNL     1      -0.888  11.019  21.426  0.00  0.00    +0.000 A 
ATOM     11  C   UNL     1      -0.528  10.718  20.121  0.00  0.00    +0.000 A 
ATOM     12  C   UNL     1       0.364   9.673  19.902  0.00  0.00    +0.000 A 
ATOM     13  O   UNL     1       0.811   9.484  18.586  0.00  0.00    +0.000 OA
ATOM     14  C   UNL     1       1.902   8.662  18.350  0.00  0.00    +0.000 A 
ATOM     15  O   UNL     1       2.556   8.765  17.313  0.00  0.00    +0.000 OA
BRANCH  10  16
ATOM     16  O   UNL     1      -1.734  12.070  21.619  0.00  0.00    +0.000 OA
ATOM     17  H   UNL     1      -2.215  11.941  22.454  0.00  0.00    +0.000 HD
ENDBRANCH  10  16
ENDBRANCH   2   5
BRANCH   3  18
ATOM     18  C   UNL     1       3.844   4.903  17.249  0.00  0.00    +0.000 C 
BRANCH  18  19
ATOM     19  C   UNL     1       2.937   3.755  16.808  0.00  0.00    +0.000 C 
BRANCH  19  20
ATOM     20  C   UNL     1       3.141   2.515  17.685  0.00  0.00    +0.000 C 
BRANCH  20  21
ATOM     21  C   UNL     1       2.557   2.679  19.069  0.00  0.00    +0.000 A 
ATOM     22  C   UNL     1       1.236   3.116  19.238  0.00  0.00    +0.000 A 
ATOM     23  C   UNL     1       0.702   3.288  20.518  0.00  0.00    +0.000 A 
ATOM     24  C   UNL     1       1.483   3.027  21.642  0.00  0.00    +0.000 A 
ATOM     25  C   UNL     1       2.795   2.586  21.487  0.00  0.00    +0.000 A 
ATOM     26  C   UNL     1       3.331   2.414  20.209  0.00  0.00    +0.000 A 
ENDBRANCH  20  21
ENDBRANCH  19  20
ENDBRANCH  18  19
ENDBRANCH   3  18
TORSDOF 6
ENDMDL
