MODEL 1
REMARK VINA RESULT:      -7.3      0.000      0.000
REMARK  Name = 
REMARK  7 active torsions:
REMARK  status: ('A' for Active; 'I' for Inactive)
REMARK    1  A    between atoms: C_2  and  O_3
REMARK    2  A    between atoms: O_3  and  C_4
REMARK    3  A    between atoms: C_7  and  O_8
REMARK    4  A    between atoms: O_8  and  C_9
REMARK    5  A    between atoms: C_10  and  N_11
REMARK    6  A    between atoms: N_11  and  C_12
REMARK    7  A    between atoms: C_14  and  C_15
REMARK                            x       y       z     vdW  Elec       q    Type
REMARK                         _______ _______ _______ _____ _____    ______ ____
ROOT
ATOM      1  C   UNL     1       2.963   6.863  17.687  0.00  0.00    +0.000 A 
ATOM      2  C   UNL     1       1.968   5.945  17.929  0.00  0.00    +0.000 A 
ATOM      3  C   UNL     1       2.339   5.058  18.915  0.00  0.00    +0.000 A 
ATOM      4  C   UNL     1       2.571   5.528  20.345  0.00  0.00    +0.000 C 
ATOM      5  N   UNL     1       3.356   4.282  18.594  0.00  0.00    +0.000 NA
ATOM      6  C   UNL     1       4.427   4.964  18.230  0.00  0.00    +0.000 A 
ATOM      7  C   UNL     1       5.605   4.368  18.633  0.00  0.00    +0.000 A 
ATOM      8  C   UNL     1       6.837   4.793  18.191  0.00  0.00    +0.000 A 
ATOM      9  C   UNL     1       6.677   5.386  16.947  0.00  0.00    +0.000 A 
ATOM     10  N   UNL     1       7.485   5.131  15.872  0.00  0.00    +0.000 NA
ATOM     11  C   UNL     1       6.651   5.188  14.870  0.00  0.00    +0.000 A 
ATOM     12  N   UNL     1       5.480   5.831  15.217  0.00  0.00    +0.000 N 
ATOM     13  C   UNL     1       5.451   6.012  16.600  0.00  0.00    +0.000 A 
ATOM     14  C   UNL     1       4.344   6.227  17.576  0.00  0.00    +0.000 A 
ATOM     15  H   UNL     1       4.674   5.834  14.617  0.00  0.00    +0.000 HD
ENDROOT
BRANCH   1  16
ATOM     16  N   UNL     1       2.735   8.135  18.611  0.00  0.00    +0.000 N 
ATOM     17  H   UNL     1       3.210   8.855  18.051  0.00  0.00    +0.000 HD
BRANCH  16  22
ATOM     18  C   UNL     1      -0.452  10.273  18.314  0.00  0.00    +0.000 A 
ATOM     19  C   UNL     1      -1.045  10.232  19.575  0.00  0.00    +0.000 A 
ATOM     20  C   UNL     1      -0.351   9.568  20.596  0.00  0.00    +0.000 A 
ATOM     21  C   UNL     1       0.907   8.962  20.362  0.00  0.00    +0.000 A 
ATOM     22  C   UNL     1       1.506   8.897  19.058  0.00  0.00    +0.000 A 
ATOM     23  C   UNL     1       0.764   9.581  18.050  0.00  0.00    +0.000 A 
BRANCH  21  24
ATOM     24  O   UNL     1       1.636   8.821  21.516  0.00  0.00    +0.000 OA
ATOM     25  C   UNL     1       0.981   9.251  22.695  0.00  0.00    +0.000 C 
ENDBRANCH  21  24
BRANCH  18  26
ATOM     26  O   UNL     1      -1.025  11.203  17.453  0.00  0.00    +0.000 OA
BRANCH  26  28
ATOM     27  C   UNL     1      -2.630  10.450  15.914  0.00  0.00    +0.000 C 
ATOM     28  C   UNL     1      -2.319  11.070  17.069  0.00  0.00    +0.000 C 
ENDBRANCH  26  28
ENDBRANCH  18  26
ENDBRANCH  16  22
ENDBRANCH   1  16
TORSDOF 5
ENDMDL
MODEL 2
REMARK VINA RESULT:      -7.1      3.006      7.855
REMARK  Name = 
REMARK  7 active torsions:
REMARK  status: ('A' for Active; 'I' for Inactive)
REMARK    1  A    between atoms: C_2  and  O_3
REMARK    2  A    between atoms: O_3  and  C_4
REMARK    3  A    between atoms: C_7  and  O_8
REMARK    4  A    between atoms: O_8  and  C_9
REMARK    5  A    between atoms: C_10  and  N_11
REMARK    6  A    between atoms: N_11  and  C_12
REMARK    7  A    between atoms: C_14  and  C_15
REMARK                            x       y       z     vdW  Elec       q    Type
REMARK                         _______ _______ _______ _____ _____    ______ ____
ROOT
ATOM      1  C   UNL     1       0.742  10.008  18.198  0.00  0.00    +0.000 A 
ATOM      2  C   UNL     1       1.596  11.080  18.318  0.00  0.00    +0.000 A 
ATOM      3  C   UNL     1       1.178  11.942  19.307  0.00  0.00    +0.000 A 
ATOM      4  C   UNL     1       1.149  11.505  20.767  0.00  0.00    +0.000 C 
ATOM      5  N   UNL     1       0.026  12.535  19.060  0.00  0.00    +0.000 NA
ATOM      6  C   UNL     1      -0.951  11.679  18.819  0.00  0.00    +0.000 A 
ATOM      7  C   UNL     1      -2.168  12.103  19.313  0.00  0.00    +0.000 A 
ATOM      8  C   UNL     1      -3.352  11.472  19.001  0.00  0.00    +0.000 A 
ATOM      9  C   UNL     1      -3.210  10.857  17.766  0.00  0.00    +0.000 A 
ATOM     10  N   UNL     1      -4.139  10.936  16.764  0.00  0.00    +0.000 NA
ATOM     11  C   UNL     1      -3.398  10.964  15.690  0.00  0.00    +0.000 A 
ATOM     12  N   UNL     1      -2.114  10.527  15.946  0.00  0.00    +0.000 N 
ATOM     13  C   UNL     1      -1.934  10.414  17.324  0.00  0.00    +0.000 A 
ATOM     14  C   UNL     1      -0.726  10.417  18.198  0.00  0.00    +0.000 A 
ATOM     15  H   UNL     1      -1.373  10.622  15.273  0.00  0.00    +0.000 HD
ENDROOT
BRANCH   1  16
ATOM     16  N   UNL     1       1.250   8.830  19.134  0.00  0.00    +0.000 N 
ATOM     17  H   UNL     1       0.372   8.311  19.267  0.00  0.00    +0.000 HD
BRANCH  16  22
ATOM     18  C   UNL     1       4.092   6.781  17.540  0.00  0.00    +0.000 A 
ATOM     19  C   UNL     1       4.372   5.763  18.452  0.00  0.00    +0.000 A 
ATOM     20  C   UNL     1       3.555   5.668  19.587  0.00  0.00    +0.000 A 
ATOM     21  C   UNL     1       2.484   6.567  19.804  0.00  0.00    +0.000 A 
ATOM     22  C   UNL     1       2.222   7.686  18.943  0.00  0.00    +0.000 A 
ATOM     23  C   UNL     1       3.079   7.747  17.804  0.00  0.00    +0.000 A 
BRANCH  21  24
ATOM     24  O   UNL     1       1.529   6.043  20.640  0.00  0.00    +0.000 OA
ATOM     25  C   UNL     1       1.317   4.649  20.506  0.00  0.00    +0.000 C 
ENDBRANCH  21  24
BRANCH  18  26
ATOM     26  O   UNL     1       4.718   6.620  16.308  0.00  0.00    +0.000 OA
BRANCH  26  28
ATOM     27  C   UNL     1       5.560   4.834  15.039  0.00  0.00    +0.000 C 
ATOM     28  C   UNL     1       5.622   5.626  16.128  0.00  0.00    +0.000 C 
ENDBRANCH  26  28
ENDBRANCH  18  26
ENDBRANCH  16  22
ENDBRANCH   1  16
TORSDOF 5
ENDMDL
MODEL 3
REMARK VINA RESULT:      -7.1      2.532      5.265
REMARK  Name = 
REMARK  7 active torsions:
REMARK  status: ('A' for Active; 'I' for Inactive)
REMARK    1  A    between atoms: C_2  and  O_3
REMARK    2  A    between atoms: O_3  and  C_4
REMARK    3  A    between atoms: C_7  and  O_8
REMARK    4  A    between atoms: O_8  and  C_9
REMARK    5  A    between atoms: C_10  and  N_11
REMARK    6  A    between atoms: N_11  and  C_12
REMARK    7  A    between atoms: C_14  and  C_15
REMARK                            x       y       z     vdW  Elec       q    Type
REMARK                         _______ _______ _______ _____ _____    ______ ____
ROOT
ATOM      1  C   UNL     1       5.036   4.550  16.324  0.00  0.00    +0.000 A 
ATOM      2  C   UNL     1       5.795   4.140  17.396  0.00  0.00    +0.000 A 
ATOM      3  C   UNL     1       6.995   4.811  17.441  0.00  0.00    +0.000 A 
ATOM      4  C   UNL     1       7.044   6.315  17.685  0.00  0.00    +0.000 C 
ATOM      5  N   UNL     1       7.798   4.560  16.426  0.00  0.00    +0.000 NA
ATOM      6  C   UNL     1       7.236   4.801  15.255  0.00  0.00    +0.000 A 
ATOM      7  C   UNL     1       8.125   5.302  14.326  0.00  0.00    +0.000 A 
ATOM      8  C   UNL     1       7.807   5.432  12.993  0.00  0.00    +0.000 A 
ATOM      9  C   UNL     1       6.837   4.490  12.680  0.00  0.00    +0.000 A 
ATOM     10  N   UNL     1       6.881   3.692  11.569  0.00  0.00    +0.000 NA
ATOM     11  C   UNL     1       6.368   2.573  12.004  0.00  0.00    +0.000 A 
ATOM     12  N   UNL     1       5.671   2.755  13.181  0.00  0.00    +0.000 N 
ATOM     13  C   UNL     1       5.929   4.035  13.672  0.00  0.00    +0.000 A 
ATOM     14  C   UNL     1       5.838   4.642  15.031  0.00  0.00    +0.000 A 
ATOM     15  H   UNL     1       5.339   1.982  13.731  0.00  0.00    +0.000 HD
ENDROOT
BRANCH   1  16
ATOM     16  N   UNL     1       4.097   5.748  16.777  0.00  0.00    +0.000 N 
ATOM     17  H   UNL     1       3.410   5.741  16.011  0.00  0.00    +0.000 HD
BRANCH  16  22
ATOM     18  C   UNL     1       1.800   4.873  19.739  0.00  0.00    +0.000 A 
ATOM     19  C   UNL     1       1.603   6.072  20.422  0.00  0.00    +0.000 A 
ATOM     20  C   UNL     1       2.152   7.234  19.863  0.00  0.00    +0.000 A 
ATOM     21  C   UNL     1       2.878   7.198  18.648  0.00  0.00    +0.000 A 
ATOM     22  C   UNL     1       3.187   5.973  17.965  0.00  0.00    +0.000 A 
ATOM     23  C   UNL     1       2.613   4.816  18.571  0.00  0.00    +0.000 A 
BRANCH  21  24
ATOM     24  O   UNL     1       2.893   8.417  18.018  0.00  0.00    +0.000 OA
ATOM     25  C   UNL     1       1.656   9.107  18.017  0.00  0.00    +0.000 C 
ENDBRANCH  21  24
BRANCH  18  26
ATOM     26  O   UNL     1       0.974   3.839  20.167  0.00  0.00    +0.000 OA
BRANCH  26  28
ATOM     27  C   UNL     1       2.362   2.698  21.677  0.00  0.00    +0.000 C 
ATOM     28  C   UNL     1       1.512   2.684  20.632  0.00  0.00    +0.000 C 
ENDBRANCH  26  28
ENDBRANCH  18  26
ENDBRANCH  16  22
ENDBRANCH   1  16
TORSDOF 5
ENDMDL
MODEL 4
REMARK VINA RESULT:      -6.9      3.176      8.026
REMARK  Name = 
REMARK  7 active torsions:
REMARK  status: ('A' for Active; 'I' for Inactive)
REMARK    1  A    between atoms: C_2  and  O_3
REMARK    2  A    between atoms: O_3  and  C_4
REMARK    3  A    between atoms: C_7  and  O_8
REMARK    4  A    between atoms: O_8  and  C_9
REMARK    5  A    between atoms: C_10  and  N_11
REMARK    6  A    between atoms: N_11  and  C_12
REMARK    7  A    between atoms: C_14  and  C_15
REMARK                            x       y       z     vdW  Elec       q    Type
REMARK                         _______ _______ _______ _____ _____    ______ ____
ROOT
ATOM      1  C   UNL     1       0.844   9.888  18.306  0.00  0.00    +0.000 A 
ATOM      2  C   UNL     1       1.777  10.894  18.210  0.00  0.00    +0.000 A 
ATOM      3  C   UNL     1       1.466  11.942  19.046  0.00  0.00    +0.000 A 
ATOM      4  C   UNL     1       1.473  11.767  20.559  0.00  0.00    +0.000 C 
ATOM      5  N   UNL     1       0.350  12.573  18.736  0.00  0.00    +0.000 NA
ATOM      6  C   UNL     1      -0.696  11.767  18.680  0.00  0.00    +0.000 A 
ATOM      7  C   UNL     1      -1.856  12.363  19.131  0.00  0.00    +0.000 A 
ATOM      8  C   UNL     1      -3.094  11.783  18.972  0.00  0.00    +0.000 A 
ATOM      9  C   UNL     1      -3.053  10.956  17.859  0.00  0.00    +0.000 A 
ATOM     10  N   UNL     1      -4.018  10.934  16.890  0.00  0.00    +0.000 NA
ATOM     11  C   UNL     1      -3.326  10.719  15.804  0.00  0.00    +0.000 A 
ATOM     12  N   UNL     1      -2.066  10.233  16.090  0.00  0.00    +0.000 N 
ATOM     13  C   UNL     1      -1.833  10.346  17.461  0.00  0.00    +0.000 A 
ATOM     14  C   UNL     1      -0.590  10.404  18.281  0.00  0.00    +0.000 A 
ATOM     15  H   UNL     1      -1.352  10.154  15.388  0.00  0.00    +0.000 HD
ENDROOT
BRANCH   1  16
ATOM     16  N   UNL     1       1.309   8.851  19.416  0.00  0.00    +0.000 N 
ATOM     17  H   UNL     1       0.396   8.578  19.804  0.00  0.00    +0.000 HD
BRANCH  16  22
ATOM     18  C   UNL     1       2.297   5.296  20.510  0.00  0.00    +0.000 A 
ATOM     19  C   UNL     1       2.998   4.757  19.432  0.00  0.00    +0.000 A 
ATOM     20  C   UNL     1       3.249   5.597  18.338  0.00  0.00    +0.000 A 
ATOM     21  C   UNL     1       2.812   6.944  18.324  0.00  0.00    +0.000 A 
ATOM     22  C   UNL     1       2.004   7.508  19.369  0.00  0.00    +0.000 A 
ATOM     23  C   UNL     1       1.770   6.618  20.459  0.00  0.00    +0.000 A 
BRANCH  21  24
ATOM     24  O   UNL     1       3.547   7.718  17.462  0.00  0.00    +0.000 OA
ATOM     25  C   UNL     1       4.667   7.072  16.885  0.00  0.00    +0.000 C 
ENDBRANCH  21  24
BRANCH  18  26
ATOM     26  O   UNL     1       2.366   4.526  21.667  0.00  0.00    +0.000 OA
BRANCH  26  28
ATOM     27  C   UNL     1       1.234   2.472  21.567  0.00  0.00    +0.000 C 
ATOM     28  C   UNL     1       2.385   3.173  21.585  0.00  0.00    +0.000 C 
ENDBRANCH  26  28
ENDBRANCH  18  26
ENDBRANCH  16  22
ENDBRANCH   1  16
TORSDOF 5
ENDMDL
MODEL 5
REMARK VINA RESULT:      -6.9      5.515      8.536
REMARK  Name = 
REMARK  7 active torsions:
REMARK  status: ('A' for Active; 'I' for Inactive)
REMARK    1  A    between atoms: C_2  and  O_3
REMARK    2  A    between atoms: O_3  and  C_4
REMARK    3  A    between atoms: C_7  and  O_8
REMARK    4  A    between atoms: O_8  and  C_9
REMARK    5  A    between atoms: C_10  and  N_11
REMARK    6  A    between atoms: N_11  and  C_12
REMARK    7  A    between atoms: C_14  and  C_15
REMARK                            x       y       z     vdW  Elec       q    Type
REMARK                         _______ _______ _______ _____ _____    ______ ____
ROOT
ATOM      1  C   UNL     1       5.241   4.913  16.714  0.00  0.00    +0.000 A 
ATOM      2  C   UNL     1       5.593   6.101  17.312  0.00  0.00    +0.000 A 
ATOM      3  C   UNL     1       6.190   5.885  18.533  0.00  0.00    +0.000 A 
ATOM      4  C   UNL     1       7.532   5.170  18.634  0.00  0.00    +0.000 C 
ATOM      5  N   UNL     1       5.398   5.347  19.439  0.00  0.00    +0.000 NA
ATOM      6  C   UNL     1       4.858   4.209  19.039  0.00  0.00    +0.000 A 
ATOM      7  C   UNL     1       4.719   3.294  20.062  0.00  0.00    +0.000 A 
ATOM      8  C   UNL     1       3.999   2.128  19.917  0.00  0.00    +0.000 A 
ATOM      9  C   UNL     1       3.032   2.328  18.942  0.00  0.00    +0.000 A 
ATOM     10  N   UNL     1       1.724   1.948  19.079  0.00  0.00    +0.000 NA
ATOM     11  C   UNL     1       1.085   2.902  18.455  0.00  0.00    +0.000 A 
ATOM     12  N   UNL     1       1.925   3.622  17.630  0.00  0.00    +0.000 N 
ATOM     13  C   UNL     1       3.246   3.263  17.896  0.00  0.00    +0.000 A 
ATOM     14  C   UNL     1       4.552   3.948  17.673  0.00  0.00    +0.000 A 
ATOM     15  H   UNL     1       1.636   4.479  17.191  0.00  0.00    +0.000 HD
ENDROOT
BRANCH   1  16
ATOM     16  N   UNL     1       6.436   4.418  15.794  0.00  0.00    +0.000 N 
ATOM     17  H   UNL     1       6.488   3.430  16.076  0.00  0.00    +0.000 HD
BRANCH  16  22
ATOM     18  C   UNL     1       5.895   3.081  12.225  0.00  0.00    +0.000 A 
ATOM     19  C   UNL     1       6.574   3.966  11.390  0.00  0.00    +0.000 A 
ATOM     20  C   UNL     1       7.319   4.987  11.997  0.00  0.00    +0.000 A 
ATOM     21  C   UNL     1       7.383   5.118  13.405  0.00  0.00    +0.000 A 
ATOM     22  C   UNL     1       6.622   4.289  14.298  0.00  0.00    +0.000 A 
ATOM     23  C   UNL     1       5.876   3.267  13.637  0.00  0.00    +0.000 A 
BRANCH  21  24
ATOM     24  O   UNL     1       8.502   5.803  13.811  0.00  0.00    +0.000 OA
ATOM     25  C   UNL     1       9.414   6.126  12.777  0.00  0.00    +0.000 C 
ENDBRANCH  21  24
BRANCH  18  26
ATOM     26  O   UNL     1       5.454   1.928  11.584  0.00  0.00    +0.000 OA
BRANCH  26  28
ATOM     27  C   UNL     1       6.169  -0.289  11.291  0.00  0.00    +0.000 C 
ATOM     28  C   UNL     1       6.350   1.032  11.099  0.00  0.00    +0.000 C 
ENDBRANCH  26  28
ENDBRANCH  18  26
ENDBRANCH  16  22
ENDBRANCH   1  16
TORSDOF 5
ENDMDL
MODEL 6
REMARK VINA RESULT:      -6.9      2.036      3.089
REMARK  Name = 
REMARK  7 active torsions:
REMARK  status: ('A' for Active; 'I' for Inactive)
REMARK    1  A    between atoms: C_2  and  O_3
REMARK    2  A    between atoms: O_3  and  C_4
REMARK    3  A    between atoms: C_7  and  O_8
REMARK    4  A    between atoms: O_8  and  C_9
REMARK    5  A    between atoms: C_10  and  N_11
REMARK    6  A    between atoms: N_11  and  C_12
REMARK    7  A    between atoms: C_14  and  C_15
REMARK                            x       y       z     vdW  Elec       q    Type
REMARK                         _______ _______ _______ _____ _____    ______ ____
ROOT
ATOM      1  C   UNL     1       2.199   6.067  19.284  0.00  0.00    +0.000 A 
ATOM      2  C   UNL     1       1.510   4.880  19.377  0.00  0.00    +0.000 A 
ATOM      3  C   UNL     1       2.214   3.954  20.114  0.00  0.00    +0.000 A 
ATOM      4  C   UNL     1       2.490   4.176  21.595  0.00  0.00    +0.000 C 
ATOM      5  N   UNL     1       3.349   3.569  19.564  0.00  0.00    +0.000 NA
ATOM      6  C   UNL     1       4.156   4.580  19.294  0.00  0.00    +0.000 A 
ATOM      7  C   UNL     1       5.487   4.265  19.478  0.00  0.00    +0.000 A 
ATOM      8  C   UNL     1       6.506   5.094  19.065  0.00  0.00    +0.000 A 
ATOM      9  C   UNL     1       6.049   5.853  17.997  0.00  0.00    +0.000 A 
ATOM     10  N   UNL     1       6.759   6.050  16.843  0.00  0.00    +0.000 NA
ATOM     11  C   UNL     1       5.822   6.071  15.934  0.00  0.00    +0.000 A 
ATOM     12  N   UNL     1       4.577   6.282  16.491  0.00  0.00    +0.000 N 
ATOM     13  C   UNL     1       4.670   6.170  17.878  0.00  0.00    +0.000 A 
ATOM     14  C   UNL     1       3.672   5.873  18.945  0.00  0.00    +0.000 A 
ATOM     15  H   UNL     1       3.729   6.181  15.959  0.00  0.00    +0.000 HD
ENDROOT
BRANCH   1  16
ATOM     16  N   UNL     1       1.766   7.017  20.481  0.00  0.00    +0.000 N 
ATOM     17  H   UNL     1       2.667   7.125  20.964  0.00  0.00    +0.000 HD
BRANCH  16  22
ATOM     18  C   UNL     1       0.338  10.222  22.061  0.00  0.00    +0.000 A 
ATOM     19  C   UNL     1       0.415  11.194  21.064  0.00  0.00    +0.000 A 
ATOM     20  C   UNL     1       0.856  10.788  19.797  0.00  0.00    +0.000 A 
ATOM     21  C   UNL     1       1.211   9.443  19.534  0.00  0.00    +0.000 A 
ATOM     22  C   UNL     1       1.239   8.433  20.555  0.00  0.00    +0.000 A 
ATOM     23  C   UNL     1       0.787   8.891  21.828  0.00  0.00    +0.000 A 
BRANCH  21  24
ATOM     24  O   UNL     1       1.125   9.137  18.198  0.00  0.00    +0.000 OA
ATOM     25  C   UNL     1       2.361   9.114  17.509  0.00  0.00    +0.000 C 
ENDBRANCH  21  24
BRANCH  18  26
ATOM     26  O   UNL     1      -0.399  10.615  23.174  0.00  0.00    +0.000 OA
BRANCH  26  28
ATOM     27  C   UNL     1      -2.468  11.714  23.321  0.00  0.00    +0.000 C 
ATOM     28  C   UNL     1      -1.134  11.754  23.137  0.00  0.00    +0.000 C 
ENDBRANCH  26  28
ENDBRANCH  18  26
ENDBRANCH  16  22
ENDBRANCH   1  16
TORSDOF 5
ENDMDL
MODEL 7
REMARK VINA RESULT:      -6.7      1.663      2.109
REMARK  Name = 
REMARK  7 active torsions:
REMARK  status: ('A' for Active; 'I' for Inactive)
REMARK    1  A    between atoms: C_2  and  O_3
REMARK    2  A    between atoms: O_3  and  C_4
REMARK    3  A    between atoms: C_7  and  O_8
REMARK    4  A    between atoms: O_8  and  C_9
REMARK    5  A    between atoms: C_10  and  N_11
REMARK    6  A    between atoms: N_11  and  C_12
REMARK    7  A    between atoms: C_14  and  C_15
REMARK                            x       y       z     vdW  Elec       q    Type
REMARK                         _______ _______ _______ _____ _____    ______ ____
ROOT
ATOM      1  C   UNL     1       2.694   6.278  18.191  0.00  0.00    +0.000 A 
ATOM      2  C   UNL     1       1.877   5.171  18.220  0.00  0.00    +0.000 A 
ATOM      3  C   UNL     1       2.432   4.163  18.976  0.00  0.00    +0.000 A 
ATOM      4  C   UNL     1       2.642   4.333  20.475  0.00  0.00    +0.000 C 
ATOM      5  N   UNL     1       3.550   3.666  18.484  0.00  0.00    +0.000 NA
ATOM      6  C   UNL     1       4.476   4.587  18.282  0.00  0.00    +0.000 A 
ATOM      7  C   UNL     1       5.752   4.127  18.536  0.00  0.00    +0.000 A 
ATOM      8  C   UNL     1       6.877   4.846  18.199  0.00  0.00    +0.000 A 
ATOM      9  C   UNL     1       6.568   5.666  17.123  0.00  0.00    +0.000 A 
ATOM     10  N   UNL     1       7.362   5.801  16.016  0.00  0.00    +0.000 NA
ATOM     11  C   UNL     1       6.488   5.937  15.055  0.00  0.00    +0.000 A 
ATOM     12  N   UNL     1       5.242   6.274  15.544  0.00  0.00    +0.000 N 
ATOM     13  C   UNL     1       5.241   6.133  16.931  0.00  0.00    +0.000 A 
ATOM     14  C   UNL     1       4.155   5.930  17.933  0.00  0.00    +0.000 A 
ATOM     15  H   UNL     1       4.422   6.273  14.962  0.00  0.00    +0.000 HD
ENDROOT
BRANCH   1  16
ATOM     16  N   UNL     1       2.295   7.251  19.380  0.00  0.00    +0.000 N 
ATOM     17  H   UNL     1       3.218   7.409  19.805  0.00  0.00    +0.000 HD
BRANCH  16  22
ATOM     18  C   UNL     1       1.684  10.914  18.369  0.00  0.00    +0.000 A 
ATOM     19  C   UNL     1       0.607  11.339  19.146  0.00  0.00    +0.000 A 
ATOM     20  C   UNL     1       0.108  10.446  20.105  0.00  0.00    +0.000 A 
ATOM     21  C   UNL     1       0.674   9.161  20.284  0.00  0.00    +0.000 A 
ATOM     22  C   UNL     1       1.719   8.649  19.441  0.00  0.00    +0.000 A 
ATOM     23  C   UNL     1       2.192   9.588  18.478  0.00  0.00    +0.000 A 
BRANCH  21  24
ATOM     24  O   UNL     1       0.421   8.654  21.533  0.00  0.00    +0.000 OA
ATOM     25  C   UNL     1      -0.226   9.546  22.423  0.00  0.00    +0.000 C 
ENDBRANCH  21  24
BRANCH  18  26
ATOM     26  O   UNL     1       2.322  11.942  17.682  0.00  0.00    +0.000 OA
BRANCH  26  28
ATOM     27  C   UNL     1       3.284  13.902  18.543  0.00  0.00    +0.000 C 
ATOM     28  C   UNL     1       2.204  13.224  18.109  0.00  0.00    +0.000 C 
ENDBRANCH  26  28
ENDBRANCH  18  26
ENDBRANCH  16  22
ENDBRANCH   1  16
TORSDOF 5
ENDMDL
MODEL 8
REMARK VINA RESULT:      -6.7      1.616      1.930
REMARK  Name = 
REMARK  7 active torsions:
REMARK  status: ('A' for Active; 'I' for Inactive)
REMARK    1  A    between atoms: C_2  and  O_3
REMARK    2  A    between atoms: O_3  and  C_4
REMARK    3  A    between atoms: C_7  and  O_8
REMARK    4  A    between atoms: O_8  and  C_9
REMARK    5  A    between atoms: C_10  and  N_11
REMARK    6  A    between atoms: N_11  and  C_12
REMARK    7  A    between atoms: C_14  and  C_15
REMARK                            x       y       z     vdW  Elec       q    Type
REMARK                         _______ _______ _______ _____ _____    ______ ____
ROOT
ATOM      1  C   UNL     1       2.939   7.524  17.560  0.00  0.00    +0.000 A 
ATOM      2  C   UNL     1       1.897   6.691  17.900  0.00  0.00    +0.000 A 
ATOM      3  C   UNL     1       2.173   5.997  19.056  0.00  0.00    +0.000 A 
ATOM      4  C   UNL     1       2.332   6.723  20.387  0.00  0.00    +0.000 C 
ATOM      5  N   UNL     1       3.179   5.151  18.956  0.00  0.00    +0.000 NA
ATOM      6  C   UNL     1       4.295   5.726  18.546  0.00  0.00    +0.000 A 
ATOM      7  C   UNL     1       5.422   5.188  19.133  0.00  0.00    +0.000 A 
ATOM      8  C   UNL     1       6.695   5.493  18.706  0.00  0.00    +0.000 A 
ATOM      9  C   UNL     1       6.635   5.844  17.364  0.00  0.00    +0.000 A 
ATOM     10  N   UNL     1       7.499   5.371  16.414  0.00  0.00    +0.000 NA
ATOM     11  C   UNL     1       6.732   5.259  15.364  0.00  0.00    +0.000 A 
ATOM     12  N   UNL     1       5.566   5.984  15.504  0.00  0.00    +0.000 N 
ATOM     13  C   UNL     1       5.457   6.423  16.824  0.00  0.00    +0.000 A 
ATOM     14  C   UNL     1       4.299   6.844  17.664  0.00  0.00    +0.000 A 
ATOM     15  H   UNL     1       4.800   5.894  14.860  0.00  0.00    +0.000 HD
ENDROOT
BRANCH   1  16
ATOM     16  N   UNL     1       2.699   8.952  18.212  0.00  0.00    +0.000 N 
ATOM     17  H   UNL     1       3.412   9.502  17.715  0.00  0.00    +0.000 HD
BRANCH  16  22
ATOM     18  C   UNL     1      -0.941  10.177  17.968  0.00  0.00    +0.000 A 
ATOM     19  C   UNL     1      -0.912  11.510  18.374  0.00  0.00    +0.000 A 
ATOM     20  C   UNL     1       0.340  12.076  18.651  0.00  0.00    +0.000 A 
ATOM     21  C   UNL     1       1.534  11.326  18.523  0.00  0.00    +0.000 A 
ATOM     22  C   UNL     1       1.541   9.926  18.203  0.00  0.00    +0.000 A 
ATOM     23  C   UNL     1       0.246   9.392  17.933  0.00  0.00    +0.000 A 
BRANCH  21  24
ATOM     24  O   UNL     1       2.632  12.129  18.339  0.00  0.00    +0.000 OA
ATOM     25  C   UNL     1       2.474  13.468  18.771  0.00  0.00    +0.000 C 
ENDBRANCH  21  24
BRANCH  18  26
ATOM     26  O   UNL     1      -2.154   9.786  17.409  0.00  0.00    +0.000 OA
BRANCH  26  28
ATOM     27  C   UNL     1      -2.914  10.270  15.241  0.00  0.00    +0.000 C 
ATOM     28  C   UNL     1      -2.800  10.604  16.541  0.00  0.00    +0.000 C 
ENDBRANCH  26  28
ENDBRANCH  18  26
ENDBRANCH  16  22
ENDBRANCH   1  16
TORSDOF 5
ENDMDL
MODEL 9
REMARK VINA RESULT:      -6.6      2.496      4.997
REMARK  Name = 
REMARK  7 active torsions:
REMARK  status: ('A' for Active; 'I' for Inactive)
REMARK    1  A    between atoms: C_2  and  O_3
REMARK    2  A    between atoms: O_3  and  C_4
REMARK    3  A    between atoms: C_7  and  O_8
REMARK    4  A    between atoms: O_8  and  C_9
REMARK    5  A    between atoms: C_10  and  N_11
REMARK    6  A    between atoms: N_11  and  C_12
REMARK    7  A    between atoms: C_14  and  C_15
REMARK                            x       y       z     vdW  Elec       q    Type
REMARK                         _______ _______ _______ _____ _____    ______ ____
ROOT
ATOM      1  C   UNL     1       4.975   6.139  16.265  0.00  0.00    +0.000 A 
ATOM      2  C   UNL     1       5.325   5.327  15.211  0.00  0.00    +0.000 A 
ATOM      3  C   UNL     1       6.024   4.223  15.645  0.00  0.00    +0.000 A 
ATOM      4  C   UNL     1       5.363   3.175  16.532  0.00  0.00    +0.000 C 
ATOM      5  N   UNL     1       7.197   4.497  16.180  0.00  0.00    +0.000 NA
ATOM      6  C   UNL     1       7.115   5.353  17.184  0.00  0.00    +0.000 A 
ATOM      7  C   UNL     1       8.023   5.087  18.189  0.00  0.00    +0.000 A 
ATOM      8  C   UNL     1       8.253   5.962  19.227  0.00  0.00    +0.000 A 
ATOM      9  C   UNL     1       7.961   7.247  18.792  0.00  0.00    +0.000 A 
ATOM     10  N   UNL     1       8.769   8.328  19.014  0.00  0.00    +0.000 NA
ATOM     11  C   UNL     1       8.618   9.025  17.920  0.00  0.00    +0.000 A 
ATOM     12  N   UNL     1       7.494   8.637  17.221  0.00  0.00    +0.000 N 
ATOM     13  C   UNL     1       6.993   7.459  17.774  0.00  0.00    +0.000 A 
ATOM     14  C   UNL     1       6.123   6.373  17.240  0.00  0.00    +0.000 A 
ATOM     15  H   UNL     1       7.307   8.962  16.288  0.00  0.00    +0.000 HD
ENDROOT
BRANCH   1  16
ATOM     16  N   UNL     1       3.540   5.713  16.797  0.00  0.00    +0.000 N 
ATOM     17  H   UNL     1       3.648   4.690  16.814  0.00  0.00    +0.000 HD
BRANCH  16  22
ATOM     18  C   UNL     1       1.567   4.839  19.984  0.00  0.00    +0.000 A 
ATOM     19  C   UNL     1       1.531   6.014  20.732  0.00  0.00    +0.000 A 
ATOM     20  C   UNL     1       2.081   7.167  20.155  0.00  0.00    +0.000 A 
ATOM     21  C   UNL     1       2.651   7.145  18.859  0.00  0.00    +0.000 A 
ATOM     22  C   UNL     1       2.797   5.937  18.096  0.00  0.00    +0.000 A 
ATOM     23  C   UNL     1       2.228   4.789  18.723  0.00  0.00    +0.000 A 
BRANCH  21  24
ATOM     24  O   UNL     1       2.667   8.389  18.279  0.00  0.00    +0.000 OA
ATOM     25  C   UNL     1       1.403   8.874  17.866  0.00  0.00    +0.000 C 
ENDBRANCH  21  24
BRANCH  18  26
ATOM     26  O   UNL     1       0.734   3.836  20.470  0.00  0.00    +0.000 OA
BRANCH  26  28
ATOM     27  C   UNL     1       2.447   2.742  21.645  0.00  0.00    +0.000 C 
ATOM     28  C   UNL     1       1.265   2.706  21.000  0.00  0.00    +0.000 C 
ENDBRANCH  26  28
ENDBRANCH  18  26
ENDBRANCH  16  22
ENDBRANCH   1  16
TORSDOF 5
ENDMDL
