MODEL 1
REMARK VINA RESULT:      -7.0      0.000      0.000
REMARK  Name = 
REMARK  2 active torsions:
REMARK  status: ('A' for Active; 'I' for Inactive)
REMARK    1  A    between atoms: C_4  and  N_5
REMARK    2  A    between atoms: C_10  and  N_11
REMARK                            x       y       z     vdW  Elec       q    Type
REMARK                         _______ _______ _______ _____ _____    ______ ____
ROOT
ATOM      1  C   UNL     1       5.470   4.210  15.711  0.00  0.00    +0.000 A 
ATOM      2  C   UNL     1       5.550   5.587  15.596  0.00  0.00    +0.000 A 
ATOM      3  C   UNL     1       4.846   6.386  16.491  0.00  0.00    +0.000 A 
ATOM      4  C   UNL     1       4.011   5.816  17.479  0.00  0.00    +0.000 A 
ATOM      5  C   UNL     1       3.904   4.399  17.618  0.00  0.00    +0.000 A 
ATOM      6  C   UNL     1       4.678   3.634  16.711  0.00  0.00    +0.000 A 
ENDROOT
BRANCH   5   7
ATOM      7  N   UNL     1       3.101   3.755  18.563  0.00  0.00    +0.000 N 
ATOM      8  C   UNL     1       1.740   3.341  18.207  0.00  0.00    +0.000 C 
ATOM      9  C   UNL     1       0.854   3.552  19.430  0.00  0.00    +0.000 C 
ATOM     10  C   UNL     1       1.370   2.785  20.647  0.00  0.00    +0.000 C 
ATOM     11  C   UNL     1       2.874   2.980  20.880  0.00  0.00    +0.000 C 
ATOM     12  C   UNL     1       3.707   2.890  19.593  0.00  0.00    +0.000 C 
ENDBRANCH   5   7
BRANCH   4  13
ATOM     13  N   UNL     1       3.257   6.733  18.266  0.00  0.00    +0.000 N 
ATOM     14  C   UNL     1       2.891   6.564  19.591  0.00  0.00    +0.000 A 
ATOM     15  C   UNL     1       1.978   7.541  19.926  0.00  0.00    +0.000 A 
ATOM     16  C   UNL     1       1.875   8.412  18.822  0.00  0.00    +0.000 A 
ATOM     17  C   UNL     1       2.760   7.957  17.871  0.00  0.00    +0.000 A 
ENDBRANCH   4  13
TORSDOF 2
ENDMDL
MODEL 2
REMARK VINA RESULT:      -6.8      1.631      4.011
REMARK  Name = 
REMARK  2 active torsions:
REMARK  status: ('A' for Active; 'I' for Inactive)
REMARK    1  A    between atoms: C_4  and  N_5
REMARK    2  A    between atoms: C_10  and  N_11
REMARK                            x       y       z     vdW  Elec       q    Type
REMARK                         _______ _______ _______ _____ _____    ______ ____
ROOT
ATOM      1  C   UNL     1       2.775   2.062  17.859  0.00  0.00    +0.000 A 
ATOM      2  C   UNL     1       1.579   2.620  18.277  0.00  0.00    +0.000 A 
ATOM      3  C   UNL     1       1.510   3.991  18.500  0.00  0.00    +0.000 A 
ATOM      4  C   UNL     1       2.651   4.813  18.358  0.00  0.00    +0.000 A 
ATOM      5  C   UNL     1       3.899   4.266  17.934  0.00  0.00    +0.000 A 
ATOM      6  C   UNL     1       3.901   2.873  17.677  0.00  0.00    +0.000 A 
ENDROOT
BRANCH   5   7
ATOM      7  N   UNL     1       5.074   5.005  17.773  0.00  0.00    +0.000 N 
ATOM      8  C   UNL     1       6.316   4.553  18.407  0.00  0.00    +0.000 C 
ATOM      9  C   UNL     1       7.077   5.789  18.877  0.00  0.00    +0.000 C 
ATOM     10  C   UNL     1       7.357   6.756  17.728  0.00  0.00    +0.000 C 
ATOM     11  C   UNL     1       6.118   7.031  16.866  0.00  0.00    +0.000 C 
ATOM     12  C   UNL     1       5.314   5.766  16.533  0.00  0.00    +0.000 C 
ENDBRANCH   5   7
BRANCH   4  13
ATOM     13  N   UNL     1       2.485   6.181  18.718  0.00  0.00    +0.000 N 
ATOM     14  C   UNL     1       2.292   6.672  19.999  0.00  0.00    +0.000 A 
ATOM     15  C   UNL     1       1.939   8.002  19.916  0.00  0.00    +0.000 A 
ATOM     16  C   UNL     1       2.041   8.376  18.561  0.00  0.00    +0.000 A 
ATOM     17  C   UNL     1       2.492   7.272  17.874  0.00  0.00    +0.000 A 
ENDBRANCH   4  13
TORSDOF 2
ENDMDL
MODEL 3
REMARK VINA RESULT:      -6.8      1.276      4.223
REMARK  Name = 
REMARK  2 active torsions:
REMARK  status: ('A' for Active; 'I' for Inactive)
REMARK    1  A    between atoms: C_4  and  N_5
REMARK    2  A    between atoms: C_10  and  N_11
REMARK                            x       y       z     vdW  Elec       q    Type
REMARK                         _______ _______ _______ _____ _____    ______ ____
ROOT
ATOM      1  C   UNL     1       2.471   2.540  20.716  0.00  0.00    +0.000 A 
ATOM      2  C   UNL     1       1.470   3.421  21.084  0.00  0.00    +0.000 A 
ATOM      3  C   UNL     1       1.448   4.697  20.529  0.00  0.00    +0.000 A 
ATOM      4  C   UNL     1       2.460   5.123  19.639  0.00  0.00    +0.000 A 
ATOM      5  C   UNL     1       3.509   4.239  19.246  0.00  0.00    +0.000 A 
ATOM      6  C   UNL     1       3.456   2.938  19.805  0.00  0.00    +0.000 A 
ENDROOT
BRANCH   5   7
ATOM      7  N   UNL     1       4.549   4.580  18.376  0.00  0.00    +0.000 N 
ATOM      8  C   UNL     1       5.851   4.984  18.915  0.00  0.00    +0.000 C 
ATOM      9  C   UNL     1       6.404   6.087  18.017  0.00  0.00    +0.000 C 
ATOM     10  C   UNL     1       6.519   5.634  16.562  0.00  0.00    +0.000 C 
ATOM     11  C   UNL     1       5.247   4.943  16.052  0.00  0.00    +0.000 C 
ATOM     12  C   UNL     1       4.656   3.939  17.052  0.00  0.00    +0.000 C 
ENDBRANCH   5   7
BRANCH   4  13
ATOM     13  N   UNL     1       2.393   6.483  19.221  0.00  0.00    +0.000 N 
ATOM     14  C   UNL     1       1.991   7.557  19.998  0.00  0.00    +0.000 A 
ATOM     15  C   UNL     1       1.834   8.658  19.182  0.00  0.00    +0.000 A 
ATOM     16  C   UNL     1       2.273   8.290  17.895  0.00  0.00    +0.000 A 
ATOM     17  C   UNL     1       2.721   6.991  17.982  0.00  0.00    +0.000 A 
ENDBRANCH   4  13
TORSDOF 2
ENDMDL
MODEL 4
REMARK VINA RESULT:      -6.7      1.707      3.869
REMARK  Name = 
REMARK  2 active torsions:
REMARK  status: ('A' for Active; 'I' for Inactive)
REMARK    1  A    between atoms: C_4  and  N_5
REMARK    2  A    between atoms: C_10  and  N_11
REMARK                            x       y       z     vdW  Elec       q    Type
REMARK                         _______ _______ _______ _____ _____    ______ ____
ROOT
ATOM      1  C   UNL     1       2.793   2.109  17.834  0.00  0.00    +0.000 A 
ATOM      2  C   UNL     1       1.570   2.635  18.211  0.00  0.00    +0.000 A 
ATOM      3  C   UNL     1       1.473   3.992  18.500  0.00  0.00    +0.000 A 
ATOM      4  C   UNL     1       2.611   4.829  18.466  0.00  0.00    +0.000 A 
ATOM      5  C   UNL     1       3.887   4.315  18.087  0.00  0.00    +0.000 A 
ATOM      6  C   UNL     1       3.919   2.937  17.759  0.00  0.00    +0.000 A 
ENDROOT
BRANCH   5   7
ATOM      7  N   UNL     1       5.062   5.070  18.031  0.00  0.00    +0.000 N 
ATOM      8  C   UNL     1       5.326   5.929  16.873  0.00  0.00    +0.000 C 
ATOM      9  C   UNL     1       6.822   5.873  16.583  0.00  0.00    +0.000 C 
ATOM     10  C   UNL     1       7.654   6.298  17.793  0.00  0.00    +0.000 C 
ATOM     11  C   UNL     1       7.207   5.613  19.091  0.00  0.00    +0.000 C 
ATOM     12  C   UNL     1       5.682   5.579  19.269  0.00  0.00    +0.000 C 
ENDBRANCH   5   7
BRANCH   4  13
ATOM     13  N   UNL     1       2.410   6.176  18.885  0.00  0.00    +0.000 N 
ATOM     14  C   UNL     1       2.183   6.602  20.184  0.00  0.00    +0.000 A 
ATOM     15  C   UNL     1       1.804   7.927  20.155  0.00  0.00    +0.000 A 
ATOM     16  C   UNL     1       1.925   8.367  18.821  0.00  0.00    +0.000 A 
ATOM     17  C   UNL     1       2.412   7.304  18.093  0.00  0.00    +0.000 A 
ENDBRANCH   4  13
TORSDOF 2
ENDMDL
MODEL 5
REMARK VINA RESULT:      -6.7      1.607      5.095
REMARK  Name = 
REMARK  2 active torsions:
REMARK  status: ('A' for Active; 'I' for Inactive)
REMARK    1  A    between atoms: C_4  and  N_5
REMARK    2  A    between atoms: C_10  and  N_11
REMARK                            x       y       z     vdW  Elec       q    Type
REMARK                         _______ _______ _______ _____ _____    ______ ____
ROOT
ATOM      1  C   UNL     1       2.612   8.110  18.257  0.00  0.00    +0.000 A 
ATOM      2  C   UNL     1       1.907   7.285  19.116  0.00  0.00    +0.000 A 
ATOM      3  C   UNL     1       2.292   5.956  19.252  0.00  0.00    +0.000 A 
ATOM      4  C   UNL     1       3.356   5.422  18.489  0.00  0.00    +0.000 A 
ATOM      5  C   UNL     1       4.099   6.246  17.591  0.00  0.00    +0.000 A 
ATOM      6  C   UNL     1       3.693   7.602  17.527  0.00  0.00    +0.000 A 
ENDROOT
BRANCH   5   7
ATOM      7  N   UNL     1       5.159   5.799  16.799  0.00  0.00    +0.000 N 
ATOM      8  C   UNL     1       5.161   6.068  15.358  0.00  0.00    +0.000 C 
ATOM      9  C   UNL     1       5.757   4.851  14.658  0.00  0.00    +0.000 C 
ATOM     10  C   UNL     1       7.162   4.532  15.167  0.00  0.00    +0.000 C 
ATOM     11  C   UNL     1       7.252   4.522  16.698  0.00  0.00    +0.000 C 
ATOM     12  C   UNL     1       6.520   5.698  17.360  0.00  0.00    +0.000 C 
ENDBRANCH   5   7
BRANCH   4  13
ATOM     13  N   UNL     1       3.589   4.024  18.633  0.00  0.00    +0.000 N 
ATOM     14  C   UNL     1       3.026   3.019  17.865  0.00  0.00    +0.000 A 
ATOM     15  C   UNL     1       3.304   1.803  18.453  0.00  0.00    +0.000 A 
ATOM     16  C   UNL     1       4.167   2.053  19.539  0.00  0.00    +0.000 A 
ATOM     17  C   UNL     1       4.416   3.407  19.547  0.00  0.00    +0.000 A 
ENDBRANCH   4  13
TORSDOF 2
ENDMDL
MODEL 6
REMARK VINA RESULT:      -6.5      1.091      3.982
REMARK  Name = 
REMARK  2 active torsions:
REMARK  status: ('A' for Active; 'I' for Inactive)
REMARK    1  A    between atoms: C_4  and  N_5
REMARK    2  A    between atoms: C_10  and  N_11
REMARK                            x       y       z     vdW  Elec       q    Type
REMARK                         _______ _______ _______ _____ _____    ______ ____
ROOT
ATOM      1  C   UNL     1       6.309   5.345  15.315  0.00  0.00    +0.000 A 
ATOM      2  C   UNL     1       6.096   3.990  15.129  0.00  0.00    +0.000 A 
ATOM      3  C   UNL     1       5.081   3.358  15.839  0.00  0.00    +0.000 A 
ATOM      4  C   UNL     1       4.303   4.062  16.784  0.00  0.00    +0.000 A 
ATOM      5  C   UNL     1       4.503   5.459  17.003  0.00  0.00    +0.000 A 
ATOM      6  C   UNL     1       5.517   6.062  16.220  0.00  0.00    +0.000 A 
ENDROOT
BRANCH   5   7
ATOM      7  N   UNL     1       3.781   6.229  17.919  0.00  0.00    +0.000 N 
ATOM      8  C   UNL     1       3.841   5.913  19.349  0.00  0.00    +0.000 C 
ATOM      9  C   UNL     1       2.457   6.162  19.939  0.00  0.00    +0.000 C 
ATOM     10  C   UNL     1       1.986   7.596  19.705  0.00  0.00    +0.000 C 
ATOM     11  C   UNL     1       2.177   8.055  18.253  0.00  0.00    +0.000 C 
ATOM     12  C   UNL     1       3.538   7.661  17.663  0.00  0.00    +0.000 C 
ENDBRANCH   5   7
BRANCH   4  13
ATOM     13  N   UNL     1       3.368   3.286  17.528  0.00  0.00    +0.000 N 
ATOM     14  C   UNL     1       1.988   3.374  17.449  0.00  0.00    +0.000 A 
ATOM     15  C   UNL     1       1.438   2.641  18.480  0.00  0.00    +0.000 A 
ATOM     16  C   UNL     1       2.498   1.981  19.134  0.00  0.00    +0.000 A 
ATOM     17  C   UNL     1       3.650   2.302  18.452  0.00  0.00    +0.000 A 
ENDBRANCH   4  13
TORSDOF 2
ENDMDL
MODEL 7
REMARK VINA RESULT:      -6.5      2.406      3.838
REMARK  Name = 
REMARK  2 active torsions:
REMARK  status: ('A' for Active; 'I' for Inactive)
REMARK    1  A    between atoms: C_4  and  N_5
REMARK    2  A    between atoms: C_10  and  N_11
REMARK                            x       y       z     vdW  Elec       q    Type
REMARK                         _______ _______ _______ _____ _____    ______ ____
ROOT
ATOM      1  C   UNL     1       5.769   3.990  13.457  0.00  0.00    +0.000 A 
ATOM      2  C   UNL     1       7.050   4.491  13.606  0.00  0.00    +0.000 A 
ATOM      3  C   UNL     1       7.453   4.965  14.850  0.00  0.00    +0.000 A 
ATOM      4  C   UNL     1       6.561   4.994  15.946  0.00  0.00    +0.000 A 
ATOM      5  C   UNL     1       5.232   4.489  15.821  0.00  0.00    +0.000 A 
ATOM      6  C   UNL     1       4.889   3.976  14.546  0.00  0.00    +0.000 A 
ENDROOT
BRANCH   5   7
ATOM      7  N   UNL     1       4.287   4.483  16.850  0.00  0.00    +0.000 N 
ATOM      8  C   UNL     1       4.184   3.325  17.743  0.00  0.00    +0.000 C 
ATOM      9  C   UNL     1       2.709   3.117  18.069  0.00  0.00    +0.000 C 
ATOM     10  C   UNL     1       2.083   4.362  18.696  0.00  0.00    +0.000 C 
ATOM     11  C   UNL     1       2.414   5.647  17.927  0.00  0.00    +0.000 C 
ATOM     12  C   UNL     1       3.888   5.742  17.505  0.00  0.00    +0.000 C 
ENDBRANCH   5   7
BRANCH   4  13
ATOM     13  N   UNL     1       7.053   5.601  17.137  0.00  0.00    +0.000 N 
ATOM     14  C   UNL     1       7.290   6.953  17.327  0.00  0.00    +0.000 A 
ATOM     15  C   UNL     1       7.978   7.119  18.510  0.00  0.00    +0.000 A 
ATOM     16  C   UNL     1       8.055   5.856  19.129  0.00  0.00    +0.000 A 
ATOM     17  C   UNL     1       7.375   4.973  18.321  0.00  0.00    +0.000 A 
ENDBRANCH   4  13
TORSDOF 2
ENDMDL
MODEL 8
REMARK VINA RESULT:      -6.5      0.784      1.190
REMARK  Name = 
REMARK  2 active torsions:
REMARK  status: ('A' for Active; 'I' for Inactive)
REMARK    1  A    between atoms: C_4  and  N_5
REMARK    2  A    between atoms: C_10  and  N_11
REMARK                            x       y       z     vdW  Elec       q    Type
REMARK                         _______ _______ _______ _____ _____    ______ ____
ROOT
ATOM      1  C   UNL     1       6.534   4.743  16.687  0.00  0.00    +0.000 A 
ATOM      2  C   UNL     1       6.490   6.123  16.596  0.00  0.00    +0.000 A 
ATOM      3  C   UNL     1       5.435   6.810  17.187  0.00  0.00    +0.000 A 
ATOM      4  C   UNL     1       4.383   6.120  17.830  0.00  0.00    +0.000 A 
ATOM      5  C   UNL     1       4.398   4.697  17.935  0.00  0.00    +0.000 A 
ATOM      6  C   UNL     1       5.518   4.051  17.356  0.00  0.00    +0.000 A 
ENDROOT
BRANCH   5   7
ATOM      7  N   UNL     1       3.398   3.937  18.549  0.00  0.00    +0.000 N 
ATOM      8  C   UNL     1       2.294   3.398  17.751  0.00  0.00    +0.000 C 
ATOM      9  C   UNL     1       1.028   3.470  18.599  0.00  0.00    +0.000 C 
ATOM     10  C   UNL     1       1.182   2.716  19.919  0.00  0.00    +0.000 C 
ATOM     11  C   UNL     1       2.486   3.057  20.650  0.00  0.00    +0.000 C 
ATOM     12  C   UNL     1       3.711   3.103  19.725  0.00  0.00    +0.000 C 
ENDBRANCH   5   7
BRANCH   4  13
ATOM     13  N   UNL     1       3.305   6.923  18.301  0.00  0.00    +0.000 N 
ATOM     14  C   UNL     1       2.720   7.982  17.628  0.00  0.00    +0.000 A 
ATOM     15  C   UNL     1       1.882   8.650  18.496  0.00  0.00    +0.000 A 
ATOM     16  C   UNL     1       1.849   7.910  19.695  0.00  0.00    +0.000 A 
ATOM     17  C   UNL     1       2.635   6.798  19.500  0.00  0.00    +0.000 A 
ENDBRANCH   4  13
TORSDOF 2
ENDMDL
MODEL 9
REMARK VINA RESULT:      -6.4      2.400      3.703
REMARK  Name = 
REMARK  2 active torsions:
REMARK  status: ('A' for Active; 'I' for Inactive)
REMARK    1  A    between atoms: C_4  and  N_5
REMARK    2  A    between atoms: C_10  and  N_11
REMARK                            x       y       z     vdW  Elec       q    Type
REMARK                         _______ _______ _______ _____ _____    ______ ____
ROOT
ATOM      1  C   UNL     1       5.680   3.987  13.744  0.00  0.00    +0.000 A 
ATOM      2  C   UNL     1       6.919   4.602  13.769  0.00  0.00    +0.000 A 
ATOM      3  C   UNL     1       7.382   5.150  14.960  0.00  0.00    +0.000 A 
ATOM      4  C   UNL     1       6.586   5.138  16.128  0.00  0.00    +0.000 A 
ATOM      5  C   UNL     1       5.301   4.517  16.132  0.00  0.00    +0.000 A 
ATOM      6  C   UNL     1       4.900   3.933  14.905  0.00  0.00    +0.000 A 
ENDROOT
BRANCH   5   7
ATOM      7  N   UNL     1       4.450   4.463  17.239  0.00  0.00    +0.000 N 
ATOM      8  C   UNL     1       3.672   5.644  17.622  0.00  0.00    +0.000 C 
ATOM      9  C   UNL     1       3.617   5.692  19.146  0.00  0.00    +0.000 C 
ATOM     10  C   UNL     1       3.019   4.415  19.735  0.00  0.00    +0.000 C 
ATOM     11  C   UNL     1       3.629   3.141  19.136  0.00  0.00    +0.000 C 
ATOM     12  C   UNL     1       3.786   3.199  17.609  0.00  0.00    +0.000 C 
ENDBRANCH   5   7
BRANCH   4  13
ATOM     13  N   UNL     1       7.120   5.825  17.256  0.00  0.00    +0.000 N 
ATOM     14  C   UNL     1       7.416   7.176  17.325  0.00  0.00    +0.000 A 
ATOM     15  C   UNL     1       8.127   7.415  18.481  0.00  0.00    +0.000 A 
ATOM     16  C   UNL     1       8.162   6.208  19.207  0.00  0.00    +0.000 A 
ATOM     17  C   UNL     1       7.434   5.288  18.486  0.00  0.00    +0.000 A 
ENDBRANCH   4  13
TORSDOF 2
ENDMDL
