MODEL 1
REMARK VINA RESULT:      -8.6      0.000      0.000
REMARK  Name = 
REMARK  6 active torsions:
REMARK  status: ('A' for Active; 'I' for Inactive)
REMARK    1  A    between atoms: C_1  and  S_2
REMARK    2  A    between atoms: S_2  and  N_5
REMARK    3  A    between atoms: N_5  and  C_6
REMARK    4  A    between atoms: C_10  and  C_11
REMARK    5  A    between atoms: N_18  and  C_19
REMARK    6  A    between atoms: C_22  and  N_23
REMARK                            x       y       z     vdW  Elec       q    Type
REMARK                         _______ _______ _______ _____ _____    ______ ____
ROOT
ATOM      1  C   UNL     1       4.341   4.191  19.425  0.00  0.00    +0.000 A 
ATOM      2  C   UNL     1       4.152   2.863  19.762  0.00  0.00    +0.000 A 
ATOM      3  S   UNL     1       2.661   2.575  20.539  0.00  0.00    +0.000 S 
ATOM      4  C   UNL     1       2.216   4.220  20.423  0.00  0.00    +0.000 A 
ATOM      5  C   UNL     1       1.075   4.853  20.871  0.00  0.00    +0.000 A 
ATOM      6  N   UNL     1       0.933   6.169  20.665  0.00  0.00    +0.000 NA
ATOM      7  C   UNL     1       1.885   6.847  19.999  0.00  0.00    +0.000 A 
ATOM      8  N   UNL     1       1.656   8.188  19.700  0.00  0.00    +0.000 N 
ATOM      9  N   UNL     1       3.013   6.309  19.537  0.00  0.00    +0.000 NA
ATOM     10  C   UNL     1       3.183   4.981  19.774  0.00  0.00    +0.000 A 
ATOM     11  H   UNL     1       2.329   8.548  19.042  0.00  0.00    +0.000 HD
ENDROOT
BRANCH   1  16
ATOM     12  C   UNL     1       7.175   4.665  16.972  0.00  0.00    +0.000 A 
ATOM     13  C   UNL     1       8.060   5.434  17.722  0.00  0.00    +0.000 A 
ATOM     14  C   UNL     1       7.720   5.817  19.015  0.00  0.00    +0.000 A 
ATOM     15  C   UNL     1       6.494   5.438  19.556  0.00  0.00    +0.000 A 
ATOM     16  C   UNL     1       5.592   4.657  18.815  0.00  0.00    +0.000 A 
ATOM     17  C   UNL     1       5.944   4.281  17.505  0.00  0.00    +0.000 A 
BRANCH  12  18
ATOM     18  N   UNL     1       7.576   4.261  15.672  0.00  0.00    +0.000 N 
ATOM     19  H   UNL     1       7.670   3.261  15.491  0.00  0.00    +0.000 HD
BRANCH  18  21
ATOM     20  C   UNL     1       6.251   3.802  13.392  0.00  0.00    +0.000 C 
ATOM     21  S   UNL     1       6.998   5.112  14.340  0.00  0.00    +0.000 S 
ATOM     22  O   UNL     1       8.089   5.682  13.589  0.00  0.00    +0.000 OA
ATOM     23  O   UNL     1       5.915   5.939  14.849  0.00  0.00    +0.000 OA
ENDBRANCH  18  21
ENDBRANCH  12  18
ENDBRANCH   1  16
BRANCH   8  24
ATOM     24  C   UNL     1       0.973   9.138  20.467  0.00  0.00    +0.000 A 
ATOM     25  C   UNL     1       0.790   8.999  21.844  0.00  0.00    +0.000 A 
ATOM     26  C   UNL     1       0.088   9.958  22.581  0.00  0.00    +0.000 A 
ATOM     27  C   UNL     1      -0.476  11.083  21.971  0.00  0.00    +0.000 A 
ATOM     28  C   UNL     1      -0.315  11.193  20.584  0.00  0.00    +0.000 A 
ATOM     29  C   UNL     1       0.398  10.243  19.842  0.00  0.00    +0.000 A 
BRANCH  27  30
ATOM     30  N   UNL     1      -1.138  12.036  22.711  0.00  0.00    +0.000 N 
ATOM     31  C   UNL     1      -0.748  13.451  22.713  0.00  0.00    +0.000 C 
ATOM     32  C   UNL     1      -1.905  14.336  22.205  0.00  0.00    +0.000 C 
ATOM     33  N   UNL     1      -3.173  14.112  22.928  0.00  0.00    +0.000 NA
ATOM     34  C   UNL     1      -3.523  12.678  22.856  0.00  0.00    +0.000 C 
ATOM     35  C   UNL     1      -2.412  11.741  23.387  0.00  0.00    +0.000 C 
ATOM     36  H   UNL     1      -3.910  14.656  22.482  0.00  0.00    +0.000 HD
ENDBRANCH  27  30
ENDBRANCH   8  24
TORSDOF 5
ENDMDL
MODEL 2
REMARK VINA RESULT:      -8.2      5.637     11.604
REMARK  Name = 
REMARK  6 active torsions:
REMARK  status: ('A' for Active; 'I' for Inactive)
REMARK    1  A    between atoms: C_1  and  S_2
REMARK    2  A    between atoms: S_2  and  N_5
REMARK    3  A    between atoms: N_5  and  C_6
REMARK    4  A    between atoms: C_10  and  C_11
REMARK    5  A    between atoms: N_18  and  C_19
REMARK    6  A    between atoms: C_22  and  N_23
REMARK                            x       y       z     vdW  Elec       q    Type
REMARK                         _______ _______ _______ _____ _____    ______ ____
ROOT
ATOM      1  C   UNL     1      -0.313  13.288  20.348  0.00  0.00    +0.000 A 
ATOM      2  C   UNL     1       0.045  14.604  20.121  0.00  0.00    +0.000 A 
ATOM      3  S   UNL     1       1.387  14.763  19.080  0.00  0.00    +0.000 S 
ATOM      4  C   UNL     1       1.511  13.071  18.885  0.00  0.00    +0.000 A 
ATOM      5  C   UNL     1       2.424  12.337  18.156  0.00  0.00    +0.000 A 
ATOM      6  N   UNL     1       2.328  11.001  18.143  0.00  0.00    +0.000 NA
ATOM      7  C   UNL     1       1.329  10.396  18.810  0.00  0.00    +0.000 A 
ATOM      8  N   UNL     1       1.188   9.017  18.684  0.00  0.00    +0.000 N 
ATOM      9  N   UNL     1       0.411  11.034  19.536  0.00  0.00    +0.000 NA
ATOM     10  C   UNL     1       0.523  12.388  19.586  0.00  0.00    +0.000 A 
ATOM     11  H   UNL     1       0.311   8.691  19.057  0.00  0.00    +0.000 HD
ENDROOT
BRANCH   1  16
ATOM     12  C   UNL     1      -3.762  12.700  21.772  0.00  0.00    +0.000 A 
ATOM     13  C   UNL     1      -3.463  12.406  23.100  0.00  0.00    +0.000 A 
ATOM     14  C   UNL     1      -2.138  12.377  23.521  0.00  0.00    +0.000 A 
ATOM     15  C   UNL     1      -1.111  12.632  22.615  0.00  0.00    +0.000 A 
ATOM     16  C   UNL     1      -1.396  12.935  21.274  0.00  0.00    +0.000 A 
ATOM     17  C   UNL     1      -2.740  12.956  20.858  0.00  0.00    +0.000 A 
BRANCH  12  18
ATOM     18  N   UNL     1      -5.128  12.760  21.392  0.00  0.00    +0.000 N 
ATOM     19  H   UNL     1      -5.726  11.970  21.639  0.00  0.00    +0.000 HD
BRANCH  18  21
ATOM     20  C   UNL     1      -5.898  14.737  19.761  0.00  0.00    +0.000 C 
ATOM     21  S   UNL     1      -5.932  14.236  21.470  0.00  0.00    +0.000 S 
ATOM     22  O   UNL     1      -5.182  15.182  22.259  0.00  0.00    +0.000 OA
ATOM     23  O   UNL     1      -7.312  13.910  21.790  0.00  0.00    +0.000 OA
ENDBRANCH  18  21
ENDBRANCH  12  18
ENDBRANCH   1  16
BRANCH   8  24
ATOM     24  C   UNL     1       2.197   8.056  18.547  0.00  0.00    +0.000 A 
ATOM     25  C   UNL     1       3.082   8.046  17.468  0.00  0.00    +0.000 A 
ATOM     26  C   UNL     1       4.068   7.062  17.351  0.00  0.00    +0.000 A 
ATOM     27  C   UNL     1       4.198   6.039  18.295  0.00  0.00    +0.000 A 
ATOM     28  C   UNL     1       3.282   6.040  19.355  0.00  0.00    +0.000 A 
ATOM     29  C   UNL     1       2.300   7.030  19.485  0.00  0.00    +0.000 A 
BRANCH  27  30
ATOM     30  N   UNL     1       5.193   5.093  18.186  0.00  0.00    +0.000 N 
ATOM     31  C   UNL     1       5.309   4.194  17.031  0.00  0.00    +0.000 C 
ATOM     32  C   UNL     1       6.662   4.395  16.318  0.00  0.00    +0.000 C 
ATOM     33  N   UNL     1       7.823   4.283  17.224  0.00  0.00    +0.000 NA
ATOM     34  C   UNL     1       7.658   5.236  18.340  0.00  0.00    +0.000 C 
ATOM     35  C   UNL     1       6.332   5.059  19.117  0.00  0.00    +0.000 C 
ATOM     36  H   UNL     1       8.670   4.518  16.709  0.00  0.00    +0.000 HD
ENDBRANCH  27  30
ENDBRANCH   8  24
TORSDOF 5
ENDMDL
MODEL 3
REMARK VINA RESULT:      -8.1      5.615     11.608
REMARK  Name = 
REMARK  6 active torsions:
REMARK  status: ('A' for Active; 'I' for Inactive)
REMARK    1  A    between atoms: C_1  and  S_2
REMARK    2  A    between atoms: S_2  and  N_5
REMARK    3  A    between atoms: N_5  and  C_6
REMARK    4  A    between atoms: C_10  and  C_11
REMARK    5  A    between atoms: N_18  and  C_19
REMARK    6  A    between atoms: C_22  and  N_23
REMARK                            x       y       z     vdW  Elec       q    Type
REMARK                         _______ _______ _______ _____ _____    ______ ____
ROOT
ATOM      1  C   UNL     1      -0.174  14.523  21.501  0.00  0.00    +0.000 A 
ATOM      2  C   UNL     1       0.334  15.789  21.273  0.00  0.00    +0.000 A 
ATOM      3  S   UNL     1       1.526  15.822  20.052  0.00  0.00    +0.000 S 
ATOM      4  C   UNL     1       1.377  14.143  19.780  0.00  0.00    +0.000 A 
ATOM      5  C   UNL     1       2.064  13.334  18.898  0.00  0.00    +0.000 A 
ATOM      6  N   UNL     1       1.776  12.026  18.850  0.00  0.00    +0.000 NA
ATOM      7  C   UNL     1       0.803  11.527  19.633  0.00  0.00    +0.000 A 
ATOM      8  N   UNL     1       0.449  10.190  19.478  0.00  0.00    +0.000 N 
ATOM      9  N   UNL     1       0.097  12.242  20.509  0.00  0.00    +0.000 NA
ATOM     10  C   UNL     1       0.409  13.563  20.591  0.00  0.00    +0.000 A 
ATOM     11  H   UNL     1      -0.406   9.967  19.964  0.00  0.00    +0.000 HD
ENDROOT
BRANCH   1  16
ATOM     12  C   UNL     1      -3.185  13.198  23.356  0.00  0.00    +0.000 A 
ATOM     13  C   UNL     1      -3.111  13.915  24.547  0.00  0.00    +0.000 A 
ATOM     14  C   UNL     1      -2.066  14.810  24.751  0.00  0.00    +0.000 A 
ATOM     15  C   UNL     1      -1.092  14.983  23.771  0.00  0.00    +0.000 A 
ATOM     16  C   UNL     1      -1.156  14.271  22.562  0.00  0.00    +0.000 A 
ATOM     17  C   UNL     1      -2.214  13.363  22.369  0.00  0.00    +0.000 A 
BRANCH  12  18
ATOM     18  N   UNL     1      -4.289  12.324  23.170  0.00  0.00    +0.000 N 
ATOM     19  H   UNL     1      -4.463  11.618  23.886  0.00  0.00    +0.000 HD
BRANCH  18  21
ATOM     20  C   UNL     1      -6.744  13.064  23.936  0.00  0.00    +0.000 C 
ATOM     21  S   UNL     1      -5.705  12.933  22.495  0.00  0.00    +0.000 S 
ATOM     22  O   UNL     1      -6.280  11.981  21.577  0.00  0.00    +0.000 OA
ATOM     23  O   UNL     1      -5.384  14.289  22.078  0.00  0.00    +0.000 OA
ENDBRANCH  18  21
ENDBRANCH  12  18
ENDBRANCH   1  16
BRANCH   8  24
ATOM     24  C   UNL     1       1.279   9.108  19.160  0.00  0.00    +0.000 A 
ATOM     25  C   UNL     1       1.808   8.921  17.882  0.00  0.00    +0.000 A 
ATOM     26  C   UNL     1       2.621   7.821  17.590  0.00  0.00    +0.000 A 
ATOM     27  C   UNL     1       2.922   6.856  18.557  0.00  0.00    +0.000 A 
ATOM     28  C   UNL     1       2.356   7.037  19.825  0.00  0.00    +0.000 A 
ATOM     29  C   UNL     1       1.552   8.143  20.127  0.00  0.00    +0.000 A 
BRANCH  27  30
ATOM     30  N   UNL     1       3.749   5.793  18.267  0.00  0.00    +0.000 N 
ATOM     31  C   UNL     1       5.189   5.951  18.029  0.00  0.00    +0.000 C 
ATOM     32  C   UNL     1       6.002   5.142  19.060  0.00  0.00    +0.000 C 
ATOM     33  N   UNL     1       5.607   3.721  19.131  0.00  0.00    +0.000 NA
ATOM     34  C   UNL     1       4.158   3.636  19.406  0.00  0.00    +0.000 C 
ATOM     35  C   UNL     1       3.287   4.401  18.382  0.00  0.00    +0.000 C 
ATOM     36  H   UNL     1       6.116   3.272  19.891  0.00  0.00    +0.000 HD
ENDBRANCH  27  30
ENDBRANCH   8  24
TORSDOF 5
ENDMDL
MODEL 4
REMARK VINA RESULT:      -7.8      5.481     11.527
REMARK  Name = 
REMARK  6 active torsions:
REMARK  status: ('A' for Active; 'I' for Inactive)
REMARK    1  A    between atoms: C_1  and  S_2
REMARK    2  A    between atoms: S_2  and  N_5
REMARK    3  A    between atoms: N_5  and  C_6
REMARK    4  A    between atoms: C_10  and  C_11
REMARK    5  A    between atoms: N_18  and  C_19
REMARK    6  A    between atoms: C_22  and  N_23
REMARK                            x       y       z     vdW  Elec       q    Type
REMARK                         _______ _______ _______ _____ _____    ______ ____
ROOT
ATOM      1  C   UNL     1       0.445  14.983  20.700  0.00  0.00    +0.000 A 
ATOM      2  C   UNL     1       1.051  16.177  20.355  0.00  0.00    +0.000 A 
ATOM      3  S   UNL     1       2.238  16.000  19.142  0.00  0.00    +0.000 S 
ATOM      4  C   UNL     1       1.955  14.319  19.029  0.00  0.00    +0.000 A 
ATOM      5  C   UNL     1       2.573  13.379  18.231  0.00  0.00    +0.000 A 
ATOM      6  N   UNL     1       2.182  12.099  18.305  0.00  0.00    +0.000 NA
ATOM      7  C   UNL     1       1.176  11.755  19.128  0.00  0.00    +0.000 A 
ATOM      8  N   UNL     1       0.716  10.441  19.099  0.00  0.00    +0.000 N 
ATOM      9  N   UNL     1       0.532  12.603  19.929  0.00  0.00    +0.000 NA
ATOM     10  C   UNL     1       0.947  13.897  19.888  0.00  0.00    +0.000 A 
ATOM     11  H   UNL     1      -0.151  10.333  19.600  0.00  0.00    +0.000 HD
ENDROOT
BRANCH   1  16
ATOM     12  C   UNL     1      -2.838  14.582  22.524  0.00  0.00    +0.000 A 
ATOM     13  C   UNL     1      -2.473  14.925  23.823  0.00  0.00    +0.000 A 
ATOM     14  C   UNL     1      -1.153  15.262  24.105  0.00  0.00    +0.000 A 
ATOM     15  C   UNL     1      -0.197  15.248  23.092  0.00  0.00    +0.000 A 
ATOM     16  C   UNL     1      -0.550  14.910  21.776  0.00  0.00    +0.000 A 
ATOM     17  C   UNL     1      -1.887  14.565  21.503  0.00  0.00    +0.000 A 
BRANCH  12  18
ATOM     18  N   UNL     1      -4.202  14.284  22.270  0.00  0.00    +0.000 N 
ATOM     19  H   UNL     1      -4.597  14.584  21.378  0.00  0.00    +0.000 HD
BRANCH  18  21
ATOM     20  C   UNL     1      -6.086  13.365  23.935  0.00  0.00    +0.000 C 
ATOM     21  S   UNL     1      -4.827  12.814  22.799  0.00  0.00    +0.000 S 
ATOM     22  O   UNL     1      -3.828  12.067  23.522  0.00  0.00    +0.000 OA
ATOM     23  O   UNL     1      -5.512  12.247  21.648  0.00  0.00    +0.000 OA
ENDBRANCH  18  21
ENDBRANCH  12  18
ENDBRANCH   1  16
BRANCH   8  24
ATOM     24  C   UNL     1       1.457   9.273  18.888  0.00  0.00    +0.000 A 
ATOM     25  C   UNL     1       2.044   8.969  17.658  0.00  0.00    +0.000 A 
ATOM     26  C   UNL     1       2.765   7.785  17.474  0.00  0.00    +0.000 A 
ATOM     27  C   UNL     1       2.911   6.849  18.502  0.00  0.00    +0.000 A 
ATOM     28  C   UNL     1       2.288   7.149  19.720  0.00  0.00    +0.000 A 
ATOM     29  C   UNL     1       1.577   8.339  19.916  0.00  0.00    +0.000 A 
BRANCH  27  30
ATOM     30  N   UNL     1       3.649   5.701  18.318  0.00  0.00    +0.000 N 
ATOM     31  C   UNL     1       5.098   5.718  18.083  0.00  0.00    +0.000 C 
ATOM     32  C   UNL     1       5.839   4.943  19.191  0.00  0.00    +0.000 C 
ATOM     33  N   UNL     1       5.329   3.571  19.387  0.00  0.00    +0.000 NA
ATOM     34  C   UNL     1       3.877   3.630  19.653  0.00  0.00    +0.000 C 
ATOM     35  C   UNL     1       3.074   4.367  18.554  0.00  0.00    +0.000 C 
ATOM     36  H   UNL     1       5.796   3.154  20.190  0.00  0.00    +0.000 HD
ENDBRANCH  27  30
ENDBRANCH   8  24
TORSDOF 5
ENDMDL
MODEL 5
REMARK VINA RESULT:      -7.8      5.522     11.603
REMARK  Name = 
REMARK  6 active torsions:
REMARK  status: ('A' for Active; 'I' for Inactive)
REMARK    1  A    between atoms: C_1  and  S_2
REMARK    2  A    between atoms: S_2  and  N_5
REMARK    3  A    between atoms: N_5  and  C_6
REMARK    4  A    between atoms: C_10  and  C_11
REMARK    5  A    between atoms: N_18  and  C_19
REMARK    6  A    between atoms: C_22  and  N_23
REMARK                            x       y       z     vdW  Elec       q    Type
REMARK                         _______ _______ _______ _____ _____    ______ ____
ROOT
ATOM      1  C   UNL     1       0.158  14.969  20.989  0.00  0.00    +0.000 A 
ATOM      2  C   UNL     1       0.753  16.175  20.666  0.00  0.00    +0.000 A 
ATOM      3  S   UNL     1       1.946  16.029  19.454  0.00  0.00    +0.000 S 
ATOM      4  C   UNL     1       1.680  14.348  19.312  0.00  0.00    +0.000 A 
ATOM      5  C   UNL     1       2.309  13.427  18.500  0.00  0.00    +0.000 A 
ATOM      6  N   UNL     1       1.930  12.143  18.553  0.00  0.00    +0.000 NA
ATOM      7  C   UNL     1       0.925  11.775  19.366  0.00  0.00    +0.000 A 
ATOM      8  N   UNL     1       0.478  10.458  19.313  0.00  0.00    +0.000 N 
ATOM      9  N   UNL     1       0.270  12.604  20.179  0.00  0.00    +0.000 NA
ATOM     10  C   UNL     1       0.672  13.902  20.160  0.00  0.00    +0.000 A 
ATOM     11  H   UNL     1      -0.390  10.333  19.810  0.00  0.00    +0.000 HD
ENDROOT
BRANCH   1  16
ATOM     12  C   UNL     1      -3.152  14.712  22.791  0.00  0.00    +0.000 A 
ATOM     13  C   UNL     1      -2.750  14.833  24.119  0.00  0.00    +0.000 A 
ATOM     14  C   UNL     1      -1.400  14.973  24.424  0.00  0.00    +0.000 A 
ATOM     15  C   UNL     1      -0.452  14.984  23.404  0.00  0.00    +0.000 A 
ATOM     16  C   UNL     1      -0.841  14.869  22.060  0.00  0.00    +0.000 A 
ATOM     17  C   UNL     1      -2.209  14.722  21.763  0.00  0.00    +0.000 A 
BRANCH  12  18
ATOM     18  N   UNL     1      -4.541  14.612  22.520  0.00  0.00    +0.000 N 
ATOM     19  H   UNL     1      -4.902  15.096  21.697  0.00  0.00    +0.000 HD
BRANCH  18  21
ATOM     20  C   UNL     1      -6.176  12.903  21.268  0.00  0.00    +0.000 C 
ATOM     21  S   UNL     1      -5.325  13.152  22.813  0.00  0.00    +0.000 S 
ATOM     22  O   UNL     1      -6.293  13.299  23.872  0.00  0.00    +0.000 OA
ATOM     23  O   UNL     1      -4.271  12.153  22.884  0.00  0.00    +0.000 OA
ENDBRANCH  18  21
ENDBRANCH  12  18
ENDBRANCH   1  16
BRANCH   8  24
ATOM     24  C   UNL     1       1.231   9.300  19.086  0.00  0.00    +0.000 A 
ATOM     25  C   UNL     1       1.497   8.370  20.093  0.00  0.00    +0.000 A 
ATOM     26  C   UNL     1       2.267   7.230  19.839  0.00  0.00    +0.000 A 
ATOM     27  C   UNL     1       2.817   6.984  18.577  0.00  0.00    +0.000 A 
ATOM     28  C   UNL     1       2.571   7.942  17.585  0.00  0.00    +0.000 A 
ATOM     29  C   UNL     1       1.790   9.078  17.829  0.00  0.00    +0.000 A 
BRANCH  27  30
ATOM     30  N   UNL     1       3.547   5.843  18.331  0.00  0.00    +0.000 N 
ATOM     31  C   UNL     1       4.990   5.868  18.057  0.00  0.00    +0.000 C 
ATOM     32  C   UNL     1       5.759   5.052  19.116  0.00  0.00    +0.000 C 
ATOM     33  N   UNL     1       5.251   3.673  19.273  0.00  0.00    +0.000 NA
ATOM     34  C   UNL     1       3.807   3.723  19.581  0.00  0.00    +0.000 C 
ATOM     35  C   UNL     1       2.977   4.502  18.532  0.00  0.00    +0.000 C 
ATOM     36  H   UNL     1       5.740   3.226  20.047  0.00  0.00    +0.000 HD
ENDBRANCH  27  30
ENDBRANCH   8  24
TORSDOF 5
ENDMDL
MODEL 6
REMARK VINA RESULT:      -7.8      5.293     11.376
REMARK  Name = 
REMARK  6 active torsions:
REMARK  status: ('A' for Active; 'I' for Inactive)
REMARK    1  A    between atoms: C_1  and  S_2
REMARK    2  A    between atoms: S_2  and  N_5
REMARK    3  A    between atoms: N_5  and  C_6
REMARK    4  A    between atoms: C_10  and  C_11
REMARK    5  A    between atoms: N_18  and  C_19
REMARK    6  A    between atoms: C_22  and  N_23
REMARK                            x       y       z     vdW  Elec       q    Type
REMARK                         _______ _______ _______ _____ _____    ______ ____
ROOT
ATOM      1  C   UNL     1       0.479  15.664  20.160  0.00  0.00    +0.000 A 
ATOM      2  C   UNL     1       1.276  16.762  19.886  0.00  0.00    +0.000 A 
ATOM      3  S   UNL     1       2.671  16.368  18.986  0.00  0.00    +0.000 S 
ATOM      4  C   UNL     1       2.233  14.719  18.918  0.00  0.00    +0.000 A 
ATOM      5  C   UNL     1       2.901  13.658  18.340  0.00  0.00    +0.000 A 
ATOM      6  N   UNL     1       2.362  12.433  18.405  0.00  0.00    +0.000 NA
ATOM      7  C   UNL     1       1.169  12.258  18.999  0.00  0.00    +0.000 A 
ATOM      8  N   UNL     1       0.583  10.997  18.949  0.00  0.00    +0.000 N 
ATOM      9  N   UNL     1       0.465  13.230  19.580  0.00  0.00    +0.000 NA
ATOM     10  C   UNL     1       1.021  14.470  19.552  0.00  0.00    +0.000 A 
ATOM     11  H   UNL     1      -0.380  11.015  19.248  0.00  0.00    +0.000 HD
ENDROOT
BRANCH   1  16
ATOM     12  C   UNL     1      -2.216  14.904  22.694  0.00  0.00    +0.000 A 
ATOM     13  C   UNL     1      -3.119  15.934  22.451  0.00  0.00    +0.000 A 
ATOM     14  C   UNL     1      -2.836  16.888  21.479  0.00  0.00    +0.000 A 
ATOM     15  C   UNL     1      -1.647  16.816  20.756  0.00  0.00    +0.000 A 
ATOM     16  C   UNL     1      -0.728  15.780  20.986  0.00  0.00    +0.000 A 
ATOM     17  C   UNL     1      -1.023  14.824  21.976  0.00  0.00    +0.000 A 
BRANCH  12  18
ATOM     18  N   UNL     1      -2.561  13.928  23.666  0.00  0.00    +0.000 N 
ATOM     19  H   UNL     1      -2.987  14.252  24.536  0.00  0.00    +0.000 HD
BRANCH  18  21
ATOM     20  C   UNL     1      -1.689  11.463  23.094  0.00  0.00    +0.000 C 
ATOM     21  S   UNL     1      -3.174  12.447  23.153  0.00  0.00    +0.000 S 
ATOM     22  O   UNL     1      -3.725  12.558  21.825  0.00  0.00    +0.000 OA
ATOM     23  O   UNL     1      -3.969  11.950  24.264  0.00  0.00    +0.000 OA
ENDBRANCH  18  21
ENDBRANCH  12  18
ENDBRANCH   1  16
BRANCH   8  24
ATOM     24  C   UNL     1       1.216   9.749  18.985  0.00  0.00    +0.000 A 
ATOM     25  C   UNL     1       1.820   9.182  17.861  0.00  0.00    +0.000 A 
ATOM     26  C   UNL     1       2.430   7.926  17.924  0.00  0.00    +0.000 A 
ATOM     27  C   UNL     1       2.446   7.177  19.105  0.00  0.00    +0.000 A 
ATOM     28  C   UNL     1       1.806   7.742  20.216  0.00  0.00    +0.000 A 
ATOM     29  C   UNL     1       1.205   9.005  20.164  0.00  0.00    +0.000 A 
BRANCH  27  30
ATOM     30  N   UNL     1       3.077   5.955  19.163  0.00  0.00    +0.000 N 
ATOM     31  C   UNL     1       2.756   4.945  20.179  0.00  0.00    +0.000 C 
ATOM     32  C   UNL     1       2.255   3.645  19.516  0.00  0.00    +0.000 C 
ATOM     33  N   UNL     1       3.176   3.121  18.487  0.00  0.00    +0.000 NA
ATOM     34  C   UNL     1       3.427   4.174  17.482  0.00  0.00    +0.000 C 
ATOM     35  C   UNL     1       3.966   5.493  18.086  0.00  0.00    +0.000 C 
ATOM     36  H   UNL     1       2.742   2.322  18.029  0.00  0.00    +0.000 HD
ENDBRANCH  27  30
ENDBRANCH   8  24
TORSDOF 5
ENDMDL
MODEL 7
REMARK VINA RESULT:      -7.8      2.775      3.349
REMARK  Name = 
REMARK  6 active torsions:
REMARK  status: ('A' for Active; 'I' for Inactive)
REMARK    1  A    between atoms: C_1  and  S_2
REMARK    2  A    between atoms: S_2  and  N_5
REMARK    3  A    between atoms: N_5  and  C_6
REMARK    4  A    between atoms: C_10  and  C_11
REMARK    5  A    between atoms: N_18  and  C_19
REMARK    6  A    between atoms: C_22  and  N_23
REMARK                            x       y       z     vdW  Elec       q    Type
REMARK                         _______ _______ _______ _____ _____    ______ ____
ROOT
ATOM      1  C   UNL     1       4.300   5.089  18.090  0.00  0.00    +0.000 A 
ATOM      2  C   UNL     1       4.239   4.031  18.978  0.00  0.00    +0.000 A 
ATOM      3  S   UNL     1       3.175   4.310  20.282  0.00  0.00    +0.000 S 
ATOM      4  C   UNL     1       2.747   5.850  19.679  0.00  0.00    +0.000 A 
ATOM      5  C   UNL     1       1.887   6.790  20.209  0.00  0.00    +0.000 A 
ATOM      6  N   UNL     1       1.696   7.944  19.554  0.00  0.00    +0.000 NA
ATOM      7  C   UNL     1       2.315   8.156  18.380  0.00  0.00    +0.000 A 
ATOM      8  N   UNL     1       2.008   9.312  17.668  0.00  0.00    +0.000 N 
ATOM      9  N   UNL     1       3.159   7.298  17.804  0.00  0.00    +0.000 NA
ATOM     10  C   UNL     1       3.387   6.141  18.480  0.00  0.00    +0.000 A 
ATOM     11  H   UNL     1       2.369   9.285  16.728  0.00  0.00    +0.000 HD
ENDROOT
BRANCH   1  16
ATOM     12  C   UNL     1       6.060   4.023  14.922  0.00  0.00    +0.000 A 
ATOM     13  C   UNL     1       7.065   4.982  14.833  0.00  0.00    +0.000 A 
ATOM     14  C   UNL     1       7.151   5.987  15.790  0.00  0.00    +0.000 A 
ATOM     15  C   UNL     1       6.229   6.039  16.833  0.00  0.00    +0.000 A 
ATOM     16  C   UNL     1       5.212   5.076  16.941  0.00  0.00    +0.000 A 
ATOM     17  C   UNL     1       5.131   4.068  15.963  0.00  0.00    +0.000 A 
BRANCH  12  18
ATOM     18  N   UNL     1       6.030   2.992  13.948  0.00  0.00    +0.000 N 
ATOM     19  H   UNL     1       5.516   2.139  14.172  0.00  0.00    +0.000 HD
BRANCH  18  21
ATOM     20  C   UNL     1       5.945   1.803  11.551  0.00  0.00    +0.000 C 
ATOM     21  S   UNL     1       5.923   3.410  12.322  0.00  0.00    +0.000 S 
ATOM     22  O   UNL     1       7.088   4.152  11.910  0.00  0.00    +0.000 OA
ATOM     23  O   UNL     1       4.582   3.946  12.147  0.00  0.00    +0.000 OA
ENDBRANCH  18  21
ENDBRANCH  12  18
ENDBRANCH   1  16
BRANCH   8  24
ATOM     24  C   UNL     1       1.701  10.581  18.175  0.00  0.00    +0.000 A 
ATOM     25  C   UNL     1       0.515  10.846  18.863  0.00  0.00    +0.000 A 
ATOM     26  C   UNL     1       0.228  12.127  19.342  0.00  0.00    +0.000 A 
ATOM     27  C   UNL     1       1.103  13.199  19.138  0.00  0.00    +0.000 A 
ATOM     28  C   UNL     1       2.273  12.927  18.416  0.00  0.00    +0.000 A 
ATOM     29  C   UNL     1       2.572  11.643  17.945  0.00  0.00    +0.000 A 
BRANCH  27  30
ATOM     30  N   UNL     1       0.825  14.450  19.642  0.00  0.00    +0.000 N 
ATOM     31  C   UNL     1       1.857  15.319  20.221  0.00  0.00    +0.000 C 
ATOM     32  C   UNL     1       1.957  16.643  19.437  0.00  0.00    +0.000 C 
ATOM     33  N   UNL     1       0.663  17.340  19.298  0.00  0.00    +0.000 NA
ATOM     34  C   UNL     1      -0.315  16.423  18.678  0.00  0.00    +0.000 C 
ATOM     35  C   UNL     1      -0.485  15.088  19.443  0.00  0.00    +0.000 C 
ATOM     36  H   UNL     1       0.786  18.151  18.694  0.00  0.00    +0.000 HD
ENDBRANCH  27  30
ENDBRANCH   8  24
TORSDOF 5
ENDMDL
MODEL 8
REMARK VINA RESULT:      -7.7      5.507     11.703
REMARK  Name = 
REMARK  6 active torsions:
REMARK  status: ('A' for Active; 'I' for Inactive)
REMARK    1  A    between atoms: C_1  and  S_2
REMARK    2  A    between atoms: S_2  and  N_5
REMARK    3  A    between atoms: N_5  and  C_6
REMARK    4  A    between atoms: C_10  and  C_11
REMARK    5  A    between atoms: N_18  and  C_19
REMARK    6  A    between atoms: C_22  and  N_23
REMARK                            x       y       z     vdW  Elec       q    Type
REMARK                         _______ _______ _______ _____ _____    ______ ____
ROOT
ATOM      1  C   UNL     1      -0.141  14.696  20.675  0.00  0.00    +0.000 A 
ATOM      2  C   UNL     1       0.381  15.921  20.303  0.00  0.00    +0.000 A 
ATOM      3  S   UNL     1       1.613  15.796  19.130  0.00  0.00    +0.000 S 
ATOM      4  C   UNL     1       1.464  14.095  19.070  0.00  0.00    +0.000 A 
ATOM      5  C   UNL     1       2.176  13.179  18.324  0.00  0.00    +0.000 A 
ATOM      6  N   UNL     1       1.883  11.876  18.434  0.00  0.00    +0.000 NA
ATOM      7  C   UNL     1       0.882  11.483  19.241  0.00  0.00    +0.000 A 
ATOM      8  N   UNL     1       0.526  10.137  19.247  0.00  0.00    +0.000 N 
ATOM      9  N   UNL     1       0.151  12.305  19.994  0.00  0.00    +0.000 NA
ATOM     10  C   UNL     1       0.466  13.625  19.917  0.00  0.00    +0.000 A 
ATOM     11  H   UNL     1      -0.345   9.979  19.728  0.00  0.00    +0.000 HD
ENDROOT
BRANCH   1  16
ATOM     12  C   UNL     1      -3.479  14.667  22.443  0.00  0.00    +0.000 A 
ATOM     13  C   UNL     1      -3.084  14.515  23.770  0.00  0.00    +0.000 A 
ATOM     14  C   UNL     1      -1.734  14.397  24.081  0.00  0.00    +0.000 A 
ATOM     15  C   UNL     1      -0.779  14.424  23.068  0.00  0.00    +0.000 A 
ATOM     16  C   UNL     1      -1.160  14.582  21.726  0.00  0.00    +0.000 A 
ATOM     17  C   UNL     1      -2.529  14.694  21.422  0.00  0.00    +0.000 A 
BRANCH  12  18
ATOM     18  N   UNL     1      -4.863  14.824  22.172  0.00  0.00    +0.000 N 
ATOM     19  H   UNL     1      -5.158  15.660  21.664  0.00  0.00    +0.000 HD
BRANCH  18  21
ATOM     20  C   UNL     1      -7.086  13.570  22.977  0.00  0.00    +0.000 C 
ATOM     21  S   UNL     1      -5.775  13.466  21.775  0.00  0.00    +0.000 S 
ATOM     22  O   UNL     1      -5.016  12.261  22.001  0.00  0.00    +0.000 OA
ATOM     23  O   UNL     1      -6.363  13.759  20.478  0.00  0.00    +0.000 OA
ENDBRANCH  18  21
ENDBRANCH  12  18
ENDBRANCH   1  16
BRANCH   8  24
ATOM     24  C   UNL     1       1.361   9.023  19.099  0.00  0.00    +0.000 A 
ATOM     25  C   UNL     1       2.011   8.729  17.899  0.00  0.00    +0.000 A 
ATOM     26  C   UNL     1       2.826   7.599  17.777  0.00  0.00    +0.000 A 
ATOM     27  C   UNL     1       3.007   6.708  18.840  0.00  0.00    +0.000 A 
ATOM     28  C   UNL     1       2.321   6.996  20.027  0.00  0.00    +0.000 A 
ATOM     29  C   UNL     1       1.515   8.133  20.161  0.00  0.00    +0.000 A 
BRANCH  27  30
ATOM     30  N   UNL     1       3.836   5.615  18.718  0.00  0.00    +0.000 N 
ATOM     31  C   UNL     1       3.667   4.398  19.521  0.00  0.00    +0.000 C 
ATOM     32  C   UNL     1       3.412   3.178  18.613  0.00  0.00    +0.000 C 
ATOM     33  N   UNL     1       4.435   3.008  17.561  0.00  0.00    +0.000 NA
ATOM     34  C   UNL     1       4.528   4.253  16.772  0.00  0.00    +0.000 C 
ATOM     35  C   UNL     1       4.818   5.509  17.628  0.00  0.00    +0.000 C 
ATOM     36  H   UNL     1       4.156   2.245  16.946  0.00  0.00    +0.000 HD
ENDBRANCH  27  30
ENDBRANCH   8  24
TORSDOF 5
ENDMDL
MODEL 9
REMARK VINA RESULT:      -7.7      5.554     11.676
REMARK  Name = 
REMARK  6 active torsions:
REMARK  status: ('A' for Active; 'I' for Inactive)
REMARK    1  A    between atoms: C_1  and  S_2
REMARK    2  A    between atoms: S_2  and  N_5
REMARK    3  A    between atoms: N_5  and  C_6
REMARK    4  A    between atoms: C_10  and  C_11
REMARK    5  A    between atoms: N_18  and  C_19
REMARK    6  A    between atoms: C_22  and  N_23
REMARK                            x       y       z     vdW  Elec       q    Type
REMARK                         _______ _______ _______ _____ _____    ______ ____
ROOT
ATOM      1  C   UNL     1      -0.009  14.602  20.572  0.00  0.00    +0.000 A 
ATOM      2  C   UNL     1       0.522  15.821  20.191  0.00  0.00    +0.000 A 
ATOM      3  S   UNL     1       1.750  15.679  19.016  0.00  0.00    +0.000 S 
ATOM      4  C   UNL     1       1.587  13.979  18.966  0.00  0.00    +0.000 A 
ATOM      5  C   UNL     1       2.290  13.053  18.223  0.00  0.00    +0.000 A 
ATOM      6  N   UNL     1       1.987  11.753  18.342  0.00  0.00    +0.000 NA
ATOM      7  C   UNL     1       0.985  11.373  19.155  0.00  0.00    +0.000 A 
ATOM      8  N   UNL     1       0.618  10.030  19.170  0.00  0.00    +0.000 N 
ATOM      9  N   UNL     1       0.262  12.205  19.904  0.00  0.00    +0.000 NA
ATOM     10  C   UNL     1       0.588  13.523  19.818  0.00  0.00    +0.000 A 
ATOM     11  H   UNL     1      -0.253   9.882  19.654  0.00  0.00    +0.000 HD
ENDROOT
BRANCH   1  16
ATOM     12  C   UNL     1      -3.343  14.607  22.348  0.00  0.00    +0.000 A 
ATOM     13  C   UNL     1      -2.946  14.464  23.675  0.00  0.00    +0.000 A 
ATOM     14  C   UNL     1      -1.595  14.341  23.984  0.00  0.00    +0.000 A 
ATOM     15  C   UNL     1      -0.642  14.354  22.968  0.00  0.00    +0.000 A 
ATOM     16  C   UNL     1      -1.026  14.503  21.625  0.00  0.00    +0.000 A 
ATOM     17  C   UNL     1      -2.395  14.620  21.324  0.00  0.00    +0.000 A 
BRANCH  12  18
ATOM     18  N   UNL     1      -4.727  14.769  22.078  0.00  0.00    +0.000 N 
ATOM     19  H   UNL     1      -4.991  15.325  21.264  0.00  0.00    +0.000 HD
BRANCH  18  21
ATOM     20  C   UNL     1      -7.026  13.784  21.127  0.00  0.00    +0.000 C 
ATOM     21  S   UNL     1      -5.767  13.475  22.349  0.00  0.00    +0.000 S 
ATOM     22  O   UNL     1      -6.350  13.558  23.665  0.00  0.00    +0.000 OA
ATOM     23  O   UNL     1      -5.037  12.293  21.917  0.00  0.00    +0.000 OA
ENDBRANCH  18  21
ENDBRANCH  12  18
ENDBRANCH   1  16
BRANCH   8  24
ATOM     24  C   UNL     1       1.444   8.909  19.027  0.00  0.00    +0.000 A 
ATOM     25  C   UNL     1       1.631   7.980  20.052  0.00  0.00    +0.000 A 
ATOM     26  C   UNL     1       2.476   6.878  19.885  0.00  0.00    +0.000 A 
ATOM     27  C   UNL     1       3.181   6.670  18.695  0.00  0.00    +0.000 A 
ATOM     28  C   UNL     1       3.011   7.627  17.687  0.00  0.00    +0.000 A 
ATOM     29  C   UNL     1       2.157   8.725  17.843  0.00  0.00    +0.000 A 
BRANCH  27  30
ATOM     30  N   UNL     1       3.986   5.565  18.530  0.00  0.00    +0.000 N 
ATOM     31  C   UNL     1       4.153   4.543  19.572  0.00  0.00    +0.000 C 
ATOM     32  C   UNL     1       3.687   3.164  19.062  0.00  0.00    +0.000 C 
ATOM     33  N   UNL     1       4.324   2.766  17.790  0.00  0.00    +0.000 NA
ATOM     34  C   UNL     1       4.087   3.818  16.781  0.00  0.00    +0.000 C 
ATOM     35  C   UNL     1       4.567   5.221  17.224  0.00  0.00    +0.000 C 
ATOM     36  H   UNL     1       3.904   1.896  17.467  0.00  0.00    +0.000 HD
ENDBRANCH  27  30
ENDBRANCH   8  24
TORSDOF 5
ENDMDL
