MODEL 1
REMARK VINA RESULT:      -8.1      0.000      0.000
REMARK  Name = 
REMARK  2 active torsions:
REMARK  status: ('A' for Active; 'I' for Inactive)
REMARK    1  A    between atoms: S_2  and  C_4
REMARK    2  A    between atoms: S_2  and  N_11
REMARK                            x       y       z     vdW  Elec       q    Type
REMARK                         _______ _______ _______ _____ _____    ______ ____
ROOT
ATOM      1  N   UNL     1       3.020   4.791  18.500  0.00  0.00    +0.000 NA
ATOM      2  C   UNL     1       2.007   4.815  19.607  0.00  0.00    +0.000 C 
ATOM      3  C   UNL     1       2.160   6.030  20.550  0.00  0.00    +0.000 C 
ATOM      4  N   UNL     1       2.245   7.275  19.785  0.00  0.00    +0.000 N 
ATOM      5  C   UNL     1       1.487   8.368  20.067  0.00  0.00    +0.000 A 
ATOM      6  N   UNL     1       1.110   9.243  19.160  0.00  0.00    +0.000 NA
ATOM      7  C   UNL     1       0.262  10.192  19.710  0.00  0.00    +0.000 A 
ATOM      8  C   UNL     1      -0.399  11.223  19.010  0.00  0.00    +0.000 A 
ATOM      9  C   UNL     1      -1.243  12.102  19.700  0.00  0.00    +0.000 A 
ATOM     10  C   UNL     1      -1.422  11.977  21.074  0.00  0.00    +0.000 A 
ATOM     11  C   UNL     1      -0.771  10.969  21.789  0.00  0.00    +0.000 A 
ATOM     12  C   UNL     1       0.055  10.080  21.081  0.00  0.00    +0.000 A 
ATOM     13  S   UNL     1       0.938   8.734  21.668  0.00  0.00    +0.000 S 
ATOM     14  C   UNL     1       3.198   7.304  18.671  0.00  0.00    +0.000 C 
ATOM     15  C   UNL     1       2.972   6.096  17.747  0.00  0.00    +0.000 C 
ENDROOT
BRANCH   1  17
ATOM     16  O   UNL     1       4.503   2.906  19.387  0.00  0.00    +0.000 OA
ATOM     17  S   UNL     1       4.595   4.270  18.917  0.00  0.00    +0.000 S 
ATOM     18  O   UNL     1       5.187   5.298  19.749  0.00  0.00    +0.000 OA
BRANCH  17  19
ATOM     19  C   UNL     1       5.458   4.324  17.378  0.00  0.00    +0.000 A 
ATOM     20  C   UNL     1       4.736   4.103  16.197  0.00  0.00    +0.000 A 
ATOM     21  C   UNL     1       5.381   4.204  14.961  0.00  0.00    +0.000 A 
ATOM     22  C   UNL     1       6.736   4.529  14.904  0.00  0.00    +0.000 A 
ATOM     23  C   UNL     1       7.447   4.757  16.083  0.00  0.00    +0.000 A 
ATOM     24  C   UNL     1       6.803   4.658  17.317  0.00  0.00    +0.000 A 
ATOM     25  F   UNL     1       7.527   4.896  18.417  0.00  0.00    +0.000 F 
ENDBRANCH  17  19
ENDBRANCH   1  17
TORSDOF 2
ENDMDL
MODEL 2
REMARK VINA RESULT:      -8.1      3.899      9.307
REMARK  Name = 
REMARK  2 active torsions:
REMARK  status: ('A' for Active; 'I' for Inactive)
REMARK    1  A    between atoms: S_2  and  C_4
REMARK    2  A    between atoms: S_2  and  N_11
REMARK                            x       y       z     vdW  Elec       q    Type
REMARK                         _______ _______ _______ _____ _____    ______ ____
ROOT
ATOM      1  N   UNL     1      -0.616   9.784  20.703  0.00  0.00    +0.000 NA
ATOM      2  C   UNL     1      -0.206   9.849  19.260  0.00  0.00    +0.000 C 
ATOM      3  C   UNL     1       1.294   9.552  19.037  0.00  0.00    +0.000 C 
ATOM      4  N   UNL     1       1.688   8.318  19.720  0.00  0.00    +0.000 N 
ATOM      5  C   UNL     1       2.385   7.325  19.107  0.00  0.00    +0.000 A 
ATOM      6  N   UNL     1       2.283   6.056  19.438  0.00  0.00    +0.000 NA
ATOM      7  C   UNL     1       3.025   5.259  18.580  0.00  0.00    +0.000 A 
ATOM      8  C   UNL     1       3.075   3.850  18.587  0.00  0.00    +0.000 A 
ATOM      9  C   UNL     1       3.860   3.176  17.643  0.00  0.00    +0.000 A 
ATOM     10  C   UNL     1       4.606   3.888  16.708  0.00  0.00    +0.000 A 
ATOM     11  C   UNL     1       4.579   5.284  16.688  0.00  0.00    +0.000 A 
ATOM     12  C   UNL     1       3.770   5.946  17.626  0.00  0.00    +0.000 A 
ATOM     13  S   UNL     1       3.499   7.628  17.816  0.00  0.00    +0.000 S 
ATOM     14  C   UNL     1       1.291   8.184  21.125  0.00  0.00    +0.000 C 
ATOM     15  C   UNL     1      -0.215   8.450  21.279  0.00  0.00    +0.000 C 
ENDROOT
BRANCH   1  17
ATOM     16  O   UNL     1       0.651  11.997  20.895  0.00  0.00    +0.000 OA
ATOM     17  S   UNL     1      -0.204  11.130  21.674  0.00  0.00    +0.000 S 
ATOM     18  O   UNL     1       0.236  10.623  22.958  0.00  0.00    +0.000 OA
BRANCH  17  19
ATOM     19  C   UNL     1      -1.761  11.912  21.960  0.00  0.00    +0.000 A 
ATOM     20  C   UNL     1      -2.287  11.903  23.259  0.00  0.00    +0.000 A 
ATOM     21  C   UNL     1      -3.485  12.570  23.526  0.00  0.00    +0.000 A 
ATOM     22  C   UNL     1      -4.153  13.246  22.505  0.00  0.00    +0.000 A 
ATOM     23  C   UNL     1      -3.619  13.258  21.215  0.00  0.00    +0.000 A 
ATOM     24  C   UNL     1      -2.421  12.594  20.948  0.00  0.00    +0.000 A 
ATOM     25  F   UNL     1      -1.947  12.645  19.698  0.00  0.00    +0.000 F 
ENDBRANCH  17  19
ENDBRANCH   1  17
TORSDOF 2
ENDMDL
MODEL 3
REMARK VINA RESULT:      -8.0      1.037      1.392
REMARK  Name = 
REMARK  2 active torsions:
REMARK  status: ('A' for Active; 'I' for Inactive)
REMARK    1  A    between atoms: S_2  and  C_4
REMARK    2  A    between atoms: S_2  and  N_11
REMARK                            x       y       z     vdW  Elec       q    Type
REMARK                         _______ _______ _______ _____ _____    ______ ____
ROOT
ATOM      1  N   UNL     1       2.749   4.836  18.730  0.00  0.00    +0.000 NA
ATOM      2  C   UNL     1       1.838   4.895  19.922  0.00  0.00    +0.000 C 
ATOM      3  C   UNL     1       2.062   6.145  20.802  0.00  0.00    +0.000 C 
ATOM      4  N   UNL     1       2.068   7.362  19.988  0.00  0.00    +0.000 N 
ATOM      5  C   UNL     1       1.328   8.460  20.295  0.00  0.00    +0.000 A 
ATOM      6  N   UNL     1       0.864   9.298  19.394  0.00  0.00    +0.000 NA
ATOM      7  C   UNL     1       0.060  10.262  19.982  0.00  0.00    +0.000 A 
ATOM      8  C   UNL     1      -0.669  11.263  19.307  0.00  0.00    +0.000 A 
ATOM      9  C   UNL     1      -1.457  12.162  20.036  0.00  0.00    +0.000 A 
ATOM     10  C   UNL     1      -1.513  12.087  21.425  0.00  0.00    +0.000 A 
ATOM     11  C   UNL     1      -0.792  11.110  22.115  0.00  0.00    +0.000 A 
ATOM     12  C   UNL     1      -0.023  10.201  21.370  0.00  0.00    +0.000 A 
ATOM     13  S   UNL     1       0.920   8.882  21.925  0.00  0.00    +0.000 S 
ATOM     14  C   UNL     1       2.918   7.354  18.793  0.00  0.00    +0.000 C 
ATOM     15  C   UNL     1       2.622   6.112  17.938  0.00  0.00    +0.000 C 
ENDROOT
BRANCH   1  17
ATOM     16  O   UNL     1       4.343   2.925  19.316  0.00  0.00    +0.000 OA
ATOM     17  S   UNL     1       4.359   4.340  19.025  0.00  0.00    +0.000 S 
ATOM     18  O   UNL     1       4.939   5.279  19.964  0.00  0.00    +0.000 OA
BRANCH  17  19
ATOM     19  C   UNL     1       5.159   4.632  17.478  0.00  0.00    +0.000 A 
ATOM     20  C   UNL     1       6.319   5.417  17.461  0.00  0.00    +0.000 A 
ATOM     21  C   UNL     1       7.008   5.610  16.261  0.00  0.00    +0.000 A 
ATOM     22  C   UNL     1       6.545   5.019  15.086  0.00  0.00    +0.000 A 
ATOM     23  C   UNL     1       5.394   4.230  15.111  0.00  0.00    +0.000 A 
ATOM     24  C   UNL     1       4.707   4.036  16.310  0.00  0.00    +0.000 A 
ATOM     25  F   UNL     1       3.615   3.263  16.282  0.00  0.00    +0.000 F 
ENDBRANCH  17  19
ENDBRANCH   1  17
TORSDOF 2
ENDMDL
MODEL 4
REMARK VINA RESULT:      -8.0      1.327      2.095
REMARK  Name = 
REMARK  2 active torsions:
REMARK  status: ('A' for Active; 'I' for Inactive)
REMARK    1  A    between atoms: S_2  and  C_4
REMARK    2  A    between atoms: S_2  and  N_11
REMARK                            x       y       z     vdW  Elec       q    Type
REMARK                         _______ _______ _______ _____ _____    ______ ____
ROOT
ATOM      1  N   UNL     1       4.132   4.861  19.286  0.00  0.00    +0.000 NA
ATOM      2  C   UNL     1       4.361   6.290  18.888  0.00  0.00    +0.000 C 
ATOM      3  C   UNL     1       3.059   7.040  18.525  0.00  0.00    +0.000 C 
ATOM      4  N   UNL     1       2.046   6.860  19.567  0.00  0.00    +0.000 N 
ATOM      5  C   UNL     1       1.356   7.897  20.113  0.00  0.00    +0.000 A 
ATOM      6  N   UNL     1       0.896   7.893  21.345  0.00  0.00    +0.000 NA
ATOM      7  C   UNL     1       0.327   9.116  21.664  0.00  0.00    +0.000 A 
ATOM      8  C   UNL     1      -0.186   9.493  22.923  0.00  0.00    +0.000 A 
ATOM      9  C   UNL     1      -0.718  10.776  23.103  0.00  0.00    +0.000 A 
ATOM     10  C   UNL     1      -0.761  11.677  22.043  0.00  0.00    +0.000 A 
ATOM     11  C   UNL     1      -0.268  11.323  20.785  0.00  0.00    +0.000 A 
ATOM     12  C   UNL     1       0.283  10.041  20.625  0.00  0.00    +0.000 A 
ATOM     13  S   UNL     1       0.999   9.344  19.232  0.00  0.00    +0.000 S 
ATOM     14  C   UNL     1       1.799   5.488  20.019  0.00  0.00    +0.000 C 
ATOM     15  C   UNL     1       3.122   4.808  20.404  0.00  0.00    +0.000 C 
ENDROOT
BRANCH   1  17
ATOM     16  O   UNL     1       2.547   4.044  17.455  0.00  0.00    +0.000 OA
ATOM     17  S   UNL     1       3.846   3.752  18.017  0.00  0.00    +0.000 S 
ATOM     18  O   UNL     1       4.152   2.427  18.518  0.00  0.00    +0.000 OA
BRANCH  17  19
ATOM     19  C   UNL     1       5.112   4.141  16.849  0.00  0.00    +0.000 A 
ATOM     20  C   UNL     1       4.751   4.344  15.511  0.00  0.00    +0.000 A 
ATOM     21  C   UNL     1       5.723   4.717  14.579  0.00  0.00    +0.000 A 
ATOM     22  C   UNL     1       7.046   4.892  14.981  0.00  0.00    +0.000 A 
ATOM     23  C   UNL     1       7.399   4.697  16.318  0.00  0.00    +0.000 A 
ATOM     24  C   UNL     1       6.428   4.326  17.248  0.00  0.00    +0.000 A 
ATOM     25  F   UNL     1       6.816   4.162  18.519  0.00  0.00    +0.000 F 
ENDBRANCH  17  19
ENDBRANCH   1  17
TORSDOF 2
ENDMDL
MODEL 5
REMARK VINA RESULT:      -7.9      3.881      9.287
REMARK  Name = 
REMARK  2 active torsions:
REMARK  status: ('A' for Active; 'I' for Inactive)
REMARK    1  A    between atoms: S_2  and  C_4
REMARK    2  A    between atoms: S_2  and  N_11
REMARK                            x       y       z     vdW  Elec       q    Type
REMARK                         _______ _______ _______ _____ _____    ______ ____
ROOT
ATOM      1  N   UNL     1      -0.579  10.303  20.137  0.00  0.00    +0.000 NA
ATOM      2  C   UNL     1      -0.208  10.058  18.703  0.00  0.00    +0.000 C 
ATOM      3  C   UNL     1       1.277   9.676  18.511  0.00  0.00    +0.000 C 
ATOM      4  N   UNL     1       1.660   8.598  19.425  0.00  0.00    +0.000 N 
ATOM      5  C   UNL     1       2.314   7.479  19.013  0.00  0.00    +0.000 A 
ATOM      6  N   UNL     1       2.190   6.309  19.601  0.00  0.00    +0.000 NA
ATOM      7  C   UNL     1       2.888   5.331  18.909  0.00  0.00    +0.000 A 
ATOM      8  C   UNL     1       2.903   3.952  19.204  0.00  0.00    +0.000 A 
ATOM      9  C   UNL     1       3.645   3.076  18.402  0.00  0.00    +0.000 A 
ATOM     10  C   UNL     1       4.381   3.558  17.324  0.00  0.00    +0.000 A 
ATOM     11  C   UNL     1       4.388   4.921  17.017  0.00  0.00    +0.000 A 
ATOM     12  C   UNL     1       3.622   5.786  17.817  0.00  0.00    +0.000 A 
ATOM     13  S   UNL     1       3.398   7.478  17.663  0.00  0.00    +0.000 S 
ATOM     14  C   UNL     1       1.299   8.767  20.836  0.00  0.00    +0.000 C 
ATOM     15  C   UNL     1      -0.195   9.104  20.966  0.00  0.00    +0.000 C 
ENDROOT
BRANCH   1  17
ATOM     16  O   UNL     1       0.190  12.703  19.706  0.00  0.00    +0.000 OA
ATOM     17  S   UNL     1      -0.106  11.806  20.800  0.00  0.00    +0.000 S 
ATOM     18  O   UNL     1       0.885  11.539  21.823  0.00  0.00    +0.000 OA
BRANCH  17  19
ATOM     19  C   UNL     1      -1.558  12.345  21.649  0.00  0.00    +0.000 A 
ATOM     20  C   UNL     1      -2.392  13.280  21.023  0.00  0.00    +0.000 A 
ATOM     21  C   UNL     1      -3.580  13.675  21.644  0.00  0.00    +0.000 A 
ATOM     22  C   UNL     1      -3.936  13.136  22.880  0.00  0.00    +0.000 A 
ATOM     23  C   UNL     1      -3.104  12.198  23.495  0.00  0.00    +0.000 A 
ATOM     24  C   UNL     1      -1.919  11.803  22.874  0.00  0.00    +0.000 A 
ATOM     25  F   UNL     1      -1.163  10.893  23.500  0.00  0.00    +0.000 F 
ENDBRANCH  17  19
ENDBRANCH   1  17
TORSDOF 2
ENDMDL
MODEL 6
REMARK VINA RESULT:      -7.8      4.000      9.232
REMARK  Name = 
REMARK  2 active torsions:
REMARK  status: ('A' for Active; 'I' for Inactive)
REMARK    1  A    between atoms: S_2  and  C_4
REMARK    2  A    between atoms: S_2  and  N_11
REMARK                            x       y       z     vdW  Elec       q    Type
REMARK                         _______ _______ _______ _____ _____    ______ ____
ROOT
ATOM      1  N   UNL     1      -0.549   9.897  20.734  0.00  0.00    +0.000 NA
ATOM      2  C   UNL     1      -0.089   9.965  19.306  0.00  0.00    +0.000 C 
ATOM      3  C   UNL     1       1.396   9.582  19.123  0.00  0.00    +0.000 C 
ATOM      4  N   UNL     1       1.694   8.314  19.790  0.00  0.00    +0.000 N 
ATOM      5  C   UNL     1       2.349   7.292  19.177  0.00  0.00    +0.000 A 
ATOM      6  N   UNL     1       2.161   6.026  19.477  0.00  0.00    +0.000 NA
ATOM      7  C   UNL     1       2.880   5.203  18.625  0.00  0.00    +0.000 A 
ATOM      8  C   UNL     1       2.846   3.793  18.603  0.00  0.00    +0.000 A 
ATOM      9  C   UNL     1       3.619   3.092  17.669  0.00  0.00    +0.000 A 
ATOM     10  C   UNL     1       4.436   3.776  16.773  0.00  0.00    +0.000 A 
ATOM     11  C   UNL     1       4.493   5.171  16.783  0.00  0.00    +0.000 A 
ATOM     12  C   UNL     1       3.695   5.863  17.710  0.00  0.00    +0.000 A 
ATOM     13  S   UNL     1       3.520   7.553  17.928  0.00  0.00    +0.000 S 
ATOM     14  C   UNL     1       1.245   8.176  21.179  0.00  0.00    +0.000 C 
ATOM     15  C   UNL     1      -0.247   8.530  21.293  0.00  0.00    +0.000 C 
ENDROOT
BRANCH   1  17
ATOM     16  O   UNL     1       1.108  11.789  21.193  0.00  0.00    +0.000 OA
ATOM     17  S   UNL     1      -0.087  11.195  21.747  0.00  0.00    +0.000 S 
ATOM     18  O   UNL     1      -0.106  10.711  23.112  0.00  0.00    +0.000 OA
BRANCH  17  19
ATOM     19  C   UNL     1      -1.443  12.318  21.603  0.00  0.00    +0.000 A 
ATOM     20  C   UNL     1      -2.327  12.167  20.526  0.00  0.00    +0.000 A 
ATOM     21  C   UNL     1      -3.444  13.001  20.425  0.00  0.00    +0.000 A 
ATOM     22  C   UNL     1      -3.681  13.975  21.394  0.00  0.00    +0.000 A 
ATOM     23  C   UNL     1      -2.801  14.114  22.470  0.00  0.00    +0.000 A 
ATOM     24  C   UNL     1      -1.687  13.281  22.572  0.00  0.00    +0.000 A 
ATOM     25  F   UNL     1      -0.881  13.448  23.627  0.00  0.00    +0.000 F 
ENDBRANCH  17  19
ENDBRANCH   1  17
TORSDOF 2
ENDMDL
MODEL 7
REMARK VINA RESULT:      -7.7      3.847      9.137
REMARK  Name = 
REMARK  2 active torsions:
REMARK  status: ('A' for Active; 'I' for Inactive)
REMARK    1  A    between atoms: S_2  and  C_4
REMARK    2  A    between atoms: S_2  and  N_11
REMARK                            x       y       z     vdW  Elec       q    Type
REMARK                         _______ _______ _______ _____ _____    ______ ____
ROOT
ATOM      1  N   UNL     1      -0.070  10.108  19.833  0.00  0.00    +0.000 NA
ATOM      2  C   UNL     1       0.400   9.727  18.458  0.00  0.00    +0.000 C 
ATOM      3  C   UNL     1       1.806   9.088  18.448  0.00  0.00    +0.000 C 
ATOM      4  N   UNL     1       1.896   8.010  19.435  0.00  0.00    +0.000 N 
ATOM      5  C   UNL     1       2.383   6.775  19.138  0.00  0.00    +0.000 A 
ATOM      6  N   UNL     1       1.994   5.676  19.747  0.00  0.00    +0.000 NA
ATOM      7  C   UNL     1       2.577   4.559  19.172  0.00  0.00    +0.000 A 
ATOM      8  C   UNL     1       2.319   3.215  19.514  0.00  0.00    +0.000 A 
ATOM      9  C   UNL     1       2.974   2.183  18.830  0.00  0.00    +0.000 A 
ATOM     10  C   UNL     1       3.892   2.474  17.826  0.00  0.00    +0.000 A 
ATOM     11  C   UNL     1       4.171   3.798  17.476  0.00  0.00    +0.000 A 
ATOM     12  C   UNL     1       3.490   4.822  18.154  0.00  0.00    +0.000 A 
ATOM     13  S   UNL     1       3.585   6.516  17.919  0.00  0.00    +0.000 S 
ATOM     14  C   UNL     1       1.426   8.313  20.790  0.00  0.00    +0.000 C 
ATOM     15  C   UNL     1       0.009   8.907  20.740  0.00  0.00    +0.000 C 
ENDROOT
BRANCH   1  17
ATOM     16  O   UNL     1       1.126  12.328  19.406  0.00  0.00    +0.000 OA
ATOM     17  S   UNL     1       0.589  11.541  20.493  0.00  0.00    +0.000 S 
ATOM     18  O   UNL     1       1.427  11.161  21.612  0.00  0.00    +0.000 OA
BRANCH  17  19
ATOM     19  C   UNL     1      -0.821  12.349  21.186  0.00  0.00    +0.000 A 
ATOM     20  C   UNL     1      -0.839  12.601  22.564  0.00  0.00    +0.000 A 
ATOM     21  C   UNL     1      -1.913  13.296  23.127  0.00  0.00    +0.000 A 
ATOM     22  C   UNL     1      -2.959  13.741  22.320  0.00  0.00    +0.000 A 
ATOM     23  C   UNL     1      -2.930  13.495  20.946  0.00  0.00    +0.000 A 
ATOM     24  C   UNL     1      -1.858  12.802  20.383  0.00  0.00    +0.000 A 
ATOM     25  F   UNL     1      -1.874  12.601  19.060  0.00  0.00    +0.000 F 
ENDBRANCH  17  19
ENDBRANCH   1  17
TORSDOF 2
ENDMDL
MODEL 8
REMARK VINA RESULT:      -7.6      1.258      1.719
REMARK  Name = 
REMARK  2 active torsions:
REMARK  status: ('A' for Active; 'I' for Inactive)
REMARK    1  A    between atoms: S_2  and  C_4
REMARK    2  A    between atoms: S_2  and  N_11
REMARK                            x       y       z     vdW  Elec       q    Type
REMARK                         _______ _______ _______ _____ _____    ______ ____
ROOT
ATOM      1  N   UNL     1       2.507   4.230  18.472  0.00  0.00    +0.000 NA
ATOM      2  C   UNL     1       1.421   4.405  19.493  0.00  0.00    +0.000 C 
ATOM      3  C   UNL     1       1.730   5.505  20.533  0.00  0.00    +0.000 C 
ATOM      4  N   UNL     1       2.141   6.745  19.874  0.00  0.00    +0.000 N 
ATOM      5  C   UNL     1       1.601   7.956  20.176  0.00  0.00    +0.000 A 
ATOM      6  N   UNL     1       1.499   8.941  19.309  0.00  0.00    +0.000 NA
ATOM      7  C   UNL     1       0.817  10.015  19.859  0.00  0.00    +0.000 A 
ATOM      8  C   UNL     1       0.451  11.200  19.188  0.00  0.00    +0.000 A 
ATOM      9  C   UNL     1      -0.256  12.198  19.872  0.00  0.00    +0.000 A 
ATOM     10  C   UNL     1      -0.586  12.035  21.214  0.00  0.00    +0.000 A 
ATOM     11  C   UNL     1      -0.226  10.873  21.901  0.00  0.00    +0.000 A 
ATOM     12  C   UNL     1       0.463   9.872  21.197  0.00  0.00    +0.000 A 
ATOM     13  S   UNL     1       0.990   8.338  21.750  0.00  0.00    +0.000 S 
ATOM     14  C   UNL     1       3.181   6.635  18.846  0.00  0.00    +0.000 C 
ATOM     15  C   UNL     1       2.800   5.557  17.819  0.00  0.00    +0.000 C 
ENDROOT
BRANCH   1  17
ATOM     16  O   UNL     1       3.874   2.074  18.326  0.00  0.00    +0.000 OA
ATOM     17  S   UNL     1       3.894   3.366  18.975  0.00  0.00    +0.000 S 
ATOM     18  O   UNL     1       3.969   3.464  20.418  0.00  0.00    +0.000 OA
BRANCH  17  19
ATOM     19  C   UNL     1       5.225   4.339  18.344  0.00  0.00    +0.000 A 
ATOM     20  C   UNL     1       6.020   5.056  19.250  0.00  0.00    +0.000 A 
ATOM     21  C   UNL     1       7.119   5.782  18.784  0.00  0.00    +0.000 A 
ATOM     22  C   UNL     1       7.427   5.790  17.424  0.00  0.00    +0.000 A 
ATOM     23  C   UNL     1       6.637   5.067  16.528  0.00  0.00    +0.000 A 
ATOM     24  C   UNL     1       5.540   4.340  16.993  0.00  0.00    +0.000 A 
ATOM     25  F   UNL     1       4.822   3.656  16.095  0.00  0.00    +0.000 F 
ENDBRANCH  17  19
ENDBRANCH   1  17
TORSDOF 2
ENDMDL
MODEL 9
REMARK VINA RESULT:      -7.6      4.209      9.300
REMARK  Name = 
REMARK  2 active torsions:
REMARK  status: ('A' for Active; 'I' for Inactive)
REMARK    1  A    between atoms: S_2  and  C_4
REMARK    2  A    between atoms: S_2  and  N_11
REMARK                            x       y       z     vdW  Elec       q    Type
REMARK                         _______ _______ _______ _____ _____    ______ ____
ROOT
ATOM      1  N   UNL     1      -0.434  10.533  20.439  0.00  0.00    +0.000 NA
ATOM      2  C   UNL     1      -0.190   9.945  19.079  0.00  0.00    +0.000 C 
ATOM      3  C   UNL     1       1.224   9.342  18.918  0.00  0.00    +0.000 C 
ATOM      4  N   UNL     1       1.536   8.440  20.028  0.00  0.00    +0.000 N 
ATOM      5  C   UNL     1       2.025   7.185  19.845  0.00  0.00    +0.000 A 
ATOM      6  N   UNL     1       1.802   6.191  20.677  0.00  0.00    +0.000 NA
ATOM      7  C   UNL     1       2.332   5.007  20.188  0.00  0.00    +0.000 A 
ATOM      8  C   UNL     1       2.204   3.732  20.775  0.00  0.00    +0.000 A 
ATOM      9  C   UNL     1       2.782   2.617  20.154  0.00  0.00    +0.000 A 
ATOM     10  C   UNL     1       3.497   2.762  18.970  0.00  0.00    +0.000 A 
ATOM     11  C   UNL     1       3.646   4.016  18.374  0.00  0.00    +0.000 A 
ATOM     12  C   UNL     1       3.041   5.122  18.996  0.00  0.00    +0.000 A 
ATOM     13  S   UNL     1       3.010   6.758  18.486  0.00  0.00    +0.000 S 
ATOM     14  C   UNL     1       1.291   8.948  21.382  0.00  0.00    +0.000 C 
ATOM     15  C   UNL     1      -0.141   9.496  21.493  0.00  0.00    +0.000 C 
ENDROOT
BRANCH   1  17
ATOM     16  O   UNL     1       0.225  12.821  19.507  0.00  0.00    +0.000 OA
ATOM     17  S   UNL     1       0.256  12.068  20.741  0.00  0.00    +0.000 S 
ATOM     18  O   UNL     1       1.506  11.853  21.442  0.00  0.00    +0.000 OA
BRANCH  17  19
ATOM     19  C   UNL     1      -0.852  12.783  21.915  0.00  0.00    +0.000 A 
ATOM     20  C   UNL     1      -2.059  12.123  22.185  0.00  0.00    +0.000 A 
ATOM     21  C   UNL     1      -2.924  12.633  23.157  0.00  0.00    +0.000 A 
ATOM     22  C   UNL     1      -2.586  13.790  23.858  0.00  0.00    +0.000 A 
ATOM     23  C   UNL     1      -1.379  14.437  23.590  0.00  0.00    +0.000 A 
ATOM     24  C   UNL     1      -0.513  13.928  22.621  0.00  0.00    +0.000 A 
ATOM     25  F   UNL     1       0.636  14.580  22.410  0.00  0.00    +0.000 F 
ENDBRANCH  17  19
ENDBRANCH   1  17
TORSDOF 2
ENDMDL
