MODEL 1
REMARK VINA RESULT:      -6.7      0.000      0.000
REMARK  Name = 
REMARK  10 active torsions:
REMARK  status: ('A' for Active; 'I' for Inactive)
REMARK    1  A    between atoms: C_1  and  O_2
REMARK    2  A    between atoms: O_2  and  C_3
REMARK    3  A    between atoms: C_6  and  N_7
REMARK    4  A    between atoms: C_11  and  C_13
REMARK    5  A    between atoms: C_18  and  C_19
REMARK    6  A    between atoms: N_21  and  C_22
REMARK    7  A    between atoms: C_22  and  C_23
REMARK    8  A    between atoms: C_27  and  C_28
REMARK    9  A    between atoms: C_31  and  O_32
REMARK   10  A    between atoms: O_32  and  C_33
REMARK                            x       y       z     vdW  Elec       q    Type
REMARK                         _______ _______ _______ _____ _____    ______ ____
ROOT
ATOM      1  N   UNL     1       0.962  10.444  19.272  0.00  0.00    +0.000 N 
ATOM      2  C   UNL     1       1.692  11.720  19.424  0.00  0.00    +0.000 C 
ATOM      3  C   UNL     1       1.211  12.516  20.669  0.00  0.00    +0.000 C 
ATOM      4  N   UNL     1      -0.266  12.532  20.828  0.00  0.00    +0.000 N 
ATOM      5  C   UNL     1      -0.945  13.741  20.723  0.00  0.00    +0.000 C 
ATOM      6  O   UNL     1      -0.318  14.802  20.642  0.00  0.00    +0.000 OA
ATOM      7  C   UNL     1      -0.885  11.192  20.724  0.00  0.00    +0.000 C 
ATOM      8  C   UNL     1      -0.481  10.290  21.898  0.00  0.00    +0.000 C 
ATOM      9  C   UNL     1      -0.503  10.556  19.366  0.00  0.00    +0.000 C 
ENDROOT
BRANCH   1  13
ATOM     10  C   UNL     1       2.875   6.716  18.617  0.00  0.00    +0.000 A 
ATOM     11  C   UNL     1       2.881   7.715  17.641  0.00  0.00    +0.000 A 
ATOM     12  C   UNL     1       2.264   8.950  17.874  0.00  0.00    +0.000 A 
ATOM     13  C   UNL     1       1.571   9.223  19.058  0.00  0.00    +0.000 A 
ATOM     14  C   UNL     1       1.507   8.174  19.987  0.00  0.00    +0.000 A 
ATOM     15  C   UNL     1       2.133   6.925  19.786  0.00  0.00    +0.000 A 
BRANCH  10  17
ATOM     16  C   UNL     1       4.919   5.551  18.816  0.00  0.00    +0.000 C 
ATOM     17  O   UNL     1       3.547   5.540  18.421  0.00  0.00    +0.000 OA
ENDBRANCH  10  17
BRANCH  15  18
ATOM     18  O   UNL     1       1.904   6.056  20.822  0.00  0.00    +0.000 OA
ATOM     19  C   UNL     1       1.271   4.814  20.552  0.00  0.00    +0.000 C 
ENDBRANCH  15  18
ENDBRANCH   1  13
BRANCH   5  20
ATOM     20  C   UNL     1      -2.494  13.764  20.770  0.00  0.00    +0.000 C 
ATOM     21  C   UNL     1      -3.042  15.199  20.917  0.00  0.00    +0.000 C 
ATOM     22  C   UNL     1      -2.942  15.798  22.314  0.00  0.00    +0.000 C 
ATOM     23  C   UNL     1      -3.297  14.849  23.452  0.00  0.00    +0.000 C 
ATOM     24  C   UNL     1      -2.802  13.418  23.268  0.00  0.00    +0.000 C 
ATOM     25  C   UNL     1      -3.072  12.839  21.869  0.00  0.00    +0.000 C 
BRANCH  25  26
ATOM     26  C   UNL     1      -4.572  12.563  21.620  0.00  0.00    +0.000 C 
ATOM     27  O   UNL     1      -5.395  12.486  22.527  0.00  0.00    +0.000 OA
ATOM     28  N   UNL     1      -4.934  12.433  20.298  0.00  0.00    +0.000 N 
ATOM     29  H   UNL     1      -4.279  12.700  19.574  0.00  0.00    +0.000 HD
BRANCH  28  30
ATOM     30  C   UNL     1      -6.292  12.145  19.886  0.00  0.00    +0.000 C 
ATOM     31  C   UNL     1      -6.928  10.796  20.170  0.00  0.00    +0.000 C 
ATOM     32  C   UNL     1      -6.452  11.104  18.786  0.00  0.00    +0.000 C 
BRANCH  30  33
ATOM     33  C   UNL     1      -7.184  13.292  19.868  0.00  0.00    +0.000 C 
ATOM     34  N   UNL     1      -7.916  14.196  19.837  0.00  0.00    +0.000 NA
ENDBRANCH  30  33
ENDBRANCH  28  30
ENDBRANCH  25  26
ENDBRANCH   5  20
TORSDOF 7
ENDMDL
MODEL 2
REMARK VINA RESULT:      -6.6      0.749      1.147
REMARK  Name = 
REMARK  10 active torsions:
REMARK  status: ('A' for Active; 'I' for Inactive)
REMARK    1  A    between atoms: C_1  and  O_2
REMARK    2  A    between atoms: O_2  and  C_3
REMARK    3  A    between atoms: C_6  and  N_7
REMARK    4  A    between atoms: C_11  and  C_13
REMARK    5  A    between atoms: C_18  and  C_19
REMARK    6  A    between atoms: N_21  and  C_22
REMARK    7  A    between atoms: C_22  and  C_23
REMARK    8  A    between atoms: C_27  and  C_28
REMARK    9  A    between atoms: C_31  and  O_32
REMARK   10  A    between atoms: O_32  and  C_33
REMARK                            x       y       z     vdW  Elec       q    Type
REMARK                         _______ _______ _______ _____ _____    ______ ____
ROOT
ATOM      1  N   UNL     1       0.744  10.675  19.337  0.00  0.00    +0.000 N 
ATOM      2  C   UNL     1       1.449  11.958  19.538  0.00  0.00    +0.000 C 
ATOM      3  C   UNL     1       0.954  12.696  20.813  0.00  0.00    +0.000 C 
ATOM      4  N   UNL     1      -0.523  12.677  20.971  0.00  0.00    +0.000 N 
ATOM      5  C   UNL     1      -1.225  13.877  20.913  0.00  0.00    +0.000 C 
ATOM      6  O   UNL     1      -0.618  14.952  20.873  0.00  0.00    +0.000 OA
ATOM      7  C   UNL     1      -1.116  11.331  20.815  0.00  0.00    +0.000 C 
ATOM      8  C   UNL     1      -0.695  10.392  21.954  0.00  0.00    +0.000 C 
ATOM      9  C   UNL     1      -0.723  10.755  19.434  0.00  0.00    +0.000 C 
ENDROOT
BRANCH   1  13
ATOM     10  C   UNL     1       2.728   7.013  18.535  0.00  0.00    +0.000 A 
ATOM     11  C   UNL     1       2.618   8.007  17.560  0.00  0.00    +0.000 A 
ATOM     12  C   UNL     1       1.979   9.220  17.839  0.00  0.00    +0.000 A 
ATOM     13  C   UNL     1       1.377   9.475  19.076  0.00  0.00    +0.000 A 
ATOM     14  C   UNL     1       1.426   8.429  20.009  0.00  0.00    +0.000 A 
ATOM     15  C   UNL     1       2.078   7.203  19.760  0.00  0.00    +0.000 A 
BRANCH  10  17
ATOM     16  C   UNL     1       4.841   6.009  18.217  0.00  0.00    +0.000 C 
ATOM     17  O   UNL     1       3.422   5.861  18.287  0.00  0.00    +0.000 OA
ENDBRANCH  10  17
BRANCH  15  18
ATOM     18  O   UNL     1       1.966   6.331  20.814  0.00  0.00    +0.000 OA
ATOM     19  C   UNL     1       1.395   5.051  20.591  0.00  0.00    +0.000 C 
ENDBRANCH  15  18
ENDBRANCH   1  13
BRANCH   5  20
ATOM     20  C   UNL     1      -2.774  13.868  20.960  0.00  0.00    +0.000 C 
ATOM     21  C   UNL     1      -3.352  15.293  21.083  0.00  0.00    +0.000 C 
ATOM     22  C   UNL     1      -3.265  15.919  22.470  0.00  0.00    +0.000 C 
ATOM     23  C   UNL     1      -3.600  14.982  23.624  0.00  0.00    +0.000 C 
ATOM     24  C   UNL     1      -3.076  13.558  23.464  0.00  0.00    +0.000 C 
ATOM     25  C   UNL     1      -3.333  12.950  22.074  0.00  0.00    +0.000 C 
BRANCH  25  26
ATOM     26  C   UNL     1      -4.827  12.639  21.831  0.00  0.00    +0.000 C 
ATOM     27  O   UNL     1      -5.632  12.482  22.743  0.00  0.00    +0.000 OA
ATOM     28  N   UNL     1      -5.205  12.574  20.508  0.00  0.00    +0.000 N 
ATOM     29  H   UNL     1      -4.571  12.904  19.792  0.00  0.00    +0.000 HD
BRANCH  28  30
ATOM     30  C   UNL     1      -6.560  12.264  20.100  0.00  0.00    +0.000 C 
ATOM     31  C   UNL     1      -7.129  12.802  18.799  0.00  0.00    +0.000 C 
ATOM     32  C   UNL     1      -7.539  13.431  20.092  0.00  0.00    +0.000 C 
BRANCH  30  33
ATOM     33  C   UNL     1      -7.052  10.970  20.537  0.00  0.00    +0.000 C 
ATOM     34  N   UNL     1      -7.451   9.942  20.913  0.00  0.00    +0.000 NA
ENDBRANCH  30  33
ENDBRANCH  28  30
ENDBRANCH  25  26
ENDBRANCH   5  20
TORSDOF 7
ENDMDL
MODEL 3
REMARK VINA RESULT:      -6.5      1.236      1.559
REMARK  Name = 
REMARK  10 active torsions:
REMARK  status: ('A' for Active; 'I' for Inactive)
REMARK    1  A    between atoms: C_1  and  O_2
REMARK    2  A    between atoms: O_2  and  C_3
REMARK    3  A    between atoms: C_6  and  N_7
REMARK    4  A    between atoms: C_11  and  C_13
REMARK    5  A    between atoms: C_18  and  C_19
REMARK    6  A    between atoms: N_21  and  C_22
REMARK    7  A    between atoms: C_22  and  C_23
REMARK    8  A    between atoms: C_27  and  C_28
REMARK    9  A    between atoms: C_31  and  O_32
REMARK   10  A    between atoms: O_32  and  C_33
REMARK                            x       y       z     vdW  Elec       q    Type
REMARK                         _______ _______ _______ _____ _____    ______ ____
ROOT
ATOM      1  N   UNL     1       0.957  10.511  19.321  0.00  0.00    +0.000 N 
ATOM      2  C   UNL     1       1.704  11.750  19.617  0.00  0.00    +0.000 C 
ATOM      3  C   UNL     1       1.139  12.481  20.867  0.00  0.00    +0.000 C 
ATOM      4  N   UNL     1      -0.345  12.534  20.901  0.00  0.00    +0.000 N 
ATOM      5  C   UNL     1      -0.980  13.769  20.820  0.00  0.00    +0.000 C 
ATOM      6  O   UNL     1      -0.320  14.812  20.862  0.00  0.00    +0.000 OA
ATOM      7  C   UNL     1      -0.988  11.224  20.658  0.00  0.00    +0.000 C 
ATOM      8  C   UNL     1      -0.711  10.237  21.799  0.00  0.00    +0.000 C 
ATOM      9  C   UNL     1      -0.508  10.664  19.298  0.00  0.00    +0.000 C 
ENDROOT
BRANCH   1  13
ATOM     10  C   UNL     1       2.820   6.774  18.577  0.00  0.00    +0.000 A 
ATOM     11  C   UNL     1       2.782   7.772  17.602  0.00  0.00    +0.000 A 
ATOM     12  C   UNL     1       2.183   9.010  17.862  0.00  0.00    +0.000 A 
ATOM     13  C   UNL     1       1.549   9.287  19.078  0.00  0.00    +0.000 A 
ATOM     14  C   UNL     1       1.526   8.239  20.010  0.00  0.00    +0.000 A 
ATOM     15  C   UNL     1       2.136   6.987  19.781  0.00  0.00    +0.000 A 
BRANCH  10  17
ATOM     16  C   UNL     1       4.850   5.580  18.737  0.00  0.00    +0.000 C 
ATOM     17  O   UNL     1       3.475   5.595  18.350  0.00  0.00    +0.000 OA
ENDBRANCH  10  17
BRANCH  15  18
ATOM     18  O   UNL     1       1.953   6.120  20.827  0.00  0.00    +0.000 OA
ATOM     19  C   UNL     1       1.298   4.883  20.591  0.00  0.00    +0.000 C 
ENDBRANCH  15  18
ENDBRANCH   1  13
BRANCH   5  20
ATOM     20  C   UNL     1      -2.526  13.838  20.737  0.00  0.00    +0.000 C 
ATOM     21  C   UNL     1      -3.047  15.277  20.938  0.00  0.00    +0.000 C 
ATOM     22  C   UNL     1      -3.052  15.776  22.378  0.00  0.00    +0.000 C 
ATOM     23  C   UNL     1      -3.529  14.764  23.412  0.00  0.00    +0.000 C 
ATOM     24  C   UNL     1      -3.058  13.333  23.170  0.00  0.00    +0.000 C 
ATOM     25  C   UNL     1      -3.221  12.860  21.716  0.00  0.00    +0.000 C 
BRANCH  25  26
ATOM     26  C   UNL     1      -4.701  12.650  21.323  0.00  0.00    +0.000 C 
ATOM     27  O   UNL     1      -5.073  12.543  20.158  0.00  0.00    +0.000 OA
ATOM     28  N   UNL     1      -5.581  12.561  22.378  0.00  0.00    +0.000 N 
ATOM     29  H   UNL     1      -5.223  12.450  23.318  0.00  0.00    +0.000 HD
BRANCH  28  30
ATOM     30  C   UNL     1      -7.007  12.392  22.190  0.00  0.00    +0.000 C 
ATOM     31  C   UNL     1      -7.917  13.587  21.968  0.00  0.00    +0.000 C 
ATOM     32  C   UNL     1      -7.897  12.923  23.307  0.00  0.00    +0.000 C 
BRANCH  30  33
ATOM     33  C   UNL     1      -7.398  11.151  21.545  0.00  0.00    +0.000 C 
ATOM     34  N   UNL     1      -7.729  10.150  21.049  0.00  0.00    +0.000 NA
ENDBRANCH  30  33
ENDBRANCH  28  30
ENDBRANCH  25  26
ENDBRANCH   5  20
TORSDOF 7
ENDMDL
MODEL 4
REMARK VINA RESULT:      -6.5      3.118      5.235
REMARK  Name = 
REMARK  10 active torsions:
REMARK  status: ('A' for Active; 'I' for Inactive)
REMARK    1  A    between atoms: C_1  and  O_2
REMARK    2  A    between atoms: O_2  and  C_3
REMARK    3  A    between atoms: C_6  and  N_7
REMARK    4  A    between atoms: C_11  and  C_13
REMARK    5  A    between atoms: C_18  and  C_19
REMARK    6  A    between atoms: N_21  and  C_22
REMARK    7  A    between atoms: C_22  and  C_23
REMARK    8  A    between atoms: C_27  and  C_28
REMARK    9  A    between atoms: C_31  and  O_32
REMARK   10  A    between atoms: O_32  and  C_33
REMARK                            x       y       z     vdW  Elec       q    Type
REMARK                         _______ _______ _______ _____ _____    ______ ____
ROOT
ATOM      1  N   UNL     1       1.443   8.491  20.705  0.00  0.00    +0.000 N 
ATOM      2  C   UNL     1       0.657   8.524  21.955  0.00  0.00    +0.000 C 
ATOM      3  C   UNL     1      -0.527   9.528  21.868  0.00  0.00    +0.000 C 
ATOM      4  N   UNL     1      -0.160  10.822  21.237  0.00  0.00    +0.000 N 
ATOM      5  C   UNL     1      -0.210  11.984  22.000  0.00  0.00    +0.000 C 
ATOM      6  O   UNL     1      -0.687  11.961  23.139  0.00  0.00    +0.000 OA
ATOM      7  C   UNL     1       0.566  10.670  19.957  0.00  0.00    +0.000 C 
ATOM      8  C   UNL     1      -0.330  10.066  18.867  0.00  0.00    +0.000 C 
ATOM      9  C   UNL     1       1.833   9.812  20.186  0.00  0.00    +0.000 C 
ENDROOT
BRANCH   1  13
ATOM     10  C   UNL     1       2.596   4.940  18.692  0.00  0.00    +0.000 A 
ATOM     11  C   UNL     1       2.841   6.198  18.140  0.00  0.00    +0.000 A 
ATOM     12  C   UNL     1       2.475   7.366  18.820  0.00  0.00    +0.000 A 
ATOM     13  C   UNL     1       1.804   7.331  20.046  0.00  0.00    +0.000 A 
ATOM     14  C   UNL     1       1.493   6.056  20.540  0.00  0.00    +0.000 A 
ATOM     15  C   UNL     1       1.865   4.862  19.884  0.00  0.00    +0.000 A 
BRANCH  10  17
ATOM     16  C   UNL     1       3.983   4.007  17.025  0.00  0.00    +0.000 C 
ATOM     17  O   UNL     1       3.026   3.803  18.066  0.00  0.00    +0.000 OA
ENDBRANCH  10  17
BRANCH  15  18
ATOM     18  O   UNL     1       1.424   3.746  20.548  0.00  0.00    +0.000 OA
ATOM     19  C   UNL     1       2.225   3.201  21.586  0.00  0.00    +0.000 C 
ENDBRANCH  15  18
ENDBRANCH   1  13
BRANCH   5  20
ATOM     20  C   UNL     1       0.279  13.325  21.396  0.00  0.00    +0.000 C 
ATOM     21  C   UNL     1       0.028  14.510  22.353  0.00  0.00    +0.000 C 
ATOM     22  C   UNL     1      -1.412  15.006  22.418  0.00  0.00    +0.000 C 
ATOM     23  C   UNL     1      -2.126  15.096  21.074  0.00  0.00    +0.000 C 
ATOM     24  C   UNL     1      -1.823  13.951  20.112  0.00  0.00    +0.000 C 
ATOM     25  C   UNL     1      -0.328  13.608  20.000  0.00  0.00    +0.000 C 
BRANCH  25  26
ATOM     26  C   UNL     1       0.477  14.703  19.264  0.00  0.00    +0.000 C 
ATOM     27  O   UNL     1      -0.044  15.526  18.519  0.00  0.00    +0.000 OA
ATOM     28  N   UNL     1       1.830  14.710  19.522  0.00  0.00    +0.000 N 
ATOM     29  H   UNL     1       2.194  14.157  20.287  0.00  0.00    +0.000 HD
BRANCH  28  30
ATOM     30  C   UNL     1       2.738  15.649  18.896  0.00  0.00    +0.000 C 
ATOM     31  C   UNL     1       3.222  15.441  17.472  0.00  0.00    +0.000 C 
ATOM     32  C   UNL     1       4.142  15.133  18.610  0.00  0.00    +0.000 C 
BRANCH  30  33
ATOM     33  C   UNL     1       2.598  17.025  19.339  0.00  0.00    +0.000 C 
ATOM     34  N   UNL     1       2.460  18.128  19.688  0.00  0.00    +0.000 NA
ENDBRANCH  30  33
ENDBRANCH  28  30
ENDBRANCH  25  26
ENDBRANCH   5  20
TORSDOF 7
ENDMDL
MODEL 5
REMARK VINA RESULT:      -6.4      2.736      4.544
REMARK  Name = 
REMARK  10 active torsions:
REMARK  status: ('A' for Active; 'I' for Inactive)
REMARK    1  A    between atoms: C_1  and  O_2
REMARK    2  A    between atoms: O_2  and  C_3
REMARK    3  A    between atoms: C_6  and  N_7
REMARK    4  A    between atoms: C_11  and  C_13
REMARK    5  A    between atoms: C_18  and  C_19
REMARK    6  A    between atoms: N_21  and  C_22
REMARK    7  A    between atoms: C_22  and  C_23
REMARK    8  A    between atoms: C_27  and  C_28
REMARK    9  A    between atoms: C_31  and  O_32
REMARK   10  A    between atoms: O_32  and  C_33
REMARK                            x       y       z     vdW  Elec       q    Type
REMARK                         _______ _______ _______ _____ _____    ______ ____
ROOT
ATOM      1  N   UNL     1       1.527   8.358  20.426  0.00  0.00    +0.000 N 
ATOM      2  C   UNL     1       0.619   7.927  21.509  0.00  0.00    +0.000 C 
ATOM      3  C   UNL     1      -0.709   8.736  21.507  0.00  0.00    +0.000 C 
ATOM      4  N   UNL     1      -0.514  10.193  21.295  0.00  0.00    +0.000 N 
ATOM      5  C   UNL     1      -0.851  11.077  22.316  0.00  0.00    +0.000 C 
ATOM      6  O   UNL     1      -1.435  10.668  23.325  0.00  0.00    +0.000 OA
ATOM      7  C   UNL     1       0.359  10.511  20.143  0.00  0.00    +0.000 C 
ATOM      8  C   UNL     1      -0.294  10.114  18.812  0.00  0.00    +0.000 C 
ATOM      9  C   UNL     1       1.728   9.814  20.331  0.00  0.00    +0.000 C 
ENDROOT
BRANCH   1  13
ATOM     10  C   UNL     1       3.502   5.721  17.755  0.00  0.00    +0.000 A 
ATOM     11  C   UNL     1       3.356   7.078  17.459  0.00  0.00    +0.000 A 
ATOM     12  C   UNL     1       2.721   7.945  18.355  0.00  0.00    +0.000 A 
ATOM     13  C   UNL     1       2.156   7.493  19.552  0.00  0.00    +0.000 A 
ATOM     14  C   UNL     1       2.240   6.112  19.787  0.00  0.00    +0.000 A 
ATOM     15  C   UNL     1       2.889   5.218  18.909  0.00  0.00    +0.000 A 
BRANCH  10  17
ATOM     16  C   UNL     1       5.417   5.422  16.407  0.00  0.00    +0.000 C 
ATOM     17  O   UNL     1       4.193   4.891  16.916  0.00  0.00    +0.000 OA
ENDBRANCH  10  17
BRANCH  15  18
ATOM     18  O   UNL     1       2.814   3.918  19.341  0.00  0.00    +0.000 OA
ATOM     19  C   UNL     1       1.814   3.069  18.799  0.00  0.00    +0.000 C 
ENDBRANCH  15  18
ENDBRANCH   1  13
BRANCH   5  20
ATOM     20  C   UNL     1      -0.548  12.588  22.160  0.00  0.00    +0.000 C 
ATOM     21  C   UNL     1      -1.206  13.423  23.279  0.00  0.00    +0.000 C 
ATOM     22  C   UNL     1      -2.705  13.657  23.127  0.00  0.00    +0.000 C 
ATOM     23  C   UNL     1      -3.168  13.988  21.714  0.00  0.00    +0.000 C 
ATOM     24  C   UNL     1      -2.467  13.201  20.610  0.00  0.00    +0.000 C 
ATOM     25  C   UNL     1      -0.938  13.135  20.765  0.00  0.00    +0.000 C 
BRANCH  25  26
ATOM     26  C   UNL     1      -0.256  14.496  20.499  0.00  0.00    +0.000 C 
ATOM     27  O   UNL     1       0.684  14.913  21.168  0.00  0.00    +0.000 OA
ATOM     28  N   UNL     1      -0.760  15.206  19.432  0.00  0.00    +0.000 N 
ATOM     29  H   UNL     1      -1.390  14.751  18.783  0.00  0.00    +0.000 HD
BRANCH  28  30
ATOM     30  C   UNL     1      -0.257  16.512  19.058  0.00  0.00    +0.000 C 
ATOM     31  C   UNL     1      -0.678  17.760  19.814  0.00  0.00    +0.000 C 
ATOM     32  C   UNL     1      -1.278  17.480  18.473  0.00  0.00    +0.000 C 
BRANCH  30  33
ATOM     33  C   UNL     1       1.081  16.516  18.493  0.00  0.00    +0.000 C 
ATOM     34  N   UNL     1       2.143  16.521  18.015  0.00  0.00    +0.000 NA
ENDBRANCH  30  33
ENDBRANCH  28  30
ENDBRANCH  25  26
ENDBRANCH   5  20
TORSDOF 7
ENDMDL
MODEL 6
REMARK VINA RESULT:      -6.4      1.020      1.944
REMARK  Name = 
REMARK  10 active torsions:
REMARK  status: ('A' for Active; 'I' for Inactive)
REMARK    1  A    between atoms: C_1  and  O_2
REMARK    2  A    between atoms: O_2  and  C_3
REMARK    3  A    between atoms: C_6  and  N_7
REMARK    4  A    between atoms: C_11  and  C_13
REMARK    5  A    between atoms: C_18  and  C_19
REMARK    6  A    between atoms: N_21  and  C_22
REMARK    7  A    between atoms: C_22  and  C_23
REMARK    8  A    between atoms: C_27  and  C_28
REMARK    9  A    between atoms: C_31  and  O_32
REMARK   10  A    between atoms: O_32  and  C_33
REMARK                            x       y       z     vdW  Elec       q    Type
REMARK                         _______ _______ _______ _____ _____    ______ ____
ROOT
ATOM      1  N   UNL     1       0.623  10.370  19.748  0.00  0.00    +0.000 N 
ATOM      2  C   UNL     1       1.343  11.659  19.705  0.00  0.00    +0.000 C 
ATOM      3  C   UNL     1       0.890  12.614  20.845  0.00  0.00    +0.000 C 
ATOM      4  N   UNL     1      -0.582  12.641  21.043  0.00  0.00    +0.000 N 
ATOM      5  C   UNL     1      -1.276  13.821  20.796  0.00  0.00    +0.000 C 
ATOM      6  O   UNL     1      -0.662  14.865  20.554  0.00  0.00    +0.000 OA
ATOM      7  C   UNL     1      -1.190  11.296  21.139  0.00  0.00    +0.000 C 
ATOM      8  C   UNL     1      -0.745  10.563  22.411  0.00  0.00    +0.000 C 
ATOM      9  C   UNL     1      -0.841  10.485  19.868  0.00  0.00    +0.000 C 
ENDROOT
BRANCH   1  13
ATOM     10  C   UNL     1       2.469   6.557  19.544  0.00  0.00    +0.000 A 
ATOM     11  C   UNL     1       1.812   6.984  20.700  0.00  0.00    +0.000 A 
ATOM     12  C   UNL     1       1.188   8.236  20.752  0.00  0.00    +0.000 A 
ATOM     13  C   UNL     1       1.238   9.135  19.682  0.00  0.00    +0.000 A 
ATOM     14  C   UNL     1       1.975   8.718  18.564  0.00  0.00    +0.000 A 
ATOM     15  C   UNL     1       2.600   7.456  18.478  0.00  0.00    +0.000 A 
BRANCH  10  17
ATOM     16  C   UNL     1       2.627   4.411  20.514  0.00  0.00    +0.000 C 
ATOM     17  O   UNL     1       3.008   5.303  19.466  0.00  0.00    +0.000 OA
ENDBRANCH  10  17
BRANCH  15  18
ATOM     18  O   UNL     1       3.283   7.293  17.299  0.00  0.00    +0.000 OA
ATOM     19  C   UNL     1       4.671   6.998  17.342  0.00  0.00    +0.000 C 
ENDBRANCH  15  18
ENDBRANCH   1  13
BRANCH   5  20
ATOM     20  C   UNL     1      -2.823  13.840  20.884  0.00  0.00    +0.000 C 
ATOM     21  C   UNL     1      -3.376  15.279  20.957  0.00  0.00    +0.000 C 
ATOM     22  C   UNL     1      -3.240  15.965  22.311  0.00  0.00    +0.000 C 
ATOM     23  C   UNL     1      -3.558  15.088  23.515  0.00  0.00    +0.000 C 
ATOM     24  C   UNL     1      -3.061  13.649  23.407  0.00  0.00    +0.000 C 
ATOM     25  C   UNL     1      -3.365  12.984  22.054  0.00  0.00    +0.000 C 
BRANCH  25  26
ATOM     26  C   UNL     1      -4.870  12.686  21.865  0.00  0.00    +0.000 C 
ATOM     27  O   UNL     1      -5.653  12.588  22.805  0.00  0.00    +0.000 OA
ATOM     28  N   UNL     1      -5.285  12.564  20.558  0.00  0.00    +0.000 N 
ATOM     29  H   UNL     1      -4.665  12.848  19.810  0.00  0.00    +0.000 HD
BRANCH  28  30
ATOM     30  C   UNL     1      -6.654  12.259  20.200  0.00  0.00    +0.000 C 
ATOM     31  C   UNL     1      -7.268  12.792  18.918  0.00  0.00    +0.000 C 
ATOM     32  C   UNL     1      -7.629  13.430  20.221  0.00  0.00    +0.000 C 
BRANCH  30  33
ATOM     33  C   UNL     1      -7.136  10.969  20.661  0.00  0.00    +0.000 C 
ATOM     34  N   UNL     1      -7.521   9.925  21.005  0.00  0.00    +0.000 NA
ENDBRANCH  30  33
ENDBRANCH  28  30
ENDBRANCH  25  26
ENDBRANCH   5  20
TORSDOF 7
ENDMDL
MODEL 7
REMARK VINA RESULT:      -6.4      2.784      4.624
REMARK  Name = 
REMARK  10 active torsions:
REMARK  status: ('A' for Active; 'I' for Inactive)
REMARK    1  A    between atoms: C_1  and  O_2
REMARK    2  A    between atoms: O_2  and  C_3
REMARK    3  A    between atoms: C_6  and  N_7
REMARK    4  A    between atoms: C_11  and  C_13
REMARK    5  A    between atoms: C_18  and  C_19
REMARK    6  A    between atoms: N_21  and  C_22
REMARK    7  A    between atoms: C_22  and  C_23
REMARK    8  A    between atoms: C_27  and  C_28
REMARK    9  A    between atoms: C_31  and  O_32
REMARK   10  A    between atoms: O_32  and  C_33
REMARK                            x       y       z     vdW  Elec       q    Type
REMARK                         _______ _______ _______ _____ _____    ______ ____
ROOT
ATOM      1  N   UNL     1       1.570   8.401  20.371  0.00  0.00    +0.000 N 
ATOM      2  C   UNL     1       0.790   7.954  21.544  0.00  0.00    +0.000 C 
ATOM      3  C   UNL     1      -0.600   8.647  21.613  0.00  0.00    +0.000 C 
ATOM      4  N   UNL     1      -0.550  10.102  21.319  0.00  0.00    +0.000 N 
ATOM      5  C   UNL     1      -0.884  11.007  22.322  0.00  0.00    +0.000 C 
ATOM      6  O   UNL     1      -1.350  10.604  23.393  0.00  0.00    +0.000 OA
ATOM      7  C   UNL     1       0.200  10.430  20.087  0.00  0.00    +0.000 C 
ATOM      8  C   UNL     1      -0.517   9.911  18.833  0.00  0.00    +0.000 C 
ATOM      9  C   UNL     1       1.634   9.861  20.194  0.00  0.00    +0.000 C 
ENDROOT
BRANCH   1  13
ATOM     10  C   UNL     1       3.556   5.800  17.673  0.00  0.00    +0.000 A 
ATOM     11  C   UNL     1       3.322   7.139  17.351  0.00  0.00    +0.000 A 
ATOM     12  C   UNL     1       2.684   7.995  18.255  0.00  0.00    +0.000 A 
ATOM     13  C   UNL     1       2.203   7.547  19.490  0.00  0.00    +0.000 A 
ATOM     14  C   UNL     1       2.374   6.180  19.755  0.00  0.00    +0.000 A 
ATOM     15  C   UNL     1       3.029   5.298  18.869  0.00  0.00    +0.000 A 
BRANCH  10  17
ATOM     16  C   UNL     1       5.186   5.650  15.972  0.00  0.00    +0.000 C 
ATOM     17  O   UNL     1       4.251   4.985  16.823  0.00  0.00    +0.000 OA
ENDBRANCH  10  17
BRANCH  15  18
ATOM     18  O   UNL     1       3.046   4.009  19.337  0.00  0.00    +0.000 OA
ATOM     19  C   UNL     1       2.253   3.675  20.467  0.00  0.00    +0.000 C 
ENDBRANCH  15  18
ENDBRANCH   1  13
BRANCH   5  20
ATOM     20  C   UNL     1      -0.728  12.528  22.073  0.00  0.00    +0.000 C 
ATOM     21  C   UNL     1      -1.241  13.360  23.267  0.00  0.00    +0.000 C 
ATOM     22  C   UNL     1      -2.756  13.483  23.378  0.00  0.00    +0.000 C 
ATOM     23  C   UNL     1      -3.482  13.724  22.060  0.00  0.00    +0.000 C 
ATOM     24  C   UNL     1      -2.929  12.943  20.873  0.00  0.00    +0.000 C 
ATOM     25  C   UNL     1      -1.396  12.989  20.755  0.00  0.00    +0.000 C 
BRANCH  25  26
ATOM     26  C   UNL     1      -0.875  14.382  20.334  0.00  0.00    +0.000 C 
ATOM     27  O   UNL     1      -1.618  15.294  19.986  0.00  0.00    +0.000 OA
ATOM     28  N   UNL     1       0.491  14.543  20.402  0.00  0.00    +0.000 N 
ATOM     29  H   UNL     1       1.051  13.850  20.880  0.00  0.00    +0.000 HD
BRANCH  28  30
ATOM     30  C   UNL     1       1.150  15.774  20.018  0.00  0.00    +0.000 C 
ATOM     31  C   UNL     1       1.265  16.181  18.560  0.00  0.00    +0.000 C 
ATOM     32  C   UNL     1       2.463  15.623  19.260  0.00  0.00    +0.000 C 
BRANCH  30  33
ATOM     33  C   UNL     1       1.047  16.853  20.985  0.00  0.00    +0.000 C 
ATOM     34  N   UNL     1       0.945  17.703  21.775  0.00  0.00    +0.000 NA
ENDBRANCH  30  33
ENDBRANCH  28  30
ENDBRANCH  25  26
ENDBRANCH   5  20
TORSDOF 7
ENDMDL
MODEL 8
REMARK VINA RESULT:      -6.4      0.967      1.022
REMARK  Name = 
REMARK  10 active torsions:
REMARK  status: ('A' for Active; 'I' for Inactive)
REMARK    1  A    between atoms: C_1  and  O_2
REMARK    2  A    between atoms: O_2  and  C_3
REMARK    3  A    between atoms: C_6  and  N_7
REMARK    4  A    between atoms: C_11  and  C_13
REMARK    5  A    between atoms: C_18  and  C_19
REMARK    6  A    between atoms: N_21  and  C_22
REMARK    7  A    between atoms: C_22  and  C_23
REMARK    8  A    between atoms: C_27  and  C_28
REMARK    9  A    between atoms: C_31  and  O_32
REMARK   10  A    between atoms: O_32  and  C_33
REMARK                            x       y       z     vdW  Elec       q    Type
REMARK                         _______ _______ _______ _____ _____    ______ ____
ROOT
ATOM      1  N   UNL     1       0.879  10.485  19.270  0.00  0.00    +0.000 N 
ATOM      2  C   UNL     1       1.525  11.808  19.143  0.00  0.00    +0.000 C 
ATOM      3  C   UNL     1       1.229  12.716  20.369  0.00  0.00    +0.000 C 
ATOM      4  N   UNL     1      -0.188  12.668  20.812  0.00  0.00    +0.000 N 
ATOM      5  C   UNL     1      -0.965  13.818  20.719  0.00  0.00    +0.000 C 
ATOM      6  O   UNL     1      -0.447  14.896  20.407  0.00  0.00    +0.000 OA
ATOM      7  C   UNL     1      -0.711  11.293  20.971  0.00  0.00    +0.000 C 
ATOM      8  C   UNL     1      -0.025  10.557  22.130  0.00  0.00    +0.000 C 
ATOM      9  C   UNL     1      -0.546  10.526  19.637  0.00  0.00    +0.000 C 
ENDROOT
BRANCH   1  13
ATOM     10  C   UNL     1       2.914   6.815  18.652  0.00  0.00    +0.000 A 
ATOM     11  C   UNL     1       2.935   7.827  17.690  0.00  0.00    +0.000 A 
ATOM     12  C   UNL     1       2.278   9.043  17.910  0.00  0.00    +0.000 A 
ATOM     13  C   UNL     1       1.529   9.283  19.067  0.00  0.00    +0.000 A 
ATOM     14  C   UNL     1       1.452   8.220  19.979  0.00  0.00    +0.000 A 
ATOM     15  C   UNL     1       2.118   6.990  19.791  0.00  0.00    +0.000 A 
BRANCH  10  17
ATOM     16  C   UNL     1       5.023   5.834  18.249  0.00  0.00    +0.000 C 
ATOM     17  O   UNL     1       3.623   5.660  18.471  0.00  0.00    +0.000 OA
ENDBRANCH  10  17
BRANCH  15  18
ATOM     18  O   UNL     1       1.867   6.102  20.805  0.00  0.00    +0.000 OA
ATOM     19  C   UNL     1       1.215   4.877  20.503  0.00  0.00    +0.000 C 
ENDBRANCH  15  18
ENDBRANCH   1  13
BRANCH   5  20
ATOM     20  C   UNL     1      -2.474  13.761  21.067  0.00  0.00    +0.000 C 
ATOM     21  C   UNL     1      -3.132  15.155  20.999  0.00  0.00    +0.000 C 
ATOM     22  C   UNL     1      -2.844  16.074  22.180  0.00  0.00    +0.000 C 
ATOM     23  C   UNL     1      -2.889  15.402  23.547  0.00  0.00    +0.000 C 
ATOM     24  C   UNL     1      -2.291  13.999  23.590  0.00  0.00    +0.000 C 
ATOM     25  C   UNL     1      -2.747  13.091  22.435  0.00  0.00    +0.000 C 
BRANCH  25  26
ATOM     26  C   UNL     1      -4.231  12.677  22.557  0.00  0.00    +0.000 C 
ATOM     27  O   UNL     1      -4.685  12.110  23.546  0.00  0.00    +0.000 OA
ATOM     28  N   UNL     1      -5.024  13.012  21.483  0.00  0.00    +0.000 N 
ATOM     29  H   UNL     1      -4.670  13.650  20.782  0.00  0.00    +0.000 HD
BRANCH  28  30
ATOM     30  C   UNL     1      -6.431  12.676  21.419  0.00  0.00    +0.000 C 
ATOM     31  C   UNL     1      -6.896  11.355  20.832  0.00  0.00    +0.000 C 
ATOM     32  C   UNL     1      -7.040  12.605  20.024  0.00  0.00    +0.000 C 
BRANCH  30  33
ATOM     33  C   UNL     1      -7.245  13.233  22.485  0.00  0.00    +0.000 C 
ATOM     34  N   UNL     1      -7.899  13.705  23.326  0.00  0.00    +0.000 NA
ENDBRANCH  30  33
ENDBRANCH  28  30
ENDBRANCH  25  26
ENDBRANCH   5  20
TORSDOF 7
ENDMDL
MODEL 9
REMARK VINA RESULT:      -6.3      0.913      1.676
REMARK  Name = 
REMARK  10 active torsions:
REMARK  status: ('A' for Active; 'I' for Inactive)
REMARK    1  A    between atoms: C_1  and  O_2
REMARK    2  A    between atoms: O_2  and  C_3
REMARK    3  A    between atoms: C_6  and  N_7
REMARK    4  A    between atoms: C_11  and  C_13
REMARK    5  A    between atoms: C_18  and  C_19
REMARK    6  A    between atoms: N_21  and  C_22
REMARK    7  A    between atoms: C_22  and  C_23
REMARK    8  A    between atoms: C_27  and  C_28
REMARK    9  A    between atoms: C_31  and  O_32
REMARK   10  A    between atoms: O_32  and  C_33
REMARK                            x       y       z     vdW  Elec       q    Type
REMARK                         _______ _______ _______ _____ _____    ______ ____
ROOT
ATOM      1  N   UNL     1       0.842  10.046  19.632  0.00  0.00    +0.000 N 
ATOM      2  C   UNL     1       1.604  11.300  19.456  0.00  0.00    +0.000 C 
ATOM      3  C   UNL     1       1.282  12.334  20.571  0.00  0.00    +0.000 C 
ATOM      4  N   UNL     1      -0.167  12.433  20.884  0.00  0.00    +0.000 N 
ATOM      5  C   UNL     1      -0.835  13.626  20.625  0.00  0.00    +0.000 C 
ATOM      6  O   UNL     1      -0.204  14.629  20.275  0.00  0.00    +0.000 OA
ATOM      7  C   UNL     1      -0.815  11.122  21.107  0.00  0.00    +0.000 C 
ATOM      8  C   UNL     1      -0.293  10.442  22.380  0.00  0.00    +0.000 C 
ATOM      9  C   UNL     1      -0.601  10.228  19.862  0.00  0.00    +0.000 C 
ENDROOT
BRANCH   1  13
ATOM     10  C   UNL     1       2.522   6.154  19.497  0.00  0.00    +0.000 A 
ATOM     11  C   UNL     1       1.868   6.622  20.639  0.00  0.00    +0.000 A 
ATOM     12  C   UNL     1       1.299   7.901  20.668  0.00  0.00    +0.000 A 
ATOM     13  C   UNL     1       1.404   8.785  19.589  0.00  0.00    +0.000 A 
ATOM     14  C   UNL     1       2.139   8.323  18.487  0.00  0.00    +0.000 A 
ATOM     15  C   UNL     1       2.709   7.034  18.424  0.00  0.00    +0.000 A 
BRANCH  10  17
ATOM     16  C   UNL     1       2.107   3.908  18.903  0.00  0.00    +0.000 C 
ATOM     17  O   UNL     1       3.008   4.877  19.441  0.00  0.00    +0.000 OA
ENDBRANCH  10  17
BRANCH  15  18
ATOM     18  O   UNL     1       3.401   6.828  17.258  0.00  0.00    +0.000 OA
ATOM     19  C   UNL     1       4.818   6.916  17.273  0.00  0.00    +0.000 C 
ENDBRANCH  15  18
ENDBRANCH   1  13
BRANCH   5  20
ATOM     20  C   UNL     1      -2.367  13.714  20.836  0.00  0.00    +0.000 C 
ATOM     21  C   UNL     1      -2.857  15.177  20.873  0.00  0.00    +0.000 C 
ATOM     22  C   UNL     1      -2.586  15.927  22.172  0.00  0.00    +0.000 C 
ATOM     23  C   UNL     1      -2.836  15.127  23.445  0.00  0.00    +0.000 C 
ATOM     24  C   UNL     1      -2.404  13.665  23.377  0.00  0.00    +0.000 C 
ATOM     25  C   UNL     1      -2.843  12.944  22.091  0.00  0.00    +0.000 C 
BRANCH  25  26
ATOM     26  C   UNL     1      -4.368  12.700  22.040  0.00  0.00    +0.000 C 
ATOM     27  O   UNL     1      -5.042  12.477  23.041  0.00  0.00    +0.000 OA
ATOM     28  N   UNL     1      -4.934  12.778  20.787  0.00  0.00    +0.000 N 
ATOM     29  H   UNL     1      -4.395  13.160  20.020  0.00  0.00    +0.000 HD
BRANCH  28  30
ATOM     30  C   UNL     1      -6.344  12.549  20.553  0.00  0.00    +0.000 C 
ATOM     31  C   UNL     1      -6.914  11.143  20.504  0.00  0.00    +0.000 C 
ATOM     32  C   UNL     1      -6.705  11.892  19.227  0.00  0.00    +0.000 C 
BRANCH  30  33
ATOM     33  C   UNL     1      -7.226  13.588  21.055  0.00  0.00    +0.000 C 
ATOM     34  N   UNL     1      -7.913  14.430  21.477  0.00  0.00    +0.000 NA
ENDBRANCH  30  33
ENDBRANCH  28  30
ENDBRANCH  25  26
ENDBRANCH   5  20
TORSDOF 7
ENDMDL
