MODEL 1
REMARK VINA RESULT:      -6.7      0.000      0.000
REMARK  Name = 
REMARK  4 active torsions:
REMARK  status: ('A' for Active; 'I' for Inactive)
REMARK    1  A    between atoms: C_1  and  C_2
REMARK    2  A    between atoms: C_7  and  C_8
REMARK    3  A    between atoms: C_10  and  C_11
REMARK    4  A    between atoms: C_22  and  C_23
REMARK                            x       y       z     vdW  Elec       q    Type
REMARK                         _______ _______ _______ _____ _____    ______ ____
ROOT
ATOM      1  C   UNL     1      -3.114  12.516  20.064  0.00  0.00    +0.000 A 
ATOM      2  N   UNL     1      -4.226  13.317  20.128  0.00  0.00    +0.000 NA
ATOM      3  C   UNL     1      -4.147  13.977  21.261  0.00  0.00    +0.000 A 
ATOM      4  C   UNL     1      -5.128  14.982  21.735  0.00  0.00    +0.000 C 
ATOM      5  N   UNL     1      -3.008  13.626  21.944  0.00  0.00    +0.000 N 
ATOM      6  N   UNL     1      -2.603  14.101  23.137  0.00  0.00    +0.000 NA
ATOM      7  C   UNL     1      -1.465  13.618  23.527  0.00  0.00    +0.000 A 
ATOM      8  N   UNL     1      -0.673  12.713  22.861  0.00  0.00    +0.000 NA
ATOM      9  C   UNL     1      -1.082  12.207  21.723  0.00  0.00    +0.000 A 
ATOM     10  N   UNL     1      -0.294  11.233  21.122  0.00  0.00    +0.000 N 
ATOM     11  C   UNL     1      -0.689   9.816  21.212  0.00  0.00    +0.000 C 
ATOM     12  C   UNL     1       0.532   8.895  21.335  0.00  0.00    +0.000 C 
ATOM     13  C   UNL     1       1.350   9.114  20.089  0.00  0.00    +0.000 A 
ATOM     14  N   UNL     1       1.735   8.037  19.368  0.00  0.00    +0.000 NA
ATOM     15  C   UNL     1       2.238   8.257  18.136  0.00  0.00    +0.000 A 
ATOM     16  N   UNL     1       2.324   9.499  17.605  0.00  0.00    +0.000 NA
ATOM     17  C   UNL     1       1.961  10.550  18.385  0.00  0.00    +0.000 A 
ATOM     18  C   UNL     1       1.496  10.422  19.671  0.00  0.00    +0.000 A 
ATOM     19  C   UNL     1       1.042  11.534  20.584  0.00  0.00    +0.000 C 
ATOM     20  C   UNL     1      -2.324  12.700  21.193  0.00  0.00    +0.000 A 
ENDROOT
BRANCH   1  27
ATOM     21  C   UNL     1      -0.876  13.038  18.122  0.00  0.00    +0.000 C 
ATOM     22  C   UNL     1      -1.865  11.912  17.970  0.00  0.00    +0.000 A 
ATOM     23  C   UNL     1      -1.740  11.077  16.843  0.00  0.00    +0.000 A 
ATOM     24  C   UNL     1      -2.608  10.010  16.639  0.00  0.00    +0.000 A 
ATOM     25  C   UNL     1      -3.564   9.719  17.596  0.00  0.00    +0.000 A 
ATOM     26  C   UNL     1      -3.668  10.512  18.739  0.00  0.00    +0.000 A 
ATOM     27  C   UNL     1      -2.888  11.659  18.909  0.00  0.00    +0.000 A 
ENDBRANCH   1  27
BRANCH  15  28
ATOM     28  C   UNL     1       2.850   7.087  17.387  0.00  0.00    +0.000 C 
ATOM     29  C   UNL     1       4.334   6.793  17.475  0.00  0.00    +0.000 C 
ATOM     30  C   UNL     1       3.350   5.832  18.069  0.00  0.00    +0.000 C 
ENDBRANCH  15  28
TORSDOF 2
ENDMDL
MODEL 2
REMARK VINA RESULT:      -6.6      2.771      7.215
REMARK  Name = 
REMARK  4 active torsions:
REMARK  status: ('A' for Active; 'I' for Inactive)
REMARK    1  A    between atoms: C_1  and  C_2
REMARK    2  A    between atoms: C_7  and  C_8
REMARK    3  A    between atoms: C_10  and  C_11
REMARK    4  A    between atoms: C_22  and  C_23
REMARK                            x       y       z     vdW  Elec       q    Type
REMARK                         _______ _______ _______ _____ _____    ______ ____
ROOT
ATOM      1  C   UNL     1      -1.954  11.827  18.257  0.00  0.00    +0.000 A 
ATOM      2  N   UNL     1      -1.797  11.159  17.068  0.00  0.00    +0.000 NA
ATOM      3  C   UNL     1      -2.996  10.778  16.692  0.00  0.00    +0.000 A 
ATOM      4  C   UNL     1      -3.305  10.041  15.443  0.00  0.00    +0.000 C 
ATOM      5  N   UNL     1      -3.938  11.177  17.608  0.00  0.00    +0.000 N 
ATOM      6  N   UNL     1      -5.265  10.962  17.548  0.00  0.00    +0.000 NA
ATOM      7  C   UNL     1      -5.920  11.487  18.535  0.00  0.00    +0.000 A 
ATOM      8  N   UNL     1      -5.405  12.213  19.583  0.00  0.00    +0.000 NA
ATOM      9  C   UNL     1      -4.109  12.385  19.678  0.00  0.00    +0.000 A 
ATOM     10  N   UNL     1      -3.620  13.052  20.794  0.00  0.00    +0.000 N 
ATOM     11  C   UNL     1      -2.998  12.284  21.888  0.00  0.00    +0.000 C 
ATOM     12  C   UNL     1      -3.313  12.897  23.259  0.00  0.00    +0.000 C 
ATOM     13  C   UNL     1      -2.747  14.292  23.236  0.00  0.00    +0.000 A 
ATOM     14  N   UNL     1      -1.942  14.683  24.248  0.00  0.00    +0.000 NA
ATOM     15  C   UNL     1      -1.245  15.827  24.088  0.00  0.00    +0.000 A 
ATOM     16  N   UNL     1      -1.304  16.550  22.945  0.00  0.00    +0.000 NA
ATOM     17  C   UNL     1      -2.160  16.136  21.974  0.00  0.00    +0.000 A 
ATOM     18  C   UNL     1      -2.950  15.018  22.080  0.00  0.00    +0.000 A 
ATOM     19  C   UNL     1      -3.895  14.477  21.035  0.00  0.00    +0.000 C 
ATOM     20  C   UNL     1      -3.297  11.861  18.614  0.00  0.00    +0.000 A 
ENDROOT
BRANCH   1  27
ATOM     21  C   UNL     1      -0.257  10.201  20.134  0.00  0.00    +0.000 C 
ATOM     22  C   UNL     1      -0.019  11.660  19.850  0.00  0.00    +0.000 A 
ATOM     23  C   UNL     1       1.044  12.294  20.521  0.00  0.00    +0.000 A 
ATOM     24  C   UNL     1       1.333  13.637  20.302  0.00  0.00    +0.000 A 
ATOM     25  C   UNL     1       0.611  14.342  19.356  0.00  0.00    +0.000 A 
ATOM     26  C   UNL     1      -0.415  13.713  18.652  0.00  0.00    +0.000 A 
ATOM     27  C   UNL     1      -0.802  12.401  18.939  0.00  0.00    +0.000 A 
ENDBRANCH   1  27
BRANCH  15  28
ATOM     28  C   UNL     1      -0.484  16.382  25.278  0.00  0.00    +0.000 C 
ATOM     29  C   UNL     1      -1.128  17.380  26.220  0.00  0.00    +0.000 C 
ATOM     30  C   UNL     1      -0.791  16.006  26.711  0.00  0.00    +0.000 C 
ENDBRANCH  15  28
TORSDOF 2
ENDMDL
MODEL 3
REMARK VINA RESULT:      -6.5      0.534      1.337
REMARK  Name = 
REMARK  4 active torsions:
REMARK  status: ('A' for Active; 'I' for Inactive)
REMARK    1  A    between atoms: C_1  and  C_2
REMARK    2  A    between atoms: C_7  and  C_8
REMARK    3  A    between atoms: C_10  and  C_11
REMARK    4  A    between atoms: C_22  and  C_23
REMARK                            x       y       z     vdW  Elec       q    Type
REMARK                         _______ _______ _______ _____ _____    ______ ____
ROOT
ATOM      1  C   UNL     1      -3.458  12.636  20.056  0.00  0.00    +0.000 A 
ATOM      2  N   UNL     1      -4.598  13.398  20.115  0.00  0.00    +0.000 NA
ATOM      3  C   UNL     1      -4.556  14.046  21.257  0.00  0.00    +0.000 A 
ATOM      4  C   UNL     1      -5.577  15.012  21.729  0.00  0.00    +0.000 C 
ATOM      5  N   UNL     1      -3.415  13.725  21.951  0.00  0.00    +0.000 N 
ATOM      6  N   UNL     1      -3.042  14.198  23.154  0.00  0.00    +0.000 NA
ATOM      7  C   UNL     1      -1.893  13.749  23.554  0.00  0.00    +0.000 A 
ATOM      8  N   UNL     1      -1.062  12.880  22.888  0.00  0.00    +0.000 NA
ATOM      9  C   UNL     1      -1.439  12.374  21.739  0.00  0.00    +0.000 A 
ATOM     10  N   UNL     1      -0.611  11.435  21.137  0.00  0.00    +0.000 N 
ATOM     11  C   UNL     1      -0.959  10.005  21.205  0.00  0.00    +0.000 C 
ATOM     12  C   UNL     1       0.291   9.124  21.333  0.00  0.00    +0.000 C 
ATOM     13  C   UNL     1       1.116   9.385  20.101  0.00  0.00    +0.000 A 
ATOM     14  N   UNL     1       1.547   8.331  19.373  0.00  0.00    +0.000 NA
ATOM     15  C   UNL     1       2.059   8.582  18.151  0.00  0.00    +0.000 A 
ATOM     16  N   UNL     1       2.109   9.833  17.635  0.00  0.00    +0.000 NA
ATOM     17  C   UNL     1       1.701  10.862  18.423  0.00  0.00    +0.000 A 
ATOM     18  C   UNL     1       1.224  10.702  19.701  0.00  0.00    +0.000 A 
ATOM     19  C   UNL     1       0.721  11.787  20.621  0.00  0.00    +0.000 C 
ATOM     20  C   UNL     1      -2.690  12.832  21.198  0.00  0.00    +0.000 A 
ENDROOT
BRANCH   1  27
ATOM     21  C   UNL     1      -5.566  10.846  18.871  0.00  0.00    +0.000 C 
ATOM     22  C   UNL     1      -4.156  10.930  18.350  0.00  0.00    +0.000 A 
ATOM     23  C   UNL     1      -3.809  10.105  17.262  0.00  0.00    +0.000 A 
ATOM     24  C   UNL     1      -2.530  10.134  16.718  0.00  0.00    +0.000 A 
ATOM     25  C   UNL     1      -1.604  11.040  17.205  0.00  0.00    +0.000 A 
ATOM     26  C   UNL     1      -1.950  11.893  18.252  0.00  0.00    +0.000 A 
ATOM     27  C   UNL     1      -3.188  11.801  18.894  0.00  0.00    +0.000 A 
ENDBRANCH   1  27
BRANCH  15  28
ATOM     28  C   UNL     1       2.719   7.443  17.396  0.00  0.00    +0.000 C 
ATOM     29  C   UNL     1       4.176   7.093  17.628  0.00  0.00    +0.000 C 
ATOM     30  C   UNL     1       3.105   6.130  18.042  0.00  0.00    +0.000 C 
ENDBRANCH  15  28
TORSDOF 2
ENDMDL
MODEL 4
REMARK VINA RESULT:      -6.2      3.113      7.203
REMARK  Name = 
REMARK  4 active torsions:
REMARK  status: ('A' for Active; 'I' for Inactive)
REMARK    1  A    between atoms: C_1  and  C_2
REMARK    2  A    between atoms: C_7  and  C_8
REMARK    3  A    between atoms: C_10  and  C_11
REMARK    4  A    between atoms: C_22  and  C_23
REMARK                            x       y       z     vdW  Elec       q    Type
REMARK                         _______ _______ _______ _____ _____    ______ ____
ROOT
ATOM      1  C   UNL     1       1.383  13.587  19.082  0.00  0.00    +0.000 A 
ATOM      2  N   UNL     1       2.496  13.397  18.303  0.00  0.00    +0.000 NA
ATOM      3  C   UNL     1       3.345  14.346  18.625  0.00  0.00    +0.000 A 
ATOM      4  C   UNL     1       4.700  14.512  18.047  0.00  0.00    +0.000 C 
ATOM      5  N   UNL     1       2.814  15.158  19.598  0.00  0.00    +0.000 N 
ATOM      6  N   UNL     1       3.401  16.226  20.167  0.00  0.00    +0.000 NA
ATOM      7  C   UNL     1       2.679  16.784  21.087  0.00  0.00    +0.000 A 
ATOM      8  N   UNL     1       1.432  16.397  21.516  0.00  0.00    +0.000 NA
ATOM      9  C   UNL     1       0.831  15.388  20.934  0.00  0.00    +0.000 A 
ATOM     10  N   UNL     1      -0.463  15.079  21.337  0.00  0.00    +0.000 N 
ATOM     11  C   UNL     1      -1.604  15.477  20.494  0.00  0.00    +0.000 C 
ATOM     12  C   UNL     1      -2.818  15.883  21.340  0.00  0.00    +0.000 C 
ATOM     13  C   UNL     1      -3.188  14.671  22.153  0.00  0.00    +0.000 A 
ATOM     14  N   UNL     1      -4.471  14.247  22.140  0.00  0.00    +0.000 NA
ATOM     15  C   UNL     1      -4.733  13.029  22.658  0.00  0.00    +0.000 A 
ATOM     16  N   UNL     1      -3.755  12.227  23.140  0.00  0.00    +0.000 NA
ATOM     17  C   UNL     1      -2.488  12.716  23.168  0.00  0.00    +0.000 A 
ATOM     18  C   UNL     1      -2.143  13.967  22.718  0.00  0.00    +0.000 A 
ATOM     19  C   UNL     1      -0.758  14.565  22.683  0.00  0.00    +0.000 C 
ATOM     20  C   UNL     1       1.563  14.686  19.915  0.00  0.00    +0.000 A 
ENDROOT
BRANCH   1  27
ATOM     21  C   UNL     1       0.938  11.382  21.079  0.00  0.00    +0.000 C 
ATOM     22  C   UNL     1       0.046  11.620  19.889  0.00  0.00    +0.000 A 
ATOM     23  C   UNL     1      -1.040  10.744  19.698  0.00  0.00    +0.000 A 
ATOM     24  C   UNL     1      -1.914  10.906  18.629  0.00  0.00    +0.000 A 
ATOM     25  C   UNL     1      -1.758  11.989  17.782  0.00  0.00    +0.000 A 
ATOM     26  C   UNL     1      -0.713  12.889  17.988  0.00  0.00    +0.000 A 
ATOM     27  C   UNL     1       0.247  12.681  18.981  0.00  0.00    +0.000 A 
ENDBRANCH   1  27
BRANCH  15  28
ATOM     28  C   UNL     1      -6.183  12.613  22.825  0.00  0.00    +0.000 C 
ATOM     29  C   UNL     1      -6.960  12.973  24.077  0.00  0.00    +0.000 C 
ATOM     30  C   UNL     1      -7.341  13.585  22.764  0.00  0.00    +0.000 C 
ENDBRANCH  15  28
TORSDOF 2
ENDMDL
MODEL 5
REMARK VINA RESULT:      -6.2      3.786      5.545
REMARK  Name = 
REMARK  4 active torsions:
REMARK  status: ('A' for Active; 'I' for Inactive)
REMARK    1  A    between atoms: C_1  and  C_2
REMARK    2  A    between atoms: C_7  and  C_8
REMARK    3  A    between atoms: C_10  and  C_11
REMARK    4  A    between atoms: C_22  and  C_23
REMARK                            x       y       z     vdW  Elec       q    Type
REMARK                         _______ _______ _______ _____ _____    ______ ____
ROOT
ATOM      1  C   UNL     1      -4.001  13.109  22.159  0.00  0.00    +0.000 A 
ATOM      2  N   UNL     1      -5.092  12.339  22.476  0.00  0.00    +0.000 NA
ATOM      3  C   UNL     1      -5.876  13.088  23.218  0.00  0.00    +0.000 A 
ATOM      4  C   UNL     1      -7.188  12.670  23.767  0.00  0.00    +0.000 C 
ATOM      5  N   UNL     1      -5.323  14.333  23.398  0.00  0.00    +0.000 N 
ATOM      6  N   UNL     1      -5.846  15.355  24.100  0.00  0.00    +0.000 NA
ATOM      7  C   UNL     1      -5.122  16.429  24.068  0.00  0.00    +0.000 A 
ATOM      8  N   UNL     1      -3.928  16.609  23.411  0.00  0.00    +0.000 NA
ATOM      9  C   UNL     1      -3.385  15.605  22.766  0.00  0.00    +0.000 A 
ATOM     10  N   UNL     1      -2.139  15.801  22.185  0.00  0.00    +0.000 N 
ATOM     11  C   UNL     1      -0.935  15.259  22.839  0.00  0.00    +0.000 C 
ATOM     12  C   UNL     1       0.271  16.193  22.669  0.00  0.00    +0.000 C 
ATOM     13  C   UNL     1       0.509  16.305  21.186  0.00  0.00    +0.000 A 
ATOM     14  N   UNL     1       1.753  16.081  20.709  0.00  0.00    +0.000 NA
ATOM     15  C   UNL     1       1.896  15.934  19.376  0.00  0.00    +0.000 A 
ATOM     16  N   UNL     1       0.838  15.962  18.532  0.00  0.00    +0.000 NA
ATOM     17  C   UNL     1      -0.386  16.230  19.057  0.00  0.00    +0.000 A 
ATOM     18  C   UNL     1      -0.612  16.453  20.393  0.00  0.00    +0.000 A 
ATOM     19  C   UNL     1      -1.942  16.720  21.053  0.00  0.00    +0.000 C 
ATOM     20  C   UNL     1      -4.128  14.374  22.721  0.00  0.00    +0.000 A 
ENDROOT
BRANCH   1  27
ATOM     21  C   UNL     1      -1.677  11.596  23.326  0.00  0.00    +0.000 C 
ATOM     22  C   UNL     1      -1.824  11.893  21.857  0.00  0.00    +0.000 A 
ATOM     23  C   UNL     1      -0.802  11.453  20.994  0.00  0.00    +0.000 A 
ATOM     24  C   UNL     1      -0.871  11.680  19.624  0.00  0.00    +0.000 A 
ATOM     25  C   UNL     1      -1.997  12.282  19.091  0.00  0.00    +0.000 A 
ATOM     26  C   UNL     1      -3.037  12.681  19.931  0.00  0.00    +0.000 A 
ATOM     27  C   UNL     1      -2.938  12.573  21.321  0.00  0.00    +0.000 A 
ENDBRANCH   1  27
BRANCH  15  28
ATOM     28  C   UNL     1       3.300  15.871  18.803  0.00  0.00    +0.000 C 
ATOM     29  C   UNL     1       3.896  14.556  18.340  0.00  0.00    +0.000 C 
ATOM     30  C   UNL     1       3.590  15.626  17.338  0.00  0.00    +0.000 C 
ENDBRANCH  15  28
TORSDOF 2
ENDMDL
MODEL 6
REMARK VINA RESULT:      -6.2      3.200      7.601
REMARK  Name = 
REMARK  4 active torsions:
REMARK  status: ('A' for Active; 'I' for Inactive)
REMARK    1  A    between atoms: C_1  and  C_2
REMARK    2  A    between atoms: C_7  and  C_8
REMARK    3  A    between atoms: C_10  and  C_11
REMARK    4  A    between atoms: C_22  and  C_23
REMARK                            x       y       z     vdW  Elec       q    Type
REMARK                         _______ _______ _______ _____ _____    ______ ____
ROOT
ATOM      1  C   UNL     1      -2.694  12.396  19.455  0.00  0.00    +0.000 A 
ATOM      2  N   UNL     1      -2.570  11.806  18.222  0.00  0.00    +0.000 NA
ATOM      3  C   UNL     1      -3.774  11.414  17.872  0.00  0.00    +0.000 A 
ATOM      4  C   UNL     1      -4.116  10.746  16.594  0.00  0.00    +0.000 C 
ATOM      5  N   UNL     1      -4.686  11.730  18.849  0.00  0.00    +0.000 N 
ATOM      6  N   UNL     1      -6.008  11.480  18.830  0.00  0.00    +0.000 NA
ATOM      7  C   UNL     1      -6.634  11.925  19.874  0.00  0.00    +0.000 A 
ATOM      8  N   UNL     1      -6.094  12.601  20.943  0.00  0.00    +0.000 NA
ATOM      9  C   UNL     1      -4.801  12.805  20.995  0.00  0.00    +0.000 A 
ATOM     10  N   UNL     1      -4.282  13.417  22.129  0.00  0.00    +0.000 N 
ATOM     11  C   UNL     1      -3.594  12.602  23.147  0.00  0.00    +0.000 C 
ATOM     12  C   UNL     1      -3.866  13.121  24.565  0.00  0.00    +0.000 C 
ATOM     13  C   UNL     1      -3.339  14.531  24.605  0.00  0.00    +0.000 A 
ATOM     14  N   UNL     1      -2.501  14.883  25.605  0.00  0.00    +0.000 NA
ATOM     15  C   UNL     1      -1.843  16.055  25.487  0.00  0.00    +0.000 A 
ATOM     16  N   UNL     1      -1.970  16.844  24.395  0.00  0.00    +0.000 NA
ATOM     17  C   UNL     1      -2.854  16.465  23.436  0.00  0.00    +0.000 A 
ATOM     18  C   UNL     1      -3.610  15.320  23.505  0.00  0.00    +0.000 A 
ATOM     19  C   UNL     1      -4.584  14.816  22.468  0.00  0.00    +0.000 C 
ATOM     20  C   UNL     1      -4.021  12.369  19.868  0.00  0.00    +0.000 A 
ENDROOT
BRANCH   1  27
ATOM     21  C   UNL     1      -0.477  10.657  20.508  0.00  0.00    +0.000 C 
ATOM     22  C   UNL     1      -0.500  12.155  20.654  0.00  0.00    +0.000 A 
ATOM     23  C   UNL     1       0.568  12.764  21.342  0.00  0.00    +0.000 A 
ATOM     24  C   UNL     1       0.622  14.143  21.508  0.00  0.00    +0.000 A 
ATOM     25  C   UNL     1      -0.349  14.937  20.924  0.00  0.00    +0.000 A 
ATOM     26  C   UNL     1      -1.387  14.349  20.202  0.00  0.00    +0.000 A 
ATOM     27  C   UNL     1      -1.530  12.961  20.123  0.00  0.00    +0.000 A 
ENDBRANCH   1  27
BRANCH  15  28
ATOM     28  C   UNL     1      -1.047  16.559  26.677  0.00  0.00    +0.000 C 
ATOM     29  C   UNL     1       0.446  16.803  26.571  0.00  0.00    +0.000 C 
ATOM     30  C   UNL     1      -0.484  17.960  26.769  0.00  0.00    +0.000 C 
ENDBRANCH  15  28
TORSDOF 2
ENDMDL
MODEL 7
REMARK VINA RESULT:      -6.1      3.549      5.260
REMARK  Name = 
REMARK  4 active torsions:
REMARK  status: ('A' for Active; 'I' for Inactive)
REMARK    1  A    between atoms: C_1  and  C_2
REMARK    2  A    between atoms: C_7  and  C_8
REMARK    3  A    between atoms: C_10  and  C_11
REMARK    4  A    between atoms: C_22  and  C_23
REMARK                            x       y       z     vdW  Elec       q    Type
REMARK                         _______ _______ _______ _____ _____    ______ ____
ROOT
ATOM      1  C   UNL     1      -3.468  12.900  22.729  0.00  0.00    +0.000 A 
ATOM      2  N   UNL     1      -4.570  12.256  23.232  0.00  0.00    +0.000 NA
ATOM      3  C   UNL     1      -5.408  13.192  23.616  0.00  0.00    +0.000 A 
ATOM      4  C   UNL     1      -6.749  12.950  24.199  0.00  0.00    +0.000 C 
ATOM      5  N   UNL     1      -4.880  14.438  23.379  0.00  0.00    +0.000 N 
ATOM      6  N   UNL     1      -5.458  15.624  23.645  0.00  0.00    +0.000 NA
ATOM      7  C   UNL     1      -4.743  16.641  23.280  0.00  0.00    +0.000 A 
ATOM      8  N   UNL     1      -3.510  16.617  22.672  0.00  0.00    +0.000 NA
ATOM      9  C   UNL     1      -2.917  15.469  22.455  0.00  0.00    +0.000 A 
ATOM     10  N   UNL     1      -1.637  15.489  21.915  0.00  0.00    +0.000 N 
ATOM     11  C   UNL     1      -0.473  15.249  22.787  0.00  0.00    +0.000 C 
ATOM     12  C   UNL     1       0.732  16.102  22.370  0.00  0.00    +0.000 C 
ATOM     13  C   UNL     1       1.066  15.695  20.959  0.00  0.00    +0.000 A 
ATOM     14  N   UNL     1       2.341  15.359  20.664  0.00  0.00    +0.000 NA
ATOM     15  C   UNL     1       2.573  14.759  19.479  0.00  0.00    +0.000 A 
ATOM     16  N   UNL     1       1.572  14.456  18.619  0.00  0.00    +0.000 NA
ATOM     17  C   UNL     1       0.314  14.851  18.943  0.00  0.00    +0.000 A 
ATOM     18  C   UNL     1      -0.002  15.521  20.100  0.00  0.00    +0.000 A 
ATOM     19  C   UNL     1      -1.375  15.960  20.546  0.00  0.00    +0.000 C 
ATOM     20  C   UNL     1      -3.643  14.278  22.802  0.00  0.00    +0.000 A 
ENDROOT
BRANCH   1  27
ATOM     21  C   UNL     1      -2.930  12.739  19.773  0.00  0.00    +0.000 C 
ATOM     22  C   UNL     1      -2.104  12.025  20.810  0.00  0.00    +0.000 A 
ATOM     23  C   UNL     1      -1.037  11.223  20.360  0.00  0.00    +0.000 A 
ATOM     24  C   UNL     1      -0.223  10.541  21.257  0.00  0.00    +0.000 A 
ATOM     25  C   UNL     1      -0.416  10.712  22.616  0.00  0.00    +0.000 A 
ATOM     26  C   UNL     1      -1.441  11.539  23.075  0.00  0.00    +0.000 A 
ATOM     27  C   UNL     1      -2.347  12.139  22.195  0.00  0.00    +0.000 A 
ENDBRANCH   1  27
BRANCH  15  28
ATOM     28  C   UNL     1       4.012  14.544  19.047  0.00  0.00    +0.000 C 
ATOM     29  C   UNL     1       4.573  15.245  17.825  0.00  0.00    +0.000 C 
ATOM     30  C   UNL     1       5.088  15.598  19.186  0.00  0.00    +0.000 C 
ENDBRANCH  15  28
TORSDOF 2
ENDMDL
MODEL 8
REMARK VINA RESULT:      -6.1      3.193      7.624
REMARK  Name = 
REMARK  4 active torsions:
REMARK  status: ('A' for Active; 'I' for Inactive)
REMARK    1  A    between atoms: C_1  and  C_2
REMARK    2  A    between atoms: C_7  and  C_8
REMARK    3  A    between atoms: C_10  and  C_11
REMARK    4  A    between atoms: C_22  and  C_23
REMARK                            x       y       z     vdW  Elec       q    Type
REMARK                         _______ _______ _______ _____ _____    ______ ____
ROOT
ATOM      1  C   UNL     1       0.644  15.755  19.749  0.00  0.00    +0.000 A 
ATOM      2  N   UNL     1       1.575  16.566  19.151  0.00  0.00    +0.000 NA
ATOM      3  C   UNL     1       2.414  15.774  18.523  0.00  0.00    +0.000 A 
ATOM      4  C   UNL     1       3.572  16.224  17.714  0.00  0.00    +0.000 C 
ATOM      5  N   UNL     1       2.056  14.459  18.696  0.00  0.00    +0.000 N 
ATOM      6  N   UNL     1       2.684  13.379  18.197  0.00  0.00    +0.000 NA
ATOM      7  C   UNL     1       2.101  12.259  18.491  0.00  0.00    +0.000 A 
ATOM      8  N   UNL     1       0.953  12.087  19.228  0.00  0.00    +0.000 NA
ATOM      9  C   UNL     1       0.362  13.129  19.760  0.00  0.00    +0.000 A 
ATOM     10  N   UNL     1      -0.748  12.907  20.566  0.00  0.00    +0.000 N 
ATOM     11  C   UNL     1      -0.611  12.980  22.032  0.00  0.00    +0.000 C 
ATOM     12  C   UNL     1      -1.503  11.948  22.736  0.00  0.00    +0.000 C 
ATOM     13  C   UNL     1      -2.918  12.279  22.343  0.00  0.00    +0.000 A 
ATOM     14  N   UNL     1      -3.847  12.414  23.315  0.00  0.00    +0.000 NA
ATOM     15  C   UNL     1      -5.035  12.955  22.975  0.00  0.00    +0.000 A 
ATOM     16  N   UNL     1      -5.293  13.393  21.721  0.00  0.00    +0.000 NA
ATOM     17  C   UNL     1      -4.341  13.198  20.771  0.00  0.00    +0.000 A 
ATOM     18  C   UNL     1      -3.129  12.601  21.017  0.00  0.00    +0.000 A 
ATOM     19  C   UNL     1      -2.012  12.382  20.027  0.00  0.00    +0.000 C 
ATOM     20  C   UNL     1       0.919  14.421  19.469  0.00  0.00    +0.000 A 
ENDROOT
BRANCH   1  27
ATOM     21  C   UNL     1       0.948  16.432  22.664  0.00  0.00    +0.000 C 
ATOM     22  C   UNL     1      -0.333  16.619  21.895  0.00  0.00    +0.000 A 
ATOM     23  C   UNL     1      -1.450  17.117  22.593  0.00  0.00    +0.000 A 
ATOM     24  C   UNL     1      -2.665  17.327  21.950  0.00  0.00    +0.000 A 
ATOM     25  C   UNL     1      -2.758  17.112  20.586  0.00  0.00    +0.000 A 
ATOM     26  C   UNL     1      -1.645  16.661  19.875  0.00  0.00    +0.000 A 
ATOM     27  C   UNL     1      -0.450  16.330  20.519  0.00  0.00    +0.000 A 
ENDBRANCH   1  27
BRANCH  15  28
ATOM     28  C   UNL     1      -6.154  12.943  24.001  0.00  0.00    +0.000 C 
ATOM     29  C   UNL     1      -7.199  14.041  24.029  0.00  0.00    +0.000 C 
ATOM     30  C   UNL     1      -7.597  12.647  23.654  0.00  0.00    +0.000 C 
ENDBRANCH  15  28
TORSDOF 2
ENDMDL
MODEL 9
REMARK VINA RESULT:      -6.1      1.579      2.583
REMARK  Name = 
REMARK  4 active torsions:
REMARK  status: ('A' for Active; 'I' for Inactive)
REMARK    1  A    between atoms: C_1  and  C_2
REMARK    2  A    between atoms: C_7  and  C_8
REMARK    3  A    between atoms: C_10  and  C_11
REMARK    4  A    between atoms: C_22  and  C_23
REMARK                            x       y       z     vdW  Elec       q    Type
REMARK                         _______ _______ _______ _____ _____    ______ ____
ROOT
ATOM      1  C   UNL     1      -3.835  13.970  21.826  0.00  0.00    +0.000 A 
ATOM      2  N   UNL     1      -4.912  14.782  22.079  0.00  0.00    +0.000 NA
ATOM      3  C   UNL     1      -4.633  15.441  23.180  0.00  0.00    +0.000 A 
ATOM      4  C   UNL     1      -5.509  16.456  23.814  0.00  0.00    +0.000 C 
ATOM      5  N   UNL     1      -3.398  15.078  23.659  0.00  0.00    +0.000 N 
ATOM      6  N   UNL     1      -2.790  15.549  24.763  0.00  0.00    +0.000 NA
ATOM      7  C   UNL     1      -1.607  15.055  24.953  0.00  0.00    +0.000 A 
ATOM      8  N   UNL     1      -0.949  14.142  24.163  0.00  0.00    +0.000 NA
ATOM      9  C   UNL     1      -1.553  13.640  23.113  0.00  0.00    +0.000 A 
ATOM     10  N   UNL     1      -0.889  12.659  22.387  0.00  0.00    +0.000 N 
ATOM     11  C   UNL     1      -1.277  11.246  22.546  0.00  0.00    +0.000 C 
ATOM     12  C   UNL     1      -0.062  10.312  22.459  0.00  0.00    +0.000 C 
ATOM     13  C   UNL     1       0.532  10.523  21.091  0.00  0.00    +0.000 A 
ATOM     14  N   UNL     1       0.778   9.443  20.317  0.00  0.00    +0.000 NA
ATOM     15  C   UNL     1       1.065   9.657  19.017  0.00  0.00    +0.000 A 
ATOM     16  N   UNL     1       1.070  10.899  18.477  0.00  0.00    +0.000 NA
ATOM     17  C   UNL     1       0.857  11.953  19.306  0.00  0.00    +0.000 A 
ATOM     18  C   UNL     1       0.618  11.829  20.653  0.00  0.00    +0.000 A 
ATOM     19  C   UNL     1       0.338  12.946  21.628  0.00  0.00    +0.000 C 
ATOM     20  C   UNL     1      -2.862  14.146  22.803  0.00  0.00    +0.000 A 
ENDROOT
BRANCH   1  27
ATOM     21  C   UNL     1      -6.260  12.404  20.979  0.00  0.00    +0.000 C 
ATOM     22  C   UNL     1      -4.937  12.343  20.262  0.00  0.00    +0.000 A 
ATOM     23  C   UNL     1      -4.834  11.486  19.149  0.00  0.00    +0.000 A 
ATOM     24  C   UNL     1      -3.648  11.383  18.429  0.00  0.00    +0.000 A 
ATOM     25  C   UNL     1      -2.576  12.190  18.767  0.00  0.00    +0.000 A 
ATOM     26  C   UNL     1      -2.682  13.075  19.839  0.00  0.00    +0.000 A 
ATOM     27  C   UNL     1      -3.819  13.111  20.650  0.00  0.00    +0.000 A 
ENDBRANCH   1  27
BRANCH  15  28
ATOM     28  C   UNL     1       1.527   8.481  18.176  0.00  0.00    +0.000 C 
ATOM     29  C   UNL     1       2.977   8.344  17.756  0.00  0.00    +0.000 C 
ATOM     30  C   UNL     1       2.385   7.358  18.715  0.00  0.00    +0.000 C 
ENDBRANCH  15  28
TORSDOF 2
ENDMDL
