MODEL 1
REMARK VINA RESULT:      -7.9      0.000      0.000
REMARK  Name = 
REMARK  7 active torsions:
REMARK  status: ('A' for Active; 'I' for Inactive)
REMARK    1  A    between atoms: C_1  and  C_2
REMARK    2  A    between atoms: C_10  and  N_11
REMARK    3  A    between atoms: N_11  and  C_12
REMARK    4  A    between atoms: C_12  and  C_13
REMARK    5  A    between atoms: C_13  and  C_14
REMARK    6  A    between atoms: C_14  and  C_15
REMARK    7  A    between atoms: N_18  and  C_19
REMARK                            x       y       z     vdW  Elec       q    Type
REMARK                         _______ _______ _______ _____ _____    ______ ____
ROOT
ATOM      1  C   UNL     1       1.060   2.571  22.104  0.00  0.00    +0.000 C 
ATOM      2  C   UNL     1       2.264   2.830  21.264  0.00  0.00    +0.000 A 
ATOM      3  C   UNL     1       3.299   1.940  21.071  0.00  0.00    +0.000 A 
ATOM      4  S   UNL     1       4.458   2.513  19.963  0.00  0.00    +0.000 S 
ATOM      5  C   UNL     1       3.629   4.009  19.743  0.00  0.00    +0.000 A 
ATOM      6  C   UNL     1       3.923   5.097  18.895  0.00  0.00    +0.000 A 
ATOM      7  N   UNL     1       4.967   5.074  17.964  0.00  0.00    +0.000 N 
ATOM      8  C   UNL     1       4.753   5.951  16.806  0.00  0.00    +0.000 C 
ATOM      9  C   UNL     1       5.762   5.589  15.715  0.00  0.00    +0.000 C 
ATOM     10  C   UNL     1       7.217   5.615  16.221  0.00  0.00    +0.000 C 
ATOM     11  C   UNL     1       7.317   4.760  17.499  0.00  0.00    +0.000 C 
ATOM     12  C   UNL     1       6.302   5.197  18.555  0.00  0.00    +0.000 C 
ATOM     13  N   UNL     1       3.066   6.148  18.922  0.00  0.00    +0.000 NA
ATOM     14  C   UNL     1       2.000   6.102  19.731  0.00  0.00    +0.000 A 
ATOM     15  N   UNL     1       1.635   5.107  20.542  0.00  0.00    +0.000 NA
ATOM     16  C   UNL     1       2.477   4.045  20.525  0.00  0.00    +0.000 A 
ENDROOT
BRANCH  10  17
ATOM     17  N   UNL     1       7.664   7.012  16.380  0.00  0.00    +0.000 NA
ATOM     18  H   UNL     1       7.115   7.640  15.794  0.00  0.00    +0.000 HD
BRANCH  17  19
ATOM     19  C   UNL     1       7.631   7.462  17.769  0.00  0.00    +0.000 C 
BRANCH  19  20
ATOM     20  C   UNL     1       7.893   8.964  17.866  0.00  0.00    +0.000 C 
BRANCH  20  21
ATOM     21  C   UNL     1       8.951   9.228  18.941  0.00  0.00    +0.000 C 
BRANCH  21  22
ATOM     22  C   UNL     1       9.248  10.671  19.112  0.00  0.00    +0.000 A 
ATOM     23  C   UNL     1       9.765  11.324  20.254  0.00  0.00    +0.000 A 
ATOM     24  N   UNL     1       9.940  12.631  20.063  0.00  0.00    +0.000 NA
ATOM     25  N   UNL     1       9.529  12.825  18.798  0.00  0.00    +0.000 N 
ATOM     26  C   UNL     1       9.591  14.137  18.203  0.00  0.00    +0.000 C 
ATOM     27  C   UNL     1       9.100  11.682  18.189  0.00  0.00    +0.000 A 
ENDBRANCH  21  22
ENDBRANCH  20  21
ENDBRANCH  19  20
ENDBRANCH  17  19
ENDBRANCH  10  17
TORSDOF 5
ENDMDL
MODEL 2
REMARK VINA RESULT:      -7.7      4.951      8.396
REMARK  Name = 
REMARK  7 active torsions:
REMARK  status: ('A' for Active; 'I' for Inactive)
REMARK    1  A    between atoms: C_1  and  C_2
REMARK    2  A    between atoms: C_10  and  N_11
REMARK    3  A    between atoms: N_11  and  C_12
REMARK    4  A    between atoms: C_12  and  C_13
REMARK    5  A    between atoms: C_13  and  C_14
REMARK    6  A    between atoms: C_14  and  C_15
REMARK    7  A    between atoms: N_18  and  C_19
REMARK                            x       y       z     vdW  Elec       q    Type
REMARK                         _______ _______ _______ _____ _____    ______ ____
ROOT
ATOM      1  C   UNL     1      -0.075  15.437  19.037  0.00  0.00    +0.000 C 
ATOM      2  C   UNL     1       0.629  14.147  18.789  0.00  0.00    +0.000 A 
ATOM      3  C   UNL     1       1.919  14.030  18.316  0.00  0.00    +0.000 A 
ATOM      4  S   UNL     1       2.450  12.413  18.256  0.00  0.00    +0.000 S 
ATOM      5  C   UNL     1       0.936  11.808  18.818  0.00  0.00    +0.000 A 
ATOM      6  C   UNL     1       0.535  10.488  19.107  0.00  0.00    +0.000 A 
ATOM      7  N   UNL     1       1.413   9.399  19.064  0.00  0.00    +0.000 N 
ATOM      8  C   UNL     1       1.032   8.290  19.948  0.00  0.00    +0.000 C 
ATOM      9  C   UNL     1       2.218   7.332  20.082  0.00  0.00    +0.000 C 
ATOM     10  C   UNL     1       2.748   6.851  18.718  0.00  0.00    +0.000 C 
ATOM     11  C   UNL     1       3.011   8.079  17.823  0.00  0.00    +0.000 C 
ATOM     12  C   UNL     1       1.777   8.973  17.710  0.00  0.00    +0.000 C 
ATOM     13  N   UNL     1      -0.732  10.314  19.558  0.00  0.00    +0.000 NA
ATOM     14  C   UNL     1      -1.524  11.384  19.712  0.00  0.00    +0.000 A 
ATOM     15  N   UNL     1      -1.217  12.662  19.488  0.00  0.00    +0.000 NA
ATOM     16  C   UNL     1       0.047  12.857  19.040  0.00  0.00    +0.000 A 
ENDROOT
BRANCH  10  17
ATOM     17  N   UNL     1       1.819   5.860  18.142  0.00  0.00    +0.000 NA
ATOM     18  H   UNL     1       2.060   5.653  17.174  0.00  0.00    +0.000 HD
BRANCH  17  19
ATOM     19  C   UNL     1       1.755   4.626  18.920  0.00  0.00    +0.000 C 
BRANCH  19  20
ATOM     20  C   UNL     1       1.691   3.404  18.005  0.00  0.00    +0.000 C 
BRANCH  20  21
ATOM     21  C   UNL     1       2.945   2.550  18.209  0.00  0.00    +0.000 C 
BRANCH  21  22
ATOM     22  C   UNL     1       4.198   3.339  18.111  0.00  0.00    +0.000 A 
ATOM     23  C   UNL     1       5.059   3.740  19.157  0.00  0.00    +0.000 A 
ATOM     24  N   UNL     1       6.119   4.419  18.720  0.00  0.00    +0.000 NA
ATOM     25  N   UNL     1       5.940   4.462  17.388  0.00  0.00    +0.000 N 
ATOM     26  C   UNL     1       6.914   5.105  16.541  0.00  0.00    +0.000 C 
ATOM     27  C   UNL     1       4.801   3.835  16.976  0.00  0.00    +0.000 A 
ENDBRANCH  21  22
ENDBRANCH  20  21
ENDBRANCH  19  20
ENDBRANCH  17  19
ENDBRANCH  10  17
TORSDOF 5
ENDMDL
MODEL 3
REMARK VINA RESULT:      -7.5      3.234      5.776
REMARK  Name = 
REMARK  7 active torsions:
REMARK  status: ('A' for Active; 'I' for Inactive)
REMARK    1  A    between atoms: C_1  and  C_2
REMARK    2  A    between atoms: C_10  and  N_11
REMARK    3  A    between atoms: N_11  and  C_12
REMARK    4  A    between atoms: C_12  and  C_13
REMARK    5  A    between atoms: C_13  and  C_14
REMARK    6  A    between atoms: C_14  and  C_15
REMARK    7  A    between atoms: N_18  and  C_19
REMARK                            x       y       z     vdW  Elec       q    Type
REMARK                         _______ _______ _______ _____ _____    ______ ____
ROOT
ATOM      1  C   UNL     1      -0.429  12.271  20.761  0.00  0.00    +0.000 C 
ATOM      2  C   UNL     1       0.030  10.854  20.816  0.00  0.00    +0.000 A 
ATOM      3  C   UNL     1      -0.331   9.945  21.787  0.00  0.00    +0.000 A 
ATOM      4  S   UNL     1       0.283   8.385  21.484  0.00  0.00    +0.000 S 
ATOM      5  C   UNL     1       1.103   8.895  20.055  0.00  0.00    +0.000 A 
ATOM      6  C   UNL     1       1.858   8.153  19.125  0.00  0.00    +0.000 A 
ATOM      7  N   UNL     1       1.982   6.760  19.185  0.00  0.00    +0.000 N 
ATOM      8  C   UNL     1       2.237   6.127  17.885  0.00  0.00    +0.000 C 
ATOM      9  C   UNL     1       2.008   4.620  18.012  0.00  0.00    +0.000 C 
ATOM     10  C   UNL     1       2.830   3.990  19.153  0.00  0.00    +0.000 C 
ATOM     11  C   UNL     1       2.582   4.789  20.448  0.00  0.00    +0.000 C 
ATOM     12  C   UNL     1       2.860   6.280  20.255  0.00  0.00    +0.000 C 
ATOM     13  N   UNL     1       2.376   8.830  18.071  0.00  0.00    +0.000 NA
ATOM     14  C   UNL     1       2.144  10.145  17.961  0.00  0.00    +0.000 A 
ATOM     15  N   UNL     1       1.424  10.915  18.778  0.00  0.00    +0.000 NA
ATOM     16  C   UNL     1       0.894  10.255  19.836  0.00  0.00    +0.000 A 
ENDROOT
BRANCH  10  17
ATOM     17  N   UNL     1       4.246   3.892  18.753  0.00  0.00    +0.000 NA
ATOM     18  H   UNL     1       4.757   3.261  19.369  0.00  0.00    +0.000 HD
BRANCH  17  19
ATOM     19  C   UNL     1       4.414   3.482  17.362  0.00  0.00    +0.000 C 
BRANCH  19  20
ATOM     20  C   UNL     1       5.653   4.128  16.744  0.00  0.00    +0.000 C 
BRANCH  20  21
ATOM     21  C   UNL     1       6.606   4.568  17.858  0.00  0.00    +0.000 C 
BRANCH  21  22
ATOM     22  C   UNL     1       6.996   5.996  17.750  0.00  0.00    +0.000 A 
ATOM     23  C   UNL     1       6.463   6.980  16.888  0.00  0.00    +0.000 A 
ATOM     24  N   UNL     1       7.022   8.177  17.067  0.00  0.00    +0.000 NA
ATOM     25  N   UNL     1       7.921   7.964  18.044  0.00  0.00    +0.000 N 
ATOM     26  C   UNL     1       8.725   9.051  18.545  0.00  0.00    +0.000 C 
ATOM     27  C   UNL     1       7.947   6.672  18.481  0.00  0.00    +0.000 A 
ENDBRANCH  21  22
ENDBRANCH  20  21
ENDBRANCH  19  20
ENDBRANCH  17  19
ENDBRANCH  10  17
TORSDOF 5
ENDMDL
MODEL 4
REMARK VINA RESULT:      -7.4      4.000      7.266
REMARK  Name = 
REMARK  7 active torsions:
REMARK  status: ('A' for Active; 'I' for Inactive)
REMARK    1  A    between atoms: C_1  and  C_2
REMARK    2  A    between atoms: C_10  and  N_11
REMARK    3  A    between atoms: N_11  and  C_12
REMARK    4  A    between atoms: C_12  and  C_13
REMARK    5  A    between atoms: C_13  and  C_14
REMARK    6  A    between atoms: C_14  and  C_15
REMARK    7  A    between atoms: N_18  and  C_19
REMARK                            x       y       z     vdW  Elec       q    Type
REMARK                         _______ _______ _______ _____ _____    ______ ____
ROOT
ATOM      1  C   UNL     1       8.083   5.536  12.801  0.00  0.00    +0.000 C 
ATOM      2  C   UNL     1       7.060   4.860  13.648  0.00  0.00    +0.000 A 
ATOM      3  C   UNL     1       6.202   3.873  13.212  0.00  0.00    +0.000 A 
ATOM      4  S   UNL     1       5.240   3.240  14.468  0.00  0.00    +0.000 S 
ATOM      5  C   UNL     1       5.915   4.313  15.637  0.00  0.00    +0.000 A 
ATOM      6  C   UNL     1       5.679   4.413  17.024  0.00  0.00    +0.000 A 
ATOM      7  N   UNL     1       4.863   3.516  17.722  0.00  0.00    +0.000 N 
ATOM      8  C   UNL     1       5.210   3.376  19.143  0.00  0.00    +0.000 C 
ATOM      9  C   UNL     1       4.501   2.143  19.708  0.00  0.00    +0.000 C 
ATOM     10  C   UNL     1       2.980   2.171  19.466  0.00  0.00    +0.000 C 
ATOM     11  C   UNL     1       2.716   2.435  17.971  0.00  0.00    +0.000 C 
ATOM     12  C   UNL     1       3.428   3.696  17.483  0.00  0.00    +0.000 C 
ATOM     13  N   UNL     1       6.380   5.355  17.702  0.00  0.00    +0.000 NA
ATOM     14  C   UNL     1       7.251   6.126  17.037  0.00  0.00    +0.000 A 
ATOM     15  N   UNL     1       7.552   6.080  15.739  0.00  0.00    +0.000 NA
ATOM     16  C   UNL     1       6.864   5.141  15.044  0.00  0.00    +0.000 A 
ENDROOT
BRANCH  10  17
ATOM     17  N   UNL     1       2.347   3.140  20.381  0.00  0.00    +0.000 NA
ATOM     18  H   UNL     1       2.908   3.988  20.459  0.00  0.00    +0.000 HD
BRANCH  17  19
ATOM     19  C   UNL     1       0.980   3.474  19.994  0.00  0.00    +0.000 C 
BRANCH  19  20
ATOM     20  C   UNL     1       0.578   4.848  20.529  0.00  0.00    +0.000 C 
BRANCH  20  21
ATOM     21  C   UNL     1       1.835   5.686  20.774  0.00  0.00    +0.000 C 
BRANCH  21  22
ATOM     22  C   UNL     1       1.707   7.075  20.267  0.00  0.00    +0.000 A 
ATOM     23  C   UNL     1       1.210   8.208  20.949  0.00  0.00    +0.000 A 
ATOM     24  N   UNL     1       1.258   9.316  20.210  0.00  0.00    +0.000 NA
ATOM     25  N   UNL     1       1.783   8.896  19.045  0.00  0.00    +0.000 N 
ATOM     26  C   UNL     1       2.022   9.831  17.973  0.00  0.00    +0.000 C 
ATOM     27  C   UNL     1       2.063   7.561  19.029  0.00  0.00    +0.000 A 
ENDBRANCH  21  22
ENDBRANCH  20  21
ENDBRANCH  19  20
ENDBRANCH  17  19
ENDBRANCH  10  17
TORSDOF 5
ENDMDL
MODEL 5
REMARK VINA RESULT:      -7.4      3.895      7.043
REMARK  Name = 
REMARK  7 active torsions:
REMARK  status: ('A' for Active; 'I' for Inactive)
REMARK    1  A    between atoms: C_1  and  C_2
REMARK    2  A    between atoms: C_10  and  N_11
REMARK    3  A    between atoms: N_11  and  C_12
REMARK    4  A    between atoms: C_12  and  C_13
REMARK    5  A    between atoms: C_13  and  C_14
REMARK    6  A    between atoms: C_14  and  C_15
REMARK    7  A    between atoms: N_18  and  C_19
REMARK                            x       y       z     vdW  Elec       q    Type
REMARK                         _______ _______ _______ _____ _____    ______ ____
ROOT
ATOM      1  C   UNL     1       8.047   5.391  12.964  0.00  0.00    +0.000 C 
ATOM      2  C   UNL     1       6.999   4.814  13.852  0.00  0.00    +0.000 A 
ATOM      3  C   UNL     1       6.076   3.864  13.469  0.00  0.00    +0.000 A 
ATOM      4  S   UNL     1       5.097   3.343  14.762  0.00  0.00    +0.000 S 
ATOM      5  C   UNL     1       5.852   4.422  15.876  0.00  0.00    +0.000 A 
ATOM      6  C   UNL     1       5.643   4.595  17.259  0.00  0.00    +0.000 A 
ATOM      7  N   UNL     1       4.785   3.779  18.006  0.00  0.00    +0.000 N 
ATOM      8  C   UNL     1       5.144   3.679  19.427  0.00  0.00    +0.000 C 
ATOM      9  C   UNL     1       4.371   2.516  20.053  0.00  0.00    +0.000 C 
ATOM     10  C   UNL     1       2.851   2.626  19.829  0.00  0.00    +0.000 C 
ATOM     11  C   UNL     1       2.581   2.842  18.327  0.00  0.00    +0.000 C 
ATOM     12  C   UNL     1       3.360   4.036  17.777  0.00  0.00    +0.000 C 
ATOM     13  N   UNL     1       6.409   5.520  17.888  0.00  0.00    +0.000 NA
ATOM     14  C   UNL     1       7.315   6.208  17.180  0.00  0.00    +0.000 A 
ATOM     15  N   UNL     1       7.594   6.090  15.881  0.00  0.00    +0.000 NA
ATOM     16  C   UNL     1       6.841   5.166  15.237  0.00  0.00    +0.000 A 
ENDROOT
BRANCH  10  17
ATOM     17  N   UNL     1       2.291   3.670  20.710  0.00  0.00    +0.000 NA
ATOM     18  H   UNL     1       3.033   4.182  21.185  0.00  0.00    +0.000 HD
BRANCH  17  19
ATOM     19  C   UNL     1       1.413   4.597  20.001  0.00  0.00    +0.000 C 
BRANCH  19  20
ATOM     20  C   UNL     1       1.755   6.046  20.344  0.00  0.00    +0.000 C 
BRANCH  20  21
ATOM     21  C   UNL     1       2.300   6.749  19.098  0.00  0.00    +0.000 C 
BRANCH  21  22
ATOM     22  C   UNL     1       1.910   8.179  19.030  0.00  0.00    +0.000 A 
ATOM     23  C   UNL     1       2.235   9.123  18.029  0.00  0.00    +0.000 A 
ATOM     24  N   UNL     1       1.700  10.321  18.260  0.00  0.00    +0.000 NA
ATOM     25  N   UNL     1       1.032  10.153  19.415  0.00  0.00    +0.000 N 
ATOM     26  C   UNL     1       0.284  11.243  19.991  0.00  0.00    +0.000 C 
ATOM     27  C   UNL     1       1.134   8.890  19.918  0.00  0.00    +0.000 A 
ENDBRANCH  21  22
ENDBRANCH  20  21
ENDBRANCH  19  20
ENDBRANCH  17  19
ENDBRANCH  10  17
TORSDOF 5
ENDMDL
MODEL 6
REMARK VINA RESULT:      -7.2      4.668      7.796
REMARK  Name = 
REMARK  7 active torsions:
REMARK  status: ('A' for Active; 'I' for Inactive)
REMARK    1  A    between atoms: C_1  and  C_2
REMARK    2  A    between atoms: C_10  and  N_11
REMARK    3  A    between atoms: N_11  and  C_12
REMARK    4  A    between atoms: C_12  and  C_13
REMARK    5  A    between atoms: C_13  and  C_14
REMARK    6  A    between atoms: C_14  and  C_15
REMARK    7  A    between atoms: N_18  and  C_19
REMARK                            x       y       z     vdW  Elec       q    Type
REMARK                         _______ _______ _______ _____ _____    ______ ____
ROOT
ATOM      1  C   UNL     1       0.553  15.142  18.997  0.00  0.00    +0.000 C 
ATOM      2  C   UNL     1       1.115  13.782  18.762  0.00  0.00    +0.000 A 
ATOM      3  C   UNL     1       2.306  13.521  18.118  0.00  0.00    +0.000 A 
ATOM      4  S   UNL     1       2.703  11.864  18.123  0.00  0.00    +0.000 S 
ATOM      5  C   UNL     1       1.252  11.434  18.950  0.00  0.00    +0.000 A 
ATOM      6  C   UNL     1       0.804  10.179  19.408  0.00  0.00    +0.000 A 
ATOM      7  N   UNL     1       1.584   9.019  19.333  0.00  0.00    +0.000 N 
ATOM      8  C   UNL     1       1.262   8.016  20.356  0.00  0.00    +0.000 C 
ATOM      9  C   UNL     1       2.381   6.973  20.399  0.00  0.00    +0.000 C 
ATOM     10  C   UNL     1       2.661   6.348  19.019  0.00  0.00    +0.000 C 
ATOM     11  C   UNL     1       2.874   7.477  17.992  0.00  0.00    +0.000 C 
ATOM     12  C   UNL     1       1.706   8.463  17.983  0.00  0.00    +0.000 C 
ATOM     13  N   UNL     1      -0.388  10.148  20.053  0.00  0.00    +0.000 NA
ATOM     14  C   UNL     1      -1.067  11.290  20.226  0.00  0.00    +0.000 A 
ATOM     15  N   UNL     1      -0.706  12.517  19.849  0.00  0.00    +0.000 NA
ATOM     16  C   UNL     1       0.486  12.568  19.207  0.00  0.00    +0.000 A 
ENDROOT
BRANCH  10  17
ATOM     17  N   UNL     1       1.585   5.399  18.674  0.00  0.00    +0.000 NA
ATOM     18  H   UNL     1       0.715   5.891  18.473  0.00  0.00    +0.000 HD
BRANCH  17  19
ATOM     19  C   UNL     1       1.938   4.525  17.559  0.00  0.00    +0.000 C 
BRANCH  19  20
ATOM     20  C   UNL     1       2.821   3.369  18.027  0.00  0.00    +0.000 C 
BRANCH  20  21
ATOM     21  C   UNL     1       4.150   3.405  17.268  0.00  0.00    +0.000 C 
BRANCH  21  22
ATOM     22  C   UNL     1       5.149   4.301  17.903  0.00  0.00    +0.000 A 
ATOM     23  C   UNL     1       5.504   4.378  19.269  0.00  0.00    +0.000 A 
ATOM     24  N   UNL     1       6.462   5.276  19.500  0.00  0.00    +0.000 NA
ATOM     25  N   UNL     1       6.722   5.783  18.283  0.00  0.00    +0.000 N 
ATOM     26  C   UNL     1       7.742   6.788  18.113  0.00  0.00    +0.000 C 
ATOM     27  C   UNL     1       5.956   5.236  17.295  0.00  0.00    +0.000 A 
ENDBRANCH  21  22
ENDBRANCH  20  21
ENDBRANCH  19  20
ENDBRANCH  17  19
ENDBRANCH  10  17
TORSDOF 5
ENDMDL
MODEL 7
REMARK VINA RESULT:      -7.2      4.588      6.774
REMARK  Name = 
REMARK  7 active torsions:
REMARK  status: ('A' for Active; 'I' for Inactive)
REMARK    1  A    between atoms: C_1  and  C_2
REMARK    2  A    between atoms: C_10  and  N_11
REMARK    3  A    between atoms: N_11  and  C_12
REMARK    4  A    between atoms: C_12  and  C_13
REMARK    5  A    between atoms: C_13  and  C_14
REMARK    6  A    between atoms: C_14  and  C_15
REMARK    7  A    between atoms: N_18  and  C_19
REMARK                            x       y       z     vdW  Elec       q    Type
REMARK                         _______ _______ _______ _____ _____    ______ ____
ROOT
ATOM      1  C   UNL     1      -0.076  11.594  20.794  0.00  0.00    +0.000 C 
ATOM      2  C   UNL     1       0.460  10.204  20.823  0.00  0.00    +0.000 A 
ATOM      3  C   UNL     1       0.359   9.341  21.893  0.00  0.00    +0.000 A 
ATOM      4  S   UNL     1       0.979   7.793  21.548  0.00  0.00    +0.000 S 
ATOM      5  C   UNL     1       1.454   8.249  19.954  0.00  0.00    +0.000 A 
ATOM      6  C   UNL     1       2.039   7.483  18.924  0.00  0.00    +0.000 A 
ATOM      7  N   UNL     1       2.247   6.103  19.028  0.00  0.00    +0.000 N 
ATOM      8  C   UNL     1       2.260   5.403  17.736  0.00  0.00    +0.000 C 
ATOM      9  C   UNL     1       2.143   3.898  17.986  0.00  0.00    +0.000 C 
ATOM     10  C   UNL     1       3.217   3.374  18.959  0.00  0.00    +0.000 C 
ATOM     11  C   UNL     1       3.202   4.240  20.234  0.00  0.00    +0.000 C 
ATOM     12  C   UNL     1       3.353   5.726  19.911  0.00  0.00    +0.000 C 
ATOM     13  N   UNL     1       2.288   8.116  17.751  0.00  0.00    +0.000 NA
ATOM     14  C   UNL     1       1.968   9.411  17.626  0.00  0.00    +0.000 A 
ATOM     15  N   UNL     1       1.393  10.198  18.536  0.00  0.00    +0.000 NA
ATOM     16  C   UNL     1       1.132   9.582  19.714  0.00  0.00    +0.000 A 
ENDROOT
BRANCH  10  17
ATOM     17  N   UNL     1       4.523   3.312  18.274  0.00  0.00    +0.000 NA
ATOM     18  H   UNL     1       4.416   3.463  17.271  0.00  0.00    +0.000 HD
BRANCH  17  19
ATOM     19  C   UNL     1       5.496   4.250  18.825  0.00  0.00    +0.000 C 
BRANCH  19  20
ATOM     20  C   UNL     1       6.439   4.764  17.738  0.00  0.00    +0.000 C 
BRANCH  20  21
ATOM     21  C   UNL     1       5.620   5.406  16.616  0.00  0.00    +0.000 C 
BRANCH  21  22
ATOM     22  C   UNL     1       6.013   4.922  15.269  0.00  0.00    +0.000 A 
ATOM     23  C   UNL     1       7.214   5.174  14.570  0.00  0.00    +0.000 A 
ATOM     24  N   UNL     1       7.259   4.562  13.387  0.00  0.00    +0.000 NA
ATOM     25  N   UNL     1       6.081   3.917  13.319  0.00  0.00    +0.000 N 
ATOM     26  C   UNL     1       5.759   3.102  12.174  0.00  0.00    +0.000 C 
ATOM     27  C   UNL     1       5.298   4.107  14.420  0.00  0.00    +0.000 A 
ENDBRANCH  21  22
ENDBRANCH  20  21
ENDBRANCH  19  20
ENDBRANCH  17  19
ENDBRANCH  10  17
TORSDOF 5
ENDMDL
MODEL 8
REMARK VINA RESULT:      -7.2      1.687      2.146
REMARK  Name = 
REMARK  7 active torsions:
REMARK  status: ('A' for Active; 'I' for Inactive)
REMARK    1  A    between atoms: C_1  and  C_2
REMARK    2  A    between atoms: C_10  and  N_11
REMARK    3  A    between atoms: N_11  and  C_12
REMARK    4  A    between atoms: C_12  and  C_13
REMARK    5  A    between atoms: C_13  and  C_14
REMARK    6  A    between atoms: C_14  and  C_15
REMARK    7  A    between atoms: N_18  and  C_19
REMARK                            x       y       z     vdW  Elec       q    Type
REMARK                         _______ _______ _______ _____ _____    ______ ____
ROOT
ATOM      1  C   UNL     1       0.579   2.022  18.981  0.00  0.00    +0.000 C 
ATOM      2  C   UNL     1       1.974   2.544  19.045  0.00  0.00    +0.000 A 
ATOM      3  C   UNL     1       3.080   1.798  19.390  0.00  0.00    +0.000 A 
ATOM      4  S   UNL     1       4.533   2.677  19.251  0.00  0.00    +0.000 S 
ATOM      5  C   UNL     1       3.712   4.115  18.767  0.00  0.00    +0.000 A 
ATOM      6  C   UNL     1       4.225   5.373  18.390  0.00  0.00    +0.000 A 
ATOM      7  N   UNL     1       5.595   5.625  18.254  0.00  0.00    +0.000 N 
ATOM      8  C   UNL     1       5.912   6.700  17.305  0.00  0.00    +0.000 C 
ATOM      9  C   UNL     1       7.406   6.651  16.979  0.00  0.00    +0.000 C 
ATOM     10  C   UNL     1       8.289   6.690  18.241  0.00  0.00    +0.000 C 
ATOM     11  C   UNL     1       7.809   5.602  19.221  0.00  0.00    +0.000 C 
ATOM     12  C   UNL     1       6.317   5.731  19.524  0.00  0.00    +0.000 C 
ATOM     13  N   UNL     1       3.326   6.324  18.036  0.00  0.00    +0.000 NA
ATOM     14  C   UNL     1       2.020   6.027  18.053  0.00  0.00    +0.000 A 
ATOM     15  N   UNL     1       1.454   4.862  18.370  0.00  0.00    +0.000 NA
ATOM     16  C   UNL     1       2.337   3.897  18.723  0.00  0.00    +0.000 A 
ENDROOT
BRANCH  10  17
ATOM     17  N   UNL     1       8.303   8.056  18.798  0.00  0.00    +0.000 NA
ATOM     18  H   UNL     1       9.125   8.203  19.382  0.00  0.00    +0.000 HD
BRANCH  17  19
ATOM     19  C   UNL     1       8.226   9.088  17.768  0.00  0.00    +0.000 C 
BRANCH  19  20
ATOM     20  C   UNL     1       8.655  10.447  18.319  0.00  0.00    +0.000 C 
BRANCH  20  21
ATOM     21  C   UNL     1       9.525  10.240  19.562  0.00  0.00    +0.000 C 
BRANCH  21  22
ATOM     22  C   UNL     1       9.608  11.453  20.412  0.00  0.00    +0.000 A 
ATOM     23  C   UNL     1      10.427  12.590  20.230  0.00  0.00    +0.000 A 
ATOM     24  N   UNL     1      10.235  13.518  21.167  0.00  0.00    +0.000 NA
ATOM     25  N   UNL     1       9.293  12.977  21.960  0.00  0.00    +0.000 N 
ATOM     26  C   UNL     1       8.790  13.707  23.097  0.00  0.00    +0.000 C 
ATOM     27  C   UNL     1       8.891  11.739  21.553  0.00  0.00    +0.000 A 
ENDBRANCH  21  22
ENDBRANCH  20  21
ENDBRANCH  19  20
ENDBRANCH  17  19
ENDBRANCH  10  17
TORSDOF 5
ENDMDL
MODEL 9
REMARK VINA RESULT:      -7.2      0.902      1.122
REMARK  Name = 
REMARK  7 active torsions:
REMARK  status: ('A' for Active; 'I' for Inactive)
REMARK    1  A    between atoms: C_1  and  C_2
REMARK    2  A    between atoms: C_10  and  N_11
REMARK    3  A    between atoms: N_11  and  C_12
REMARK    4  A    between atoms: C_12  and  C_13
REMARK    5  A    between atoms: C_13  and  C_14
REMARK    6  A    between atoms: C_14  and  C_15
REMARK    7  A    between atoms: N_18  and  C_19
REMARK                            x       y       z     vdW  Elec       q    Type
REMARK                         _______ _______ _______ _____ _____    ______ ____
ROOT
ATOM      1  C   UNL     1       1.098   2.392  22.062  0.00  0.00    +0.000 C 
ATOM      2  C   UNL     1       2.270   2.850  21.263  0.00  0.00    +0.000 A 
ATOM      3  C   UNL     1       3.362   2.070  20.946  0.00  0.00    +0.000 A 
ATOM      4  S   UNL     1       4.465   2.871  19.925  0.00  0.00    +0.000 S 
ATOM      5  C   UNL     1       3.531   4.321  19.918  0.00  0.00    +0.000 A 
ATOM      6  C   UNL     1       3.739   5.534  19.229  0.00  0.00    +0.000 A 
ATOM      7  N   UNL     1       4.771   5.714  18.301  0.00  0.00    +0.000 N 
ATOM      8  C   UNL     1       4.482   6.726  17.276  0.00  0.00    +0.000 C 
ATOM      9  C   UNL     1       5.501   6.590  16.143  0.00  0.00    +0.000 C 
ATOM     10  C   UNL     1       6.956   6.648  16.644  0.00  0.00    +0.000 C 
ATOM     11  C   UNL     1       7.131   5.633  17.790  0.00  0.00    +0.000 C 
ATOM     12  C   UNL     1       6.101   5.847  18.899  0.00  0.00    +0.000 C 
ATOM     13  N   UNL     1       2.812   6.508  19.403  0.00  0.00    +0.000 NA
ATOM     14  C   UNL     1       1.761   6.275  20.201  0.00  0.00    +0.000 A 
ATOM     15  N   UNL     1       1.477   5.155  20.866  0.00  0.00    +0.000 NA
ATOM     16  C   UNL     1       2.390   4.167  20.700  0.00  0.00    +0.000 A 
ENDROOT
BRANCH  10  17
ATOM     17  N   UNL     1       7.308   8.037  16.995  0.00  0.00    +0.000 NA
ATOM     18  H   UNL     1       6.470   8.601  17.134  0.00  0.00    +0.000 HD
BRANCH  17  19
ATOM     19  C   UNL     1       8.173   8.123  18.168  0.00  0.00    +0.000 C 
BRANCH  19  20
ATOM     20  C   UNL     1       9.189   9.255  18.019  0.00  0.00    +0.000 C 
BRANCH  20  21
ATOM     21  C   UNL     1       8.910  10.330  19.073  0.00  0.00    +0.000 C 
BRANCH  21  22
ATOM     22  C   UNL     1       9.427  11.664  18.681  0.00  0.00    +0.000 A 
ATOM     23  C   UNL     1      10.450  11.964  17.754  0.00  0.00    +0.000 A 
ATOM     24  N   UNL     1      10.650  13.274  17.614  0.00  0.00    +0.000 NA
ATOM     25  N   UNL     1       9.758  13.822  18.458  0.00  0.00    +0.000 N 
ATOM     26  C   UNL     1       9.648  15.256  18.573  0.00  0.00    +0.000 C 
ATOM     27  C   UNL     1       9.007  12.899  19.124  0.00  0.00    +0.000 A 
ENDBRANCH  21  22
ENDBRANCH  20  21
ENDBRANCH  19  20
ENDBRANCH  17  19
ENDBRANCH  10  17
TORSDOF 5
ENDMDL
