MODEL 1
REMARK VINA RESULT:      -7.8      0.000      0.000
REMARK  Name = 
REMARK  4 active torsions:
REMARK  status: ('A' for Active; 'I' for Inactive)
REMARK    1  A    between atoms: C_1  and  C_2
REMARK    2  A    between atoms: C_9  and  C_11
REMARK    3  A    between atoms: C_11  and  S_12
REMARK    4  A    between atoms: S_12  and  C_13
REMARK                            x       y       z     vdW  Elec       q    Type
REMARK                         _______ _______ _______ _____ _____    ______ ____
ROOT
ATOM      1  C   UNL     1       4.011   2.613  18.047  0.00  0.00    +0.000 C 
ATOM      2  C   UNL     1       3.029   3.155  19.054  0.00  0.00    +0.000 A 
ATOM      3  C   UNL     1       2.300   2.164  19.757  0.00  0.00    +0.000 A 
ATOM      4  C   UNL     1       1.276   2.497  20.633  0.00  0.00    +0.000 A 
ATOM      5  C   UNL     1       0.965   3.830  20.831  0.00  0.00    +0.000 A 
ATOM      6  C   UNL     1       1.700   4.841  20.186  0.00  0.00    +0.000 A 
ATOM      7  C   UNL     1       2.770   4.528  19.301  0.00  0.00    +0.000 A 
ATOM      8  N   UNL     1       3.493   5.631  18.681  0.00  0.00    +0.000 N 
ATOM      9  C   UNL     1       4.872   5.574  18.387  0.00  0.00    +0.000 C 
ATOM     10  O   UNL     1       5.618   4.681  18.795  0.00  0.00    +0.000 OA
ATOM     11  C   UNL     1       2.777   6.915  18.670  0.00  0.00    +0.000 C 
ATOM     12  C   UNL     1       2.300   7.272  20.062  0.00  0.00    +0.000 C 
ATOM     13  C   UNL     1       1.261   6.258  20.480  0.00  0.00    +0.000 C 
ENDROOT
BRANCH   9  14
ATOM     14  C   UNL     1       5.467   6.761  17.617  0.00  0.00    +0.000 C 
BRANCH  14  15
ATOM     15  S   UNL     1       7.155   6.433  17.015  0.00  0.00    +0.000 S 
BRANCH  15  16
ATOM     16  C   UNL     1       6.772   5.479  15.561  0.00  0.00    +0.000 A 
ATOM     17  C   UNL     1       5.560   4.800  15.498  0.00  0.00    +0.000 A 
ATOM     18  C   UNL     1       5.274   4.035  14.369  0.00  0.00    +0.000 A 
ATOM     19  C   UNL     1       6.209   3.964  13.346  0.00  0.00    +0.000 A 
ATOM     20 BR   UNL     1       5.870   2.944  11.800  0.00  0.00    +0.000 Br
ATOM     21  C   UNL     1       7.399   4.659  13.494  0.00  0.00    +0.000 A 
ATOM     22  N   UNL     1       7.701   5.412  14.579  0.00  0.00    +0.000 NA
ENDBRANCH  15  16
ENDBRANCH  14  15
ENDBRANCH   9  14
TORSDOF 3
ENDMDL
MODEL 2
REMARK VINA RESULT:      -7.1      1.226      1.341
REMARK  Name = 
REMARK  4 active torsions:
REMARK  status: ('A' for Active; 'I' for Inactive)
REMARK    1  A    between atoms: C_1  and  C_2
REMARK    2  A    between atoms: C_9  and  C_11
REMARK    3  A    between atoms: C_11  and  S_12
REMARK    4  A    between atoms: S_12  and  C_13
REMARK                            x       y       z     vdW  Elec       q    Type
REMARK                         _______ _______ _______ _____ _____    ______ ____
ROOT
ATOM      1  C   UNL     1       4.270   2.631  17.301  0.00  0.00    +0.000 C 
ATOM      2  C   UNL     1       3.062   2.841  18.177  0.00  0.00    +0.000 A 
ATOM      3  C   UNL     1       2.120   1.784  18.143  0.00  0.00    +0.000 A 
ATOM      4  C   UNL     1       0.901   1.873  18.801  0.00  0.00    +0.000 A 
ATOM      5  C   UNL     1       0.601   3.021  19.513  0.00  0.00    +0.000 A 
ATOM      6  C   UNL     1       1.534   4.069  19.608  0.00  0.00    +0.000 A 
ATOM      7  C   UNL     1       2.801   3.994  18.963  0.00  0.00    +0.000 A 
ATOM      8  N   UNL     1       3.718   5.115  19.118  0.00  0.00    +0.000 N 
ATOM      9  C   UNL     1       5.119   4.957  19.169  0.00  0.00    +0.000 C 
ATOM     10  O   UNL     1       5.677   3.862  19.282  0.00  0.00    +0.000 OA
ATOM     11  C   UNL     1       3.091   6.379  19.533  0.00  0.00    +0.000 C 
ATOM     12  C   UNL     1       2.246   6.172  20.772  0.00  0.00    +0.000 C 
ATOM     13  C   UNL     1       1.089   5.270  20.411  0.00  0.00    +0.000 C 
ENDROOT
BRANCH   9  14
ATOM     14  C   UNL     1       5.962   6.240  19.205  0.00  0.00    +0.000 C 
BRANCH  14  15
ATOM     15  S   UNL     1       7.527   6.079  18.287  0.00  0.00    +0.000 S 
BRANCH  15  16
ATOM     16  C   UNL     1       6.901   5.470  16.736  0.00  0.00    +0.000 A 
ATOM     17  C   UNL     1       5.783   6.076  16.174  0.00  0.00    +0.000 A 
ATOM     18  C   UNL     1       5.281   5.581  14.971  0.00  0.00    +0.000 A 
ATOM     19  C   UNL     1       5.903   4.493  14.376  0.00  0.00    +0.000 A 
ATOM     20 BR   UNL     1       5.263   3.788  12.751  0.00  0.00    +0.000 Br
ATOM     21  C   UNL     1       7.003   3.937  15.009  0.00  0.00    +0.000 A 
ATOM     22  N   UNL     1       7.513   4.400  16.176  0.00  0.00    +0.000 NA
ENDBRANCH  15  16
ENDBRANCH  14  15
ENDBRANCH   9  14
TORSDOF 3
ENDMDL
MODEL 3
REMARK VINA RESULT:      -7.0      3.817      5.869
REMARK  Name = 
REMARK  4 active torsions:
REMARK  status: ('A' for Active; 'I' for Inactive)
REMARK    1  A    between atoms: C_1  and  C_2
REMARK    2  A    between atoms: C_9  and  C_11
REMARK    3  A    between atoms: C_11  and  S_12
REMARK    4  A    between atoms: S_12  and  C_13
REMARK                            x       y       z     vdW  Elec       q    Type
REMARK                         _______ _______ _______ _____ _____    ______ ____
ROOT
ATOM      1  C   UNL     1      -0.536   8.598  21.887  0.00  0.00    +0.000 C 
ATOM      2  C   UNL     1      -0.203  10.023  21.528  0.00  0.00    +0.000 A 
ATOM      3  C   UNL     1      -0.728  10.992  22.417  0.00  0.00    +0.000 A 
ATOM      4  C   UNL     1      -0.612  12.352  22.165  0.00  0.00    +0.000 A 
ATOM      5  C   UNL     1       0.041  12.772  21.019  0.00  0.00    +0.000 A 
ATOM      6  C   UNL     1       0.616  11.837  20.139  0.00  0.00    +0.000 A 
ATOM      7  C   UNL     1       0.532  10.438  20.387  0.00  0.00    +0.000 A 
ATOM      8  N   UNL     1       1.164   9.534  19.436  0.00  0.00    +0.000 N 
ATOM      9  C   UNL     1       1.758   8.312  19.818  0.00  0.00    +0.000 C 
ATOM     10  O   UNL     1       1.965   7.995  20.992  0.00  0.00    +0.000 OA
ATOM     11  C   UNL     1       1.427  10.111  18.108  0.00  0.00    +0.000 C 
ATOM     12  C   UNL     1       2.191  11.412  18.235  0.00  0.00    +0.000 C 
ATOM     13  C   UNL     1       1.298  12.419  18.922  0.00  0.00    +0.000 C 
ENDROOT
BRANCH   9  14
ATOM     14  C   UNL     1       2.269   7.405  18.690  0.00  0.00    +0.000 C 
BRANCH  14  15
ATOM     15  S   UNL     1       3.142   5.933  19.313  0.00  0.00    +0.000 S 
BRANCH  15  16
ATOM     16  C   UNL     1       4.084   5.510  17.863  0.00  0.00    +0.000 A 
ATOM     17  C   UNL     1       4.541   6.528  17.034  0.00  0.00    +0.000 A 
ATOM     18  C   UNL     1       5.258   6.193  15.886  0.00  0.00    +0.000 A 
ATOM     19  C   UNL     1       5.486   4.855  15.599  0.00  0.00    +0.000 A 
ATOM     20 BR   UNL     1       6.450   4.350  14.061  0.00  0.00    +0.000 Br
ATOM     21  C   UNL     1       4.984   3.900  16.469  0.00  0.00    +0.000 A 
ATOM     22  N   UNL     1       4.287   4.200  17.592  0.00  0.00    +0.000 NA
ENDBRANCH  15  16
ENDBRANCH  14  15
ENDBRANCH   9  14
TORSDOF 3
ENDMDL
MODEL 4
REMARK VINA RESULT:      -6.9      0.772      1.158
REMARK  Name = 
REMARK  4 active torsions:
REMARK  status: ('A' for Active; 'I' for Inactive)
REMARK    1  A    between atoms: C_1  and  C_2
REMARK    2  A    between atoms: C_9  and  C_11
REMARK    3  A    between atoms: C_11  and  S_12
REMARK    4  A    between atoms: S_12  and  C_13
REMARK                            x       y       z     vdW  Elec       q    Type
REMARK                         _______ _______ _______ _____ _____    ______ ____
ROOT
ATOM      1  C   UNL     1       3.558   2.419  17.774  0.00  0.00    +0.000 C 
ATOM      2  C   UNL     1       2.763   3.062  18.881  0.00  0.00    +0.000 A 
ATOM      3  C   UNL     1       2.059   2.150  19.706  0.00  0.00    +0.000 A 
ATOM      4  C   UNL     1       1.189   2.585  20.696  0.00  0.00    +0.000 A 
ATOM      5  C   UNL     1       1.011   3.944  20.887  0.00  0.00    +0.000 A 
ATOM      6  C   UNL     1       1.731   4.876  20.119  0.00  0.00    +0.000 A 
ATOM      7  C   UNL     1       2.647   4.457  19.113  0.00  0.00    +0.000 A 
ATOM      8  N   UNL     1       3.365   5.482  18.368  0.00  0.00    +0.000 N 
ATOM      9  C   UNL     1       4.684   5.307  17.899  0.00  0.00    +0.000 C 
ATOM     10  O   UNL     1       5.406   4.365  18.236  0.00  0.00    +0.000 OA
ATOM     11  C   UNL     1       2.755   6.821  18.406  0.00  0.00    +0.000 C 
ATOM     12  C   UNL     1       2.496   7.247  19.836  0.00  0.00    +0.000 C 
ATOM     13  C   UNL     1       1.446   6.330  20.419  0.00  0.00    +0.000 C 
ENDROOT
BRANCH   9  14
ATOM     14  C   UNL     1       5.262   6.423  17.018  0.00  0.00    +0.000 C 
BRANCH  14  15
ATOM     15  S   UNL     1       6.947   6.054  16.431  0.00  0.00    +0.000 S 
BRANCH  15  16
ATOM     16  C   UNL     1       6.555   5.054  15.012  0.00  0.00    +0.000 A 
ATOM     17  C   UNL     1       7.446   5.015  13.946  0.00  0.00    +0.000 A 
ATOM     18  C   UNL     1       7.125   4.250  12.826  0.00  0.00    +0.000 A 
ATOM     19  C   UNL     1       5.922   3.559  12.803  0.00  0.00    +0.000 A 
ATOM     20 BR   UNL     1       5.442   2.510  11.313  0.00  0.00    +0.000 Br
ATOM     21  C   UNL     1       5.082   3.662  13.900  0.00  0.00    +0.000 A 
ATOM     22  N   UNL     1       5.372   4.396  15.002  0.00  0.00    +0.000 NA
ENDBRANCH  15  16
ENDBRANCH  14  15
ENDBRANCH   9  14
TORSDOF 3
ENDMDL
MODEL 5
REMARK VINA RESULT:      -6.9      4.714      7.064
REMARK  Name = 
REMARK  4 active torsions:
REMARK  status: ('A' for Active; 'I' for Inactive)
REMARK    1  A    between atoms: C_1  and  C_2
REMARK    2  A    between atoms: C_9  and  C_11
REMARK    3  A    between atoms: C_11  and  S_12
REMARK    4  A    between atoms: S_12  and  C_13
REMARK                            x       y       z     vdW  Elec       q    Type
REMARK                         _______ _______ _______ _____ _____    ______ ____
ROOT
ATOM      1  C   UNL     1       1.484  12.449  19.098  0.00  0.00    +0.000 C 
ATOM      2  C   UNL     1       0.501  12.403  20.239  0.00  0.00    +0.000 A 
ATOM      3  C   UNL     1      -0.186  13.619  20.474  0.00  0.00    +0.000 A 
ATOM      4  C   UNL     1      -1.038  13.778  21.558  0.00  0.00    +0.000 A 
ATOM      5  C   UNL     1      -1.227  12.718  22.427  0.00  0.00    +0.000 A 
ATOM      6  C   UNL     1      -0.598  11.481  22.196  0.00  0.00    +0.000 A 
ATOM      7  C   UNL     1       0.261  11.284  21.079  0.00  0.00    +0.000 A 
ATOM      8  N   UNL     1       0.866   9.971  20.901  0.00  0.00    +0.000 N 
ATOM      9  C   UNL     1       1.129   9.414  19.631  0.00  0.00    +0.000 C 
ATOM     10  O   UNL     1       0.702   9.893  18.577  0.00  0.00    +0.000 OA
ATOM     11  C   UNL     1       0.895   9.131  22.108  0.00  0.00    +0.000 C 
ATOM     12  C   UNL     1      -0.485   9.033  22.722  0.00  0.00    +0.000 C 
ATOM     13  C   UNL     1      -0.880  10.403  23.218  0.00  0.00    +0.000 C 
ENDROOT
BRANCH   9  14
ATOM     14  C   UNL     1       1.886   8.080  19.601  0.00  0.00    +0.000 C 
BRANCH  14  15
ATOM     15  S   UNL     1       2.735   7.788  18.016  0.00  0.00    +0.000 S 
BRANCH  15  16
ATOM     16  C   UNL     1       2.974   6.028  18.126  0.00  0.00    +0.000 A 
ATOM     17  C   UNL     1       1.906   5.182  17.846  0.00  0.00    +0.000 A 
ATOM     18  C   UNL     1       2.089   3.805  17.957  0.00  0.00    +0.000 A 
ATOM     19  C   UNL     1       3.327   3.318  18.352  0.00  0.00    +0.000 A 
ATOM     20 BR   UNL     1       3.626   1.465  18.516  0.00  0.00    +0.000 Br
ATOM     21  C   UNL     1       4.335   4.229  18.627  0.00  0.00    +0.000 A 
ATOM     22  N   UNL     1       4.184   5.571  18.525  0.00  0.00    +0.000 NA
ENDBRANCH  15  16
ENDBRANCH  14  15
ENDBRANCH   9  14
TORSDOF 3
ENDMDL
MODEL 6
REMARK VINA RESULT:      -6.9      3.901      5.889
REMARK  Name = 
REMARK  4 active torsions:
REMARK  status: ('A' for Active; 'I' for Inactive)
REMARK    1  A    between atoms: C_1  and  C_2
REMARK    2  A    between atoms: C_9  and  C_11
REMARK    3  A    between atoms: C_11  and  S_12
REMARK    4  A    between atoms: S_12  and  C_13
REMARK                            x       y       z     vdW  Elec       q    Type
REMARK                         _______ _______ _______ _____ _____    ______ ____
ROOT
ATOM      1  C   UNL     1      -0.557   8.572  21.967  0.00  0.00    +0.000 C 
ATOM      2  C   UNL     1      -0.268  10.015  21.642  0.00  0.00    +0.000 A 
ATOM      3  C   UNL     1      -0.821  10.946  22.555  0.00  0.00    +0.000 A 
ATOM      4  C   UNL     1      -0.747  12.315  22.335  0.00  0.00    +0.000 A 
ATOM      5  C   UNL     1      -0.110  12.782  21.200  0.00  0.00    +0.000 A 
ATOM      6  C   UNL     1       0.492  11.887  20.296  0.00  0.00    +0.000 A 
ATOM      7  C   UNL     1       0.451  10.480  20.510  0.00  0.00    +0.000 A 
ATOM      8  N   UNL     1       1.109   9.619  19.536  0.00  0.00    +0.000 N 
ATOM      9  C   UNL     1       1.740   8.407  19.888  0.00  0.00    +0.000 C 
ATOM     10  O   UNL     1       1.960   8.068  21.054  0.00  0.00    +0.000 OA
ATOM     11  C   UNL     1       1.351  10.236  18.223  0.00  0.00    +0.000 C 
ATOM     12  C   UNL     1       2.074  11.556  18.381  0.00  0.00    +0.000 C 
ATOM     13  C   UNL     1       1.153  12.519  19.092  0.00  0.00    +0.000 C 
ENDROOT
BRANCH   9  14
ATOM     14  C   UNL     1       2.277   7.544  18.738  0.00  0.00    +0.000 C 
BRANCH  14  15
ATOM     15  S   UNL     1       3.007   5.978  19.316  0.00  0.00    +0.000 S 
BRANCH  15  16
ATOM     16  C   UNL     1       3.933   5.529  17.863  0.00  0.00    +0.000 A 
ATOM     17  C   UNL     1       4.117   4.182  17.569  0.00  0.00    +0.000 A 
ATOM     18  C   UNL     1       4.864   3.834  16.445  0.00  0.00    +0.000 A 
ATOM     19  C   UNL     1       5.408   4.838  15.658  0.00  0.00    +0.000 A 
ATOM     20 BR   UNL     1       6.424   4.419  14.127  0.00  0.00    +0.000 Br
ATOM     21  C   UNL     1       5.191   6.156  16.028  0.00  0.00    +0.000 A 
ATOM     22  N   UNL     1       4.467   6.521  17.114  0.00  0.00    +0.000 NA
ENDBRANCH  15  16
ENDBRANCH  14  15
ENDBRANCH   9  14
TORSDOF 3
ENDMDL
MODEL 7
REMARK VINA RESULT:      -6.9      1.186      2.614
REMARK  Name = 
REMARK  4 active torsions:
REMARK  status: ('A' for Active; 'I' for Inactive)
REMARK    1  A    between atoms: C_1  and  C_2
REMARK    2  A    between atoms: C_9  and  C_11
REMARK    3  A    between atoms: C_11  and  S_12
REMARK    4  A    between atoms: S_12  and  C_13
REMARK                            x       y       z     vdW  Elec       q    Type
REMARK                         _______ _______ _______ _____ _____    ______ ____
ROOT
ATOM      1  C   UNL     1       2.422   5.903  20.932  0.00  0.00    +0.000 C 
ATOM      2  C   UNL     1       2.003   4.676  20.164  0.00  0.00    +0.000 A 
ATOM      3  C   UNL     1       0.648   4.303  20.345  0.00  0.00    +0.000 A 
ATOM      4  C   UNL     1       0.136   3.132  19.802  0.00  0.00    +0.000 A 
ATOM      5  C   UNL     1       0.967   2.313  19.060  0.00  0.00    +0.000 A 
ATOM      6  C   UNL     1       2.305   2.677  18.821  0.00  0.00    +0.000 A 
ATOM      7  C   UNL     1       2.849   3.883  19.345  0.00  0.00    +0.000 A 
ATOM      8  N   UNL     1       4.239   4.198  19.043  0.00  0.00    +0.000 N 
ATOM      9  C   UNL     1       4.705   5.517  18.868  0.00  0.00    +0.000 C 
ATOM     10  O   UNL     1       3.959   6.494  18.762  0.00  0.00    +0.000 OA
ATOM     11  C   UNL     1       5.058   3.051  18.622  0.00  0.00    +0.000 C 
ATOM     12  C   UNL     1       4.392   2.311  17.482  0.00  0.00    +0.000 C 
ATOM     13  C   UNL     1       3.112   1.698  18.000  0.00  0.00    +0.000 C 
ENDROOT
BRANCH   9  14
ATOM     14  C   UNL     1       6.218   5.701  18.683  0.00  0.00    +0.000 C 
BRANCH  14  15
ATOM     15  S   UNL     1       6.626   6.907  17.380  0.00  0.00    +0.000 S 
BRANCH  15  16
ATOM     16  C   UNL     1       6.447   5.868  15.946  0.00  0.00    +0.000 A 
ATOM     17  C   UNL     1       5.194   5.347  15.640  0.00  0.00    +0.000 A 
ATOM     18  C   UNL     1       5.062   4.514  14.531  0.00  0.00    +0.000 A 
ATOM     19  C   UNL     1       6.184   4.220  13.770  0.00  0.00    +0.000 A 
ATOM     20 BR   UNL     1       6.058   3.100  12.260  0.00  0.00    +0.000 Br
ATOM     21  C   UNL     1       7.400   4.767  14.151  0.00  0.00    +0.000 A 
ATOM     22  N   UNL     1       7.554   5.581  15.222  0.00  0.00    +0.000 NA
ENDBRANCH  15  16
ENDBRANCH  14  15
ENDBRANCH   9  14
TORSDOF 3
ENDMDL
MODEL 8
REMARK VINA RESULT:      -6.8      1.041      1.305
REMARK  Name = 
REMARK  4 active torsions:
REMARK  status: ('A' for Active; 'I' for Inactive)
REMARK    1  A    between atoms: C_1  and  C_2
REMARK    2  A    between atoms: C_9  and  C_11
REMARK    3  A    between atoms: C_11  and  S_12
REMARK    4  A    between atoms: S_12  and  C_13
REMARK                            x       y       z     vdW  Elec       q    Type
REMARK                         _______ _______ _______ _____ _____    ______ ____
ROOT
ATOM      1  C   UNL     1       4.620   2.397  19.538  0.00  0.00    +0.000 C 
ATOM      2  C   UNL     1       3.429   3.177  20.030  0.00  0.00    +0.000 A 
ATOM      3  C   UNL     1       2.546   2.443  20.860  0.00  0.00    +0.000 A 
ATOM      4  C   UNL     1       1.344   2.979  21.300  0.00  0.00    +0.000 A 
ATOM      5  C   UNL     1       1.002   4.266  20.925  0.00  0.00    +0.000 A 
ATOM      6  C   UNL     1       1.878   5.041  20.142  0.00  0.00    +0.000 A 
ATOM      7  C   UNL     1       3.127   4.524  19.697  0.00  0.00    +0.000 A 
ATOM      8  N   UNL     1       3.984   5.391  18.900  0.00  0.00    +0.000 N 
ATOM      9  C   UNL     1       5.393   5.346  18.966  0.00  0.00    +0.000 C 
ATOM     10  O   UNL     1       6.014   4.718  19.828  0.00  0.00    +0.000 OA
ATOM     11  C   UNL     1       3.300   6.526  18.262  0.00  0.00    +0.000 C 
ATOM     12  C   UNL     1       2.505   7.311  19.284  0.00  0.00    +0.000 C 
ATOM     13  C   UNL     1       1.390   6.429  19.795  0.00  0.00    +0.000 C 
ENDROOT
BRANCH   9  14
ATOM     14  C   UNL     1       6.164   6.228  17.975  0.00  0.00    +0.000 C 
BRANCH  14  15
ATOM     15  S   UNL     1       7.629   5.396  17.284  0.00  0.00    +0.000 S 
BRANCH  15  16
ATOM     16  C   UNL     1       6.929   4.765  15.774  0.00  0.00    +0.000 A 
ATOM     17  C   UNL     1       7.522   5.099  14.562  0.00  0.00    +0.000 A 
ATOM     18  C   UNL     1       6.957   4.623  13.380  0.00  0.00    +0.000 A 
ATOM     19  C   UNL     1       5.814   3.839  13.446  0.00  0.00    +0.000 A 
ATOM     20 BR   UNL     1       5.012   3.171  11.878  0.00  0.00    +0.000 Br
ATOM     21  C   UNL     1       5.276   3.564  14.693  0.00  0.00    +0.000 A 
ATOM     22  N   UNL     1       5.807   4.012  15.856  0.00  0.00    +0.000 NA
ENDBRANCH  15  16
ENDBRANCH  14  15
ENDBRANCH   9  14
TORSDOF 3
ENDMDL
MODEL 9
REMARK VINA RESULT:      -6.8      7.367      9.484
REMARK  Name = 
REMARK  4 active torsions:
REMARK  status: ('A' for Active; 'I' for Inactive)
REMARK    1  A    between atoms: C_1  and  C_2
REMARK    2  A    between atoms: C_9  and  C_11
REMARK    3  A    between atoms: C_11  and  S_12
REMARK    4  A    between atoms: S_12  and  C_13
REMARK                            x       y       z     vdW  Elec       q    Type
REMARK                         _______ _______ _______ _____ _____    ______ ____
ROOT
ATOM      1  C   UNL     1      -4.362  11.203  16.741  0.00  0.00    +0.000 C 
ATOM      2  C   UNL     1      -5.039  11.528  18.047  0.00  0.00    +0.000 A 
ATOM      3  C   UNL     1      -6.448  11.379  18.033  0.00  0.00    +0.000 A 
ATOM      4  C   UNL     1      -7.231  11.750  19.118  0.00  0.00    +0.000 A 
ATOM      5  C   UNL     1      -6.619  12.272  20.243  0.00  0.00    +0.000 A 
ATOM      6  C   UNL     1      -5.219  12.389  20.309  0.00  0.00    +0.000 A 
ATOM      7  C   UNL     1      -4.391  11.994  19.221  0.00  0.00    +0.000 A 
ATOM      8  N   UNL     1      -2.949  12.134  19.370  0.00  0.00    +0.000 N 
ATOM      9  C   UNL     1      -2.028  11.241  18.783  0.00  0.00    +0.000 C 
ATOM     10  O   UNL     1      -2.354  10.170  18.264  0.00  0.00    +0.000 OA
ATOM     11  C   UNL     1      -2.520  13.070  20.421  0.00  0.00    +0.000 C 
ATOM     12  C   UNL     1      -3.188  12.734  21.737  0.00  0.00    +0.000 C 
ATOM     13  C   UNL     1      -4.671  12.977  21.590  0.00  0.00    +0.000 C 
ENDROOT
BRANCH   9  14
ATOM     14  C   UNL     1      -0.539  11.589  18.919  0.00  0.00    +0.000 C 
BRANCH  14  15
ATOM     15  S   UNL     1       0.215  10.882  20.418  0.00  0.00    +0.000 S 
BRANCH  15  16
ATOM     16  C   UNL     1       1.134   9.544  19.687  0.00  0.00    +0.000 A 
ATOM     17  C   UNL     1       1.500   9.629  18.348  0.00  0.00    +0.000 A 
ATOM     18  C   UNL     1       2.198   8.569  17.772  0.00  0.00    +0.000 A 
ATOM     19  C   UNL     1       2.498   7.457  18.546  0.00  0.00    +0.000 A 
ATOM     20 BR   UNL     1       3.440   5.999  17.814  0.00  0.00    +0.000 Br
ATOM     21  C   UNL     1       2.083   7.445  19.868  0.00  0.00    +0.000 A 
ATOM     22  N   UNL     1       1.407   8.463  20.453  0.00  0.00    +0.000 NA
ENDBRANCH  15  16
ENDBRANCH  14  15
ENDBRANCH   9  14
TORSDOF 3
ENDMDL
