MODEL 1
REMARK VINA RESULT:      -7.3      0.000      0.000
REMARK  Name = 
REMARK  15 active torsions:
REMARK  status: ('A' for Active; 'I' for Inactive)
REMARK    1  A    between atoms: C_1  and  C_2
REMARK    2  A    between atoms: C_2  and  C_3
REMARK    3  A    between atoms: C_3  and  C_4
REMARK    4  A    between atoms: C_3  and  C_6
REMARK    5  A    between atoms: C_4  and  C_5
REMARK    6  A    between atoms: C_10  and  N_11
REMARK    7  A    between atoms: N_11  and  C_12
REMARK    8  A    between atoms: C_12  and  C_13
REMARK    9  A    between atoms: C_13  and  C_14
REMARK   10  A    between atoms: C_14  and  N_15
REMARK   11  A    between atoms: N_15  and  C_16
REMARK   12  A    between atoms: C_16  and  C_17
REMARK   13  A    between atoms: C_21  and  O_22
REMARK   14  A    between atoms: O_22  and  C_23
REMARK   15  A    between atoms: C_24  and  O_25
REMARK                            x       y       z     vdW  Elec       q    Type
REMARK                         _______ _______ _______ _____ _____    ______ ____
ROOT
ATOM      1  N   UNL     1       2.864   5.818  20.386  0.00  0.00    +0.000 N 
ATOM      2  H   UNL     1       3.707   5.386  20.016  0.00  0.00    +0.000 HD
ENDROOT
BRANCH   1   7
ATOM      3  C   UNL     1       0.120  10.231  21.076  0.00  0.00    +0.000 A 
ATOM      4  C   UNL     1       0.395   9.163  21.929  0.00  0.00    +0.000 A 
ATOM      5  C   UNL     1       1.154   8.065  21.489  0.00  0.00    +0.000 A 
ATOM      6  C   UNL     1       1.670   8.007  20.171  0.00  0.00    +0.000 A 
ATOM      7  C   UNL     1       2.489   6.967  19.627  0.00  0.00    +0.000 A 
ATOM      8  C   UNL     1       2.828   7.051  18.266  0.00  0.00    +0.000 A 
ATOM      9  C   UNL     1       2.455   8.154  17.530  0.00  0.00    +0.000 A 
ATOM     10  N   UNL     1       1.743   9.167  18.030  0.00  0.00    +0.000 NA
ATOM     11  C   UNL     1       1.355   9.084  19.306  0.00  0.00    +0.000 A 
ATOM     12  C   UNL     1       0.601  10.146  19.762  0.00  0.00    +0.000 A 
BRANCH   3  13
ATOM     13  C   UNL     1      -0.705  11.427  21.542  0.00  0.00    +0.000 C 
BRANCH  13  15
ATOM     14  C   UNL     1      -2.566  11.987  23.272  0.00  0.00    +0.000 C 
ATOM     15  C   UNL     1      -1.279  11.234  22.972  0.00  0.00    +0.000 C 
ENDBRANCH  13  15
BRANCH  13  16
ATOM     16  C   UNL     1       0.069  12.750  21.341  0.00  0.00    +0.000 C 
ATOM     17  C   UNL     1      -0.560  13.724  20.354  0.00  0.00    +0.000 C 
ENDBRANCH  13  16
ENDBRANCH   3  13
ENDBRANCH   1   7
BRANCH   1  18
ATOM     18  C   UNL     1       1.783   4.844  20.578  0.00  0.00    +0.000 C 
BRANCH  18  19
ATOM     19  C   UNL     1       1.164   4.352  19.274  0.00  0.00    +0.000 C 
BRANCH  19  20
ATOM     20  C   UNL     1       1.682   2.928  19.028  0.00  0.00    +0.000 C 
BRANCH  20  21
ATOM     21  N   UNL     1       2.109   2.740  17.647  0.00  0.00    +0.000 NA
ATOM     22  H   UNL     1       2.023   3.621  17.137  0.00  0.00    +0.000 HD
BRANCH  21  23
ATOM     23  C   UNL     1       3.525   2.343  17.608  0.00  0.00    +0.000 C 
BRANCH  23  24
ATOM     24  C   UNL     1       4.416   3.538  17.381  0.00  0.00    +0.000 A 
ATOM     25  C   UNL     1       4.545   4.072  16.088  0.00  0.00    +0.000 A 
ATOM     26  C   UNL     1       5.366   5.173  15.849  0.00  0.00    +0.000 A 
ATOM     27  C   UNL     1       6.080   5.760  16.898  0.00  0.00    +0.000 A 
ATOM     28  C   UNL     1       5.976   5.238  18.189  0.00  0.00    +0.000 A 
ATOM     29  C   UNL     1       5.144   4.130  18.415  0.00  0.00    +0.000 A 
BRANCH  28  30
ATOM     30  O   UNL     1       6.626   5.712  19.301  0.00  0.00    +0.000 OA
ATOM     31  C   UNL     1       8.047   5.629  19.287  0.00  0.00    +0.000 C 
ENDBRANCH  28  30
BRANCH  29  32
ATOM     32  O   UNL     1       5.053   3.625  19.687  0.00  0.00    +0.000 OA
ATOM     33  H   UNL     1       5.317   2.687  19.605  0.00  0.00    +0.000 HD
ENDBRANCH  29  32
ENDBRANCH  23  24
ENDBRANCH  21  23
ENDBRANCH  20  21
ENDBRANCH  19  20
ENDBRANCH  18  19
ENDBRANCH   1  18
TORSDOF 12
ENDMDL
MODEL 2
REMARK VINA RESULT:      -7.1      1.073      1.326
REMARK  Name = 
REMARK  15 active torsions:
REMARK  status: ('A' for Active; 'I' for Inactive)
REMARK    1  A    between atoms: C_1  and  C_2
REMARK    2  A    between atoms: C_2  and  C_3
REMARK    3  A    between atoms: C_3  and  C_4
REMARK    4  A    between atoms: C_3  and  C_6
REMARK    5  A    between atoms: C_4  and  C_5
REMARK    6  A    between atoms: C_10  and  N_11
REMARK    7  A    between atoms: N_11  and  C_12
REMARK    8  A    between atoms: C_12  and  C_13
REMARK    9  A    between atoms: C_13  and  C_14
REMARK   10  A    between atoms: C_14  and  N_15
REMARK   11  A    between atoms: N_15  and  C_16
REMARK   12  A    between atoms: C_16  and  C_17
REMARK   13  A    between atoms: C_21  and  O_22
REMARK   14  A    between atoms: O_22  and  C_23
REMARK   15  A    between atoms: C_24  and  O_25
REMARK                            x       y       z     vdW  Elec       q    Type
REMARK                         _______ _______ _______ _____ _____    ______ ____
ROOT
ATOM      1  N   UNL     1       2.581   5.927  20.514  0.00  0.00    +0.000 N 
ATOM      2  H   UNL     1       3.351   5.316  20.253  0.00  0.00    +0.000 HD
ENDROOT
BRANCH   1   7
ATOM      3  C   UNL     1       0.434  10.706  20.378  0.00  0.00    +0.000 A 
ATOM      4  C   UNL     1       0.502   9.745  21.385  0.00  0.00    +0.000 A 
ATOM      5  C   UNL     1       1.130   8.508  21.160  0.00  0.00    +0.000 A 
ATOM      6  C   UNL     1       1.718   8.197  19.910  0.00  0.00    +0.000 A 
ATOM      7  C   UNL     1       2.421   6.994  19.580  0.00  0.00    +0.000 A 
ATOM      8  C   UNL     1       2.857   6.839  18.254  0.00  0.00    +0.000 A 
ATOM      9  C   UNL     1       2.689   7.863  17.349  0.00  0.00    +0.000 A 
ATOM     10  N   UNL     1       2.094   9.021  17.648  0.00  0.00    +0.000 NA
ATOM     11  C   UNL     1       1.614   9.171  18.886  0.00  0.00    +0.000 A 
ATOM     12  C   UNL     1       0.985  10.374  19.133  0.00  0.00    +0.000 A 
BRANCH   3  13
ATOM     13  C   UNL     1      -0.247  12.053  20.610  0.00  0.00    +0.000 C 
BRANCH  13  15
ATOM     14  C   UNL     1      -1.333  12.408  22.947  0.00  0.00    +0.000 C 
ATOM     15  C   UNL     1      -1.505  11.936  21.511  0.00  0.00    +0.000 C 
ENDBRANCH  13  15
BRANCH  13  16
ATOM     16  C   UNL     1       0.771  13.119  21.074  0.00  0.00    +0.000 C 
ATOM     17  C   UNL     1       0.610  14.491  20.434  0.00  0.00    +0.000 C 
ENDBRANCH  13  16
ENDBRANCH   3  13
ENDBRANCH   1   7
BRANCH   1  18
ATOM     18  C   UNL     1       1.351   5.177  20.790  0.00  0.00    +0.000 C 
BRANCH  18  19
ATOM     19  C   UNL     1       1.194   3.923  19.935  0.00  0.00    +0.000 C 
BRANCH  19  20
ATOM     20  C   UNL     1       2.443   3.059  20.153  0.00  0.00    +0.000 C 
BRANCH  20  21
ATOM     21  N   UNL     1       3.320   3.071  18.989  0.00  0.00    +0.000 NA
ATOM     22  H   UNL     1       2.976   3.751  18.308  0.00  0.00    +0.000 HD
BRANCH  21  23
ATOM     23  C   UNL     1       4.674   3.487  19.383  0.00  0.00    +0.000 C 
BRANCH  23  24
ATOM     24  C   UNL     1       5.345   4.263  18.278  0.00  0.00    +0.000 A 
ATOM     25  C   UNL     1       4.948   4.059  16.946  0.00  0.00    +0.000 A 
ATOM     26  C   UNL     1       5.555   4.759  15.905  0.00  0.00    +0.000 A 
ATOM     27  C   UNL     1       6.577   5.675  16.173  0.00  0.00    +0.000 A 
ATOM     28  C   UNL     1       6.996   5.885  17.488  0.00  0.00    +0.000 A 
ATOM     29  C   UNL     1       6.374   5.173  18.527  0.00  0.00    +0.000 A 
BRANCH  28  30
ATOM     30  O   UNL     1       7.989   6.745  17.886  0.00  0.00    +0.000 OA
ATOM     31  C   UNL     1       7.770   8.127  17.628  0.00  0.00    +0.000 C 
ENDBRANCH  28  30
BRANCH  29  32
ATOM     32  O   UNL     1       6.798   5.387  19.814  0.00  0.00    +0.000 OA
ATOM     33  H   UNL     1       7.311   4.588  20.046  0.00  0.00    +0.000 HD
ENDBRANCH  29  32
ENDBRANCH  23  24
ENDBRANCH  21  23
ENDBRANCH  20  21
ENDBRANCH  19  20
ENDBRANCH  18  19
ENDBRANCH   1  18
TORSDOF 12
ENDMDL
MODEL 3
REMARK VINA RESULT:      -7.1      1.031      1.640
REMARK  Name = 
REMARK  15 active torsions:
REMARK  status: ('A' for Active; 'I' for Inactive)
REMARK    1  A    between atoms: C_1  and  C_2
REMARK    2  A    between atoms: C_2  and  C_3
REMARK    3  A    between atoms: C_3  and  C_4
REMARK    4  A    between atoms: C_3  and  C_6
REMARK    5  A    between atoms: C_4  and  C_5
REMARK    6  A    between atoms: C_10  and  N_11
REMARK    7  A    between atoms: N_11  and  C_12
REMARK    8  A    between atoms: C_12  and  C_13
REMARK    9  A    between atoms: C_13  and  C_14
REMARK   10  A    between atoms: C_14  and  N_15
REMARK   11  A    between atoms: N_15  and  C_16
REMARK   12  A    between atoms: C_16  and  C_17
REMARK   13  A    between atoms: C_21  and  O_22
REMARK   14  A    between atoms: O_22  and  C_23
REMARK   15  A    between atoms: C_24  and  O_25
REMARK                            x       y       z     vdW  Elec       q    Type
REMARK                         _______ _______ _______ _____ _____    ______ ____
ROOT
ATOM      1  N   UNL     1       2.429   6.077  20.620  0.00  0.00    +0.000 N 
ATOM      2  H   UNL     1       3.429   5.930  20.728  0.00  0.00    +0.000 HD
ENDROOT
BRANCH   1   7
ATOM      3  C   UNL     1       0.048  10.720  21.115  0.00  0.00    +0.000 A 
ATOM      4  C   UNL     1       0.231   9.669  22.011  0.00  0.00    +0.000 A 
ATOM      5  C   UNL     1       0.901   8.497  21.620  0.00  0.00    +0.000 A 
ATOM      6  C   UNL     1       1.417   8.345  20.310  0.00  0.00    +0.000 A 
ATOM      7  C   UNL     1       2.152   7.222  19.813  0.00  0.00    +0.000 A 
ATOM      8  C   UNL     1       2.503   7.224  18.454  0.00  0.00    +0.000 A 
ATOM      9  C   UNL     1       2.224   8.323  17.671  0.00  0.00    +0.000 A 
ATOM     10  N   UNL     1       1.595   9.410  18.126  0.00  0.00    +0.000 NA
ATOM     11  C   UNL     1       1.195   9.409  19.401  0.00  0.00    +0.000 A 
ATOM     12  C   UNL     1       0.527  10.545  19.809  0.00  0.00    +0.000 A 
BRANCH   3  13
ATOM     13  C   UNL     1      -0.681  11.997  21.527  0.00  0.00    +0.000 C 
BRANCH  13  15
ATOM     14  C   UNL     1      -1.049  14.008  19.917  0.00  0.00    +0.000 C 
ATOM     15  C   UNL     1      -1.493  12.622  20.360  0.00  0.00    +0.000 C 
ENDBRANCH  13  15
BRANCH  13  16
ATOM     16  C   UNL     1      -1.494  11.780  22.823  0.00  0.00    +0.000 C 
ATOM     17  C   UNL     1      -1.985  13.052  23.501  0.00  0.00    +0.000 C 
ENDBRANCH  13  16
ENDBRANCH   3  13
ENDBRANCH   1   7
BRANCH   1  18
ATOM     18  C   UNL     1       1.735   4.857  20.193  0.00  0.00    +0.000 C 
BRANCH  18  19
ATOM     19  C   UNL     1       2.075   3.632  21.035  0.00  0.00    +0.000 C 
BRANCH  19  20
ATOM     20  C   UNL     1       2.822   2.643  20.129  0.00  0.00    +0.000 C 
BRANCH  20  21
ATOM     21  N   UNL     1       3.015   3.179  18.788  0.00  0.00    +0.000 NA
ATOM     22  H   UNL     1       2.940   4.198  18.811  0.00  0.00    +0.000 HD
BRANCH  21  23
ATOM     23  C   UNL     1       4.364   2.846  18.303  0.00  0.00    +0.000 C 
BRANCH  23  24
ATOM     24  C   UNL     1       4.897   3.929  17.400  0.00  0.00    +0.000 A 
ATOM     25  C   UNL     1       4.981   3.701  16.016  0.00  0.00    +0.000 A 
ATOM     26  C   UNL     1       5.474   4.683  15.159  0.00  0.00    +0.000 A 
ATOM     27  C   UNL     1       5.901   5.913  15.668  0.00  0.00    +0.000 A 
ATOM     28  C   UNL     1       5.838   6.158  17.041  0.00  0.00    +0.000 A 
ATOM     29  C   UNL     1       5.337   5.159  17.893  0.00  0.00    +0.000 A 
BRANCH  28  30
ATOM     30  O   UNL     1       6.229   7.313  17.670  0.00  0.00    +0.000 OA
ATOM     31  C   UNL     1       7.603   7.667  17.545  0.00  0.00    +0.000 C 
ENDBRANCH  28  30
BRANCH  29  32
ATOM     32  O   UNL     1       5.283   5.412  19.240  0.00  0.00    +0.000 OA
ATOM     33  H   UNL     1       4.802   6.259  19.318  0.00  0.00    +0.000 HD
ENDBRANCH  29  32
ENDBRANCH  23  24
ENDBRANCH  21  23
ENDBRANCH  20  21
ENDBRANCH  19  20
ENDBRANCH  18  19
ENDBRANCH   1  18
TORSDOF 12
ENDMDL
MODEL 4
REMARK VINA RESULT:      -6.9      3.982      9.206
REMARK  Name = 
REMARK  15 active torsions:
REMARK  status: ('A' for Active; 'I' for Inactive)
REMARK    1  A    between atoms: C_1  and  C_2
REMARK    2  A    between atoms: C_2  and  C_3
REMARK    3  A    between atoms: C_3  and  C_4
REMARK    4  A    between atoms: C_3  and  C_6
REMARK    5  A    between atoms: C_4  and  C_5
REMARK    6  A    between atoms: C_10  and  N_11
REMARK    7  A    between atoms: N_11  and  C_12
REMARK    8  A    between atoms: C_12  and  C_13
REMARK    9  A    between atoms: C_13  and  C_14
REMARK   10  A    between atoms: C_14  and  N_15
REMARK   11  A    between atoms: N_15  and  C_16
REMARK   12  A    between atoms: C_16  and  C_17
REMARK   13  A    between atoms: C_21  and  O_22
REMARK   14  A    between atoms: O_22  and  C_23
REMARK   15  A    between atoms: C_24  and  O_25
REMARK                            x       y       z     vdW  Elec       q    Type
REMARK                         _______ _______ _______ _____ _____    ______ ____
ROOT
ATOM      1  N   UNL     1       1.995   7.909  20.113  0.00  0.00    +0.000 N 
ATOM      2  H   UNL     1       2.802   8.506  20.279  0.00  0.00    +0.000 HD
ENDROOT
BRANCH   1   7
ATOM      3  C   UNL     1       4.942   5.616  16.435  0.00  0.00    +0.000 A 
ATOM      4  C   UNL     1       4.628   6.953  16.676  0.00  0.00    +0.000 A 
ATOM      5  C   UNL     1       3.781   7.314  17.737  0.00  0.00    +0.000 A 
ATOM      6  C   UNL     1       3.225   6.339  18.601  0.00  0.00    +0.000 A 
ATOM      7  C   UNL     1       2.390   6.590  19.736  0.00  0.00    +0.000 A 
ATOM      8  C   UNL     1       1.865   5.479  20.416  0.00  0.00    +0.000 A 
ATOM      9  C   UNL     1       2.235   4.205  20.043  0.00  0.00    +0.000 A 
ATOM     10  N   UNL     1       3.062   3.946  19.027  0.00  0.00    +0.000 NA
ATOM     11  C   UNL     1       3.527   4.983  18.324  0.00  0.00    +0.000 A 
ATOM     12  C   UNL     1       4.355   4.655  17.270  0.00  0.00    +0.000 A 
BRANCH   3  13
ATOM     13  C   UNL     1       5.859   5.211  15.283  0.00  0.00    +0.000 C 
BRANCH  13  15
ATOM     14  C   UNL     1       7.606   4.539  17.090  0.00  0.00    +0.000 C 
ATOM     15  C   UNL     1       7.349   5.126  15.710  0.00  0.00    +0.000 C 
ENDBRANCH  13  15
BRANCH  13  16
ATOM     16  C   UNL     1       5.329   3.947  14.569  0.00  0.00    +0.000 C 
ATOM     17  C   UNL     1       5.957   3.658  13.212  0.00  0.00    +0.000 C 
ENDBRANCH  13  16
ENDBRANCH   3  13
ENDBRANCH   1   7
BRANCH   1  18
ATOM     18  C   UNL     1       1.036   7.957  21.223  0.00  0.00    +0.000 C 
BRANCH  18  19
ATOM     19  C   UNL     1       0.912   9.335  21.864  0.00  0.00    +0.000 C 
BRANCH  19  20
ATOM     20  C   UNL     1       0.029  10.192  20.946  0.00  0.00    +0.000 C 
BRANCH  20  21
ATOM     21  N   UNL     1       0.810  10.849  19.905  0.00  0.00    +0.000 NA
ATOM     22  H   UNL     1       1.060  10.171  19.184  0.00  0.00    +0.000 HD
BRANCH  21  23
ATOM     23  C   UNL     1       0.008  11.902  19.264  0.00  0.00    +0.000 C 
BRANCH  23  24
ATOM     24  C   UNL     1      -1.204  11.320  18.582  0.00  0.00    +0.000 A 
ATOM     25  C   UNL     1      -1.051  10.244  17.693  0.00  0.00    +0.000 A 
ATOM     26  C   UNL     1      -2.154   9.689  17.046  0.00  0.00    +0.000 A 
ATOM     27  C   UNL     1      -3.434  10.205  17.270  0.00  0.00    +0.000 A 
ATOM     28  C   UNL     1      -3.608  11.282  18.140  0.00  0.00    +0.000 A 
ATOM     29  C   UNL     1      -2.488  11.829  18.786  0.00  0.00    +0.000 A 
BRANCH  28  30
ATOM     30  O   UNL     1      -4.804  11.885  18.441  0.00  0.00    +0.000 OA
ATOM     31  C   UNL     1      -5.598  12.301  17.336  0.00  0.00    +0.000 C 
ENDBRANCH  28  30
BRANCH  29  32
ATOM     32  O   UNL     1      -2.673  12.889  19.637  0.00  0.00    +0.000 OA
ATOM     33  H   UNL     1      -3.131  12.511  20.414  0.00  0.00    +0.000 HD
ENDBRANCH  29  32
ENDBRANCH  23  24
ENDBRANCH  21  23
ENDBRANCH  20  21
ENDBRANCH  19  20
ENDBRANCH  18  19
ENDBRANCH   1  18
TORSDOF 12
ENDMDL
MODEL 5
REMARK VINA RESULT:      -6.9      1.054      1.279
REMARK  Name = 
REMARK  15 active torsions:
REMARK  status: ('A' for Active; 'I' for Inactive)
REMARK    1  A    between atoms: C_1  and  C_2
REMARK    2  A    between atoms: C_2  and  C_3
REMARK    3  A    between atoms: C_3  and  C_4
REMARK    4  A    between atoms: C_3  and  C_6
REMARK    5  A    between atoms: C_4  and  C_5
REMARK    6  A    between atoms: C_10  and  N_11
REMARK    7  A    between atoms: N_11  and  C_12
REMARK    8  A    between atoms: C_12  and  C_13
REMARK    9  A    between atoms: C_13  and  C_14
REMARK   10  A    between atoms: C_14  and  N_15
REMARK   11  A    between atoms: N_15  and  C_16
REMARK   12  A    between atoms: C_16  and  C_17
REMARK   13  A    between atoms: C_21  and  O_22
REMARK   14  A    between atoms: O_22  and  C_23
REMARK   15  A    between atoms: C_24  and  O_25
REMARK                            x       y       z     vdW  Elec       q    Type
REMARK                         _______ _______ _______ _____ _____    ______ ____
ROOT
ATOM      1  N   UNL     1       1.742   6.054  21.084  0.00  0.00    +0.000 N 
ATOM      2  H   UNL     1       2.231   6.273  21.949  0.00  0.00    +0.000 HD
ENDROOT
BRANCH   1   7
ATOM      3  C   UNL     1      -0.002  10.949  20.399  0.00  0.00    +0.000 A 
ATOM      4  C   UNL     1      -0.234  10.010  21.404  0.00  0.00    +0.000 A 
ATOM      5  C   UNL     1       0.348   8.733  21.345  0.00  0.00    +0.000 A 
ATOM      6  C   UNL     1       1.192   8.356  20.272  0.00  0.00    +0.000 A 
ATOM      7  C   UNL     1       1.874   7.105  20.129  0.00  0.00    +0.000 A 
ATOM      8  C   UNL     1       2.598   6.892  18.945  0.00  0.00    +0.000 A 
ATOM      9  C   UNL     1       2.714   7.902  18.016  0.00  0.00    +0.000 A 
ATOM     10  N   UNL     1       2.140   9.100  18.154  0.00  0.00    +0.000 NA
ATOM     11  C   UNL     1       1.394   9.309  19.243  0.00  0.00    +0.000 A 
ATOM     12  C   UNL     1       0.804  10.554  19.322  0.00  0.00    +0.000 A 
BRANCH   3  13
ATOM     13  C   UNL     1      -0.631  12.339  20.451  0.00  0.00    +0.000 C 
BRANCH  13  15
ATOM     14  C   UNL     1      -2.899  12.083  19.202  0.00  0.00    +0.000 C 
ATOM     15  C   UNL     1      -2.181  12.288  20.527  0.00  0.00    +0.000 C 
ENDBRANCH  13  15
BRANCH  13  16
ATOM     16  C   UNL     1       0.032  13.209  21.542  0.00  0.00    +0.000 C 
ATOM     17  C   UNL     1      -0.864  13.564  22.721  0.00  0.00    +0.000 C 
ENDBRANCH  13  16
ENDBRANCH   3  13
ENDBRANCH   1   7
BRANCH   1  18
ATOM     18  C   UNL     1       2.097   4.725  20.571  0.00  0.00    +0.000 C 
BRANCH  18  19
ATOM     19  C   UNL     1       1.072   4.152  19.598  0.00  0.00    +0.000 C 
BRANCH  19  20
ATOM     20  C   UNL     1       1.281   2.632  19.552  0.00  0.00    +0.000 C 
BRANCH  20  21
ATOM     21  N   UNL     1       2.695   2.282  19.506  0.00  0.00    +0.000 NA
ATOM     22  H   UNL     1       2.824   1.327  19.846  0.00  0.00    +0.000 HD
BRANCH  21  23
ATOM     23  C   UNL     1       3.179   2.325  18.117  0.00  0.00    +0.000 C 
BRANCH  23  24
ATOM     24  C   UNL     1       4.114   3.488  17.906  0.00  0.00    +0.000 A 
ATOM     25  C   UNL     1       4.047   4.224  16.711  0.00  0.00    +0.000 A 
ATOM     26  C   UNL     1       4.902   5.302  16.487  0.00  0.00    +0.000 A 
ATOM     27  C   UNL     1       5.848   5.663  17.452  0.00  0.00    +0.000 A 
ATOM     28  C   UNL     1       5.940   4.938  18.642  0.00  0.00    +0.000 A 
ATOM     29  C   UNL     1       5.071   3.856  18.854  0.00  0.00    +0.000 A 
BRANCH  28  30
ATOM     30  O   UNL     1       6.825   5.180  19.663  0.00  0.00    +0.000 OA
ATOM     31  C   UNL     1       8.060   5.789  19.299  0.00  0.00    +0.000 C 
ENDBRANCH  28  30
BRANCH  29  32
ATOM     32  O   UNL     1       5.174   3.150  20.026  0.00  0.00    +0.000 OA
ATOM     33  H   UNL     1       4.394   2.562  20.035  0.00  0.00    +0.000 HD
ENDBRANCH  29  32
ENDBRANCH  23  24
ENDBRANCH  21  23
ENDBRANCH  20  21
ENDBRANCH  19  20
ENDBRANCH  18  19
ENDBRANCH   1  18
TORSDOF 12
ENDMDL
MODEL 6
REMARK VINA RESULT:      -6.8      4.112      9.237
REMARK  Name = 
REMARK  15 active torsions:
REMARK  status: ('A' for Active; 'I' for Inactive)
REMARK    1  A    between atoms: C_1  and  C_2
REMARK    2  A    between atoms: C_2  and  C_3
REMARK    3  A    between atoms: C_3  and  C_4
REMARK    4  A    between atoms: C_3  and  C_6
REMARK    5  A    between atoms: C_4  and  C_5
REMARK    6  A    between atoms: C_10  and  N_11
REMARK    7  A    between atoms: N_11  and  C_12
REMARK    8  A    between atoms: C_12  and  C_13
REMARK    9  A    between atoms: C_13  and  C_14
REMARK   10  A    between atoms: C_14  and  N_15
REMARK   11  A    between atoms: N_15  and  C_16
REMARK   12  A    between atoms: C_16  and  C_17
REMARK   13  A    between atoms: C_21  and  O_22
REMARK   14  A    between atoms: O_22  and  C_23
REMARK   15  A    between atoms: C_24  and  O_25
REMARK                            x       y       z     vdW  Elec       q    Type
REMARK                         _______ _______ _______ _____ _____    ______ ____
ROOT
ATOM      1  N   UNL     1       1.348   7.326  19.991  0.00  0.00    +0.000 N 
ATOM      2  H   UNL     1       1.593   7.844  19.151  0.00  0.00    +0.000 HD
ENDROOT
BRANCH   1   7
ATOM      3  C   UNL     1       5.189   4.852  17.423  0.00  0.00    +0.000 A 
ATOM      4  C   UNL     1       4.583   6.091  17.222  0.00  0.00    +0.000 A 
ATOM      5  C   UNL     1       3.538   6.526  18.055  0.00  0.00    +0.000 A 
ATOM      6  C   UNL     1       3.069   5.729  19.126  0.00  0.00    +0.000 A 
ATOM      7  C   UNL     1       2.047   6.084  20.064  0.00  0.00    +0.000 A 
ATOM      8  C   UNL     1       1.662   5.116  21.005  0.00  0.00    +0.000 A 
ATOM      9  C   UNL     1       2.328   3.911  21.066  0.00  0.00    +0.000 A 
ATOM     10  N   UNL     1       3.327   3.579  20.244  0.00  0.00    +0.000 NA
ATOM     11  C   UNL     1       3.672   4.458  19.299  0.00  0.00    +0.000 A 
ATOM     12  C   UNL     1       4.691   4.053  18.462  0.00  0.00    +0.000 A 
BRANCH   3  13
ATOM     13  C   UNL     1       6.323   4.367  16.524  0.00  0.00    +0.000 C 
BRANCH  13  15
ATOM     14  C   UNL     1       5.631   4.176  14.023  0.00  0.00    +0.000 C 
ATOM     15  C   UNL     1       6.282   5.014  15.113  0.00  0.00    +0.000 C 
ENDBRANCH  13  15
BRANCH  13  16
ATOM     16  C   UNL     1       7.688   4.485  17.238  0.00  0.00    +0.000 C 
ATOM     17  C   UNL     1       7.757   5.539  18.334  0.00  0.00    +0.000 C 
ENDBRANCH  13  16
ENDBRANCH   3  13
ENDBRANCH   1   7
BRANCH   1  18
ATOM     18  C   UNL     1       1.458   8.151  21.200  0.00  0.00    +0.000 C 
BRANCH  18  19
ATOM     19  C   UNL     1       0.145   8.805  21.616  0.00  0.00    +0.000 C 
BRANCH  19  20
ATOM     20  C   UNL     1       0.362  10.325  21.601  0.00  0.00    +0.000 C 
BRANCH  20  21
ATOM     21  N   UNL     1      -0.754  11.025  20.979  0.00  0.00    +0.000 NA
ATOM     22  H   UNL     1      -0.951  11.884  21.495  0.00  0.00    +0.000 HD
BRANCH  21  23
ATOM     23  C   UNL     1      -0.404  11.408  19.602  0.00  0.00    +0.000 C 
BRANCH  23  24
ATOM     24  C   UNL     1      -1.519  11.068  18.646  0.00  0.00    +0.000 A 
ATOM     25  C   UNL     1      -1.314  10.087  17.662  0.00  0.00    +0.000 A 
ATOM     26  C   UNL     1      -2.326   9.757  16.762  0.00  0.00    +0.000 A 
ATOM     27  C   UNL     1      -3.563  10.406  16.823  0.00  0.00    +0.000 A 
ATOM     28  C   UNL     1      -3.785  11.392  17.786  0.00  0.00    +0.000 A 
ATOM     29  C   UNL     1      -2.756  11.713  18.687  0.00  0.00    +0.000 A 
BRANCH  28  30
ATOM     30  O   UNL     1      -4.944  12.108  17.950  0.00  0.00    +0.000 OA
ATOM     31  C   UNL     1      -6.149  11.354  18.020  0.00  0.00    +0.000 C 
ENDBRANCH  28  30
BRANCH  29  32
ATOM     32  O   UNL     1      -2.986  12.687  19.626  0.00  0.00    +0.000 OA
ATOM     33  H   UNL     1      -3.958  12.719  19.722  0.00  0.00    +0.000 HD
ENDBRANCH  29  32
ENDBRANCH  23  24
ENDBRANCH  21  23
ENDBRANCH  20  21
ENDBRANCH  19  20
ENDBRANCH  18  19
ENDBRANCH   1  18
TORSDOF 12
ENDMDL
MODEL 7
REMARK VINA RESULT:      -6.8      1.369      1.965
REMARK  Name = 
REMARK  15 active torsions:
REMARK  status: ('A' for Active; 'I' for Inactive)
REMARK    1  A    between atoms: C_1  and  C_2
REMARK    2  A    between atoms: C_2  and  C_3
REMARK    3  A    between atoms: C_3  and  C_4
REMARK    4  A    between atoms: C_3  and  C_6
REMARK    5  A    between atoms: C_4  and  C_5
REMARK    6  A    between atoms: C_10  and  N_11
REMARK    7  A    between atoms: N_11  and  C_12
REMARK    8  A    between atoms: C_12  and  C_13
REMARK    9  A    between atoms: C_13  and  C_14
REMARK   10  A    between atoms: C_14  and  N_15
REMARK   11  A    between atoms: N_15  and  C_16
REMARK   12  A    between atoms: C_16  and  C_17
REMARK   13  A    between atoms: C_21  and  O_22
REMARK   14  A    between atoms: O_22  and  C_23
REMARK   15  A    between atoms: C_24  and  O_25
REMARK                            x       y       z     vdW  Elec       q    Type
REMARK                         _______ _______ _______ _____ _____    ______ ____
ROOT
ATOM      1  N   UNL     1       2.560   6.058  20.556  0.00  0.00    +0.000 N 
ATOM      2  H   UNL     1       3.505   5.691  20.472  0.00  0.00    +0.000 HD
ENDROOT
BRANCH   1   7
ATOM      3  C   UNL     1      -0.046  10.606  20.498  0.00  0.00    +0.000 A 
ATOM      4  C   UNL     1       0.068   9.611  21.468  0.00  0.00    +0.000 A 
ATOM      5  C   UNL     1       0.826   8.453  21.227  0.00  0.00    +0.000 A 
ATOM      6  C   UNL     1       1.505   8.258  20.000  0.00  0.00    +0.000 A 
ATOM      7  C   UNL     1       2.339   7.146  19.659  0.00  0.00    +0.000 A 
ATOM      8  C   UNL     1       2.854   7.095  18.354  0.00  0.00    +0.000 A 
ATOM      9  C   UNL     1       2.630   8.138  17.483  0.00  0.00    +0.000 A 
ATOM     10  N   UNL     1       1.907   9.217  17.796  0.00  0.00    +0.000 NA
ATOM     11  C   UNL     1       1.354   9.263  19.012  0.00  0.00    +0.000 A 
ATOM     12  C   UNL     1       0.597  10.386  19.272  0.00  0.00    +0.000 A 
BRANCH   3  13
ATOM     13  C   UNL     1      -0.869  11.867  20.747  0.00  0.00    +0.000 C 
BRANCH  13  15
ATOM     14  C   UNL     1      -1.231  13.012  23.055  0.00  0.00    +0.000 C 
ATOM     15  C   UNL     1      -1.574  11.854  22.131  0.00  0.00    +0.000 C 
ENDBRANCH  13  15
BRANCH  13  16
ATOM     16  C   UNL     1      -0.036  13.139  20.470  0.00  0.00    +0.000 C 
ATOM     17  C   UNL     1      -0.480  13.954  19.263  0.00  0.00    +0.000 C 
ENDBRANCH  13  16
ENDBRANCH   3  13
ENDBRANCH   1   7
BRANCH   1  18
ATOM     18  C   UNL     1       1.547   4.999  20.479  0.00  0.00    +0.000 C 
BRANCH  18  19
ATOM     19  C   UNL     1       1.545   4.250  19.150  0.00  0.00    +0.000 C 
BRANCH  19  20
ATOM     20  C   UNL     1       2.478   3.040  19.303  0.00  0.00    +0.000 C 
BRANCH  20  21
ATOM     21  N   UNL     1       3.671   3.170  18.476  0.00  0.00    +0.000 NA
ATOM     22  H   UNL     1       3.505   3.855  17.737  0.00  0.00    +0.000 HD
BRANCH  21  23
ATOM     23  C   UNL     1       4.795   3.661  19.289  0.00  0.00    +0.000 C 
BRANCH  23  24
ATOM     24  C   UNL     1       5.663   4.606  18.498  0.00  0.00    +0.000 A 
ATOM     25  C   UNL     1       6.616   5.395  19.163  0.00  0.00    +0.000 A 
ATOM     26  C   UNL     1       7.428   6.281  18.456  0.00  0.00    +0.000 A 
ATOM     27  C   UNL     1       7.299   6.401  17.069  0.00  0.00    +0.000 A 
ATOM     28  C   UNL     1       6.350   5.635  16.389  0.00  0.00    +0.000 A 
ATOM     29  C   UNL     1       5.540   4.746  17.114  0.00  0.00    +0.000 A 
BRANCH  28  30
ATOM     30  O   UNL     1       6.117   5.663  15.037  0.00  0.00    +0.000 OA
ATOM     31  C   UNL     1       7.002   4.898  14.226  0.00  0.00    +0.000 C 
ENDBRANCH  28  30
BRANCH  29  32
ATOM     32  O   UNL     1       4.610   4.002  16.433  0.00  0.00    +0.000 OA
ATOM     33  H   UNL     1       4.304   4.583  15.710  0.00  0.00    +0.000 HD
ENDBRANCH  29  32
ENDBRANCH  23  24
ENDBRANCH  21  23
ENDBRANCH  20  21
ENDBRANCH  19  20
ENDBRANCH  18  19
ENDBRANCH   1  18
TORSDOF 12
ENDMDL
MODEL 8
REMARK VINA RESULT:      -6.7      3.547      8.075
REMARK  Name = 
REMARK  15 active torsions:
REMARK  status: ('A' for Active; 'I' for Inactive)
REMARK    1  A    between atoms: C_1  and  C_2
REMARK    2  A    between atoms: C_2  and  C_3
REMARK    3  A    between atoms: C_3  and  C_4
REMARK    4  A    between atoms: C_3  and  C_6
REMARK    5  A    between atoms: C_4  and  C_5
REMARK    6  A    between atoms: C_10  and  N_11
REMARK    7  A    between atoms: N_11  and  C_12
REMARK    8  A    between atoms: C_12  and  C_13
REMARK    9  A    between atoms: C_13  and  C_14
REMARK   10  A    between atoms: C_14  and  N_15
REMARK   11  A    between atoms: N_15  and  C_16
REMARK   12  A    between atoms: C_16  and  C_17
REMARK   13  A    between atoms: C_21  and  O_22
REMARK   14  A    between atoms: O_22  and  C_23
REMARK   15  A    between atoms: C_24  and  O_25
REMARK                            x       y       z     vdW  Elec       q    Type
REMARK                         _______ _______ _______ _____ _____    ______ ____
ROOT
ATOM      1  N   UNL     1       4.456   3.863  19.383  0.00  0.00    +0.000 N 
ATOM      2  H   UNL     1       4.061   4.471  20.097  0.00  0.00    +0.000 HD
ENDROOT
BRANCH   1   7
ATOM      3  C   UNL     1       6.164   4.492  14.468  0.00  0.00    +0.000 A 
ATOM      4  C   UNL     1       5.056   3.826  14.990  0.00  0.00    +0.000 A 
ATOM      5  C   UNL     1       4.826   3.785  16.376  0.00  0.00    +0.000 A 
ATOM      6  C   UNL     1       5.703   4.422  17.287  0.00  0.00    +0.000 A 
ATOM      7  C   UNL     1       5.548   4.487  18.709  0.00  0.00    +0.000 A 
ATOM      8  C   UNL     1       6.576   5.093  19.449  0.00  0.00    +0.000 A 
ATOM      9  C   UNL     1       7.637   5.683  18.799  0.00  0.00    +0.000 A 
ATOM     10  N   UNL     1       7.775   5.692  17.470  0.00  0.00    +0.000 NA
ATOM     11  C   UNL     1       6.841   5.068  16.745  0.00  0.00    +0.000 A 
ATOM     12  C   UNL     1       7.047   5.086  15.380  0.00  0.00    +0.000 A 
BRANCH   3  13
ATOM     13  C   UNL     1       6.426   4.541  12.965  0.00  0.00    +0.000 C 
BRANCH  13  15
ATOM     14  C   UNL     1       7.904   6.204  11.617  0.00  0.00    +0.000 C 
ATOM     15  C   UNL     1       7.847   5.066  12.625  0.00  0.00    +0.000 C 
ENDBRANCH  13  15
BRANCH  13  16
ATOM     16  C   UNL     1       6.068   3.195  12.294  0.00  0.00    +0.000 C 
ATOM     17  C   UNL     1       4.745   3.178  11.541  0.00  0.00    +0.000 C 
ENDBRANCH  13  16
ENDBRANCH   3  13
ENDBRANCH   1   7
BRANCH   1  18
ATOM     18  C   UNL     1       4.755   2.524  19.904  0.00  0.00    +0.000 C 
BRANCH  18  19
ATOM     19  C   UNL     1       4.216   1.394  19.033  0.00  0.00    +0.000 C 
BRANCH  19  20
ATOM     20  C   UNL     1       2.931   1.901  18.365  0.00  0.00    +0.000 C 
BRANCH  20  21
ATOM     21  N   UNL     1       1.740   1.464  19.083  0.00  0.00    +0.000 NA
ATOM     22  H   UNL     1       1.953   1.370  20.077  0.00  0.00    +0.000 HD
BRANCH  21  23
ATOM     23  C   UNL     1       0.676   2.472  18.952  0.00  0.00    +0.000 C 
BRANCH  23  24
ATOM     24  C   UNL     1       1.181   3.843  19.321  0.00  0.00    +0.000 A 
ATOM     25  C   UNL     1       1.293   4.201  20.675  0.00  0.00    +0.000 A 
ATOM     26  C   UNL     1       1.752   5.464  21.045  0.00  0.00    +0.000 A 
ATOM     27  C   UNL     1       2.104   6.399  20.067  0.00  0.00    +0.000 A 
ATOM     28  C   UNL     1       1.990   6.070  18.715  0.00  0.00    +0.000 A 
ATOM     29  C   UNL     1       1.527   4.793  18.358  0.00  0.00    +0.000 A 
BRANCH  28  30
ATOM     30  O   UNL     1       2.293   6.894  17.660  0.00  0.00    +0.000 OA
ATOM     31  C   UNL     1       2.282   8.292  17.926  0.00  0.00    +0.000 C 
ENDBRANCH  28  30
BRANCH  29  32
ATOM     32  O   UNL     1       1.417   4.484  17.026  0.00  0.00    +0.000 OA
ATOM     33  H   UNL     1       1.365   3.508  16.998  0.00  0.00    +0.000 HD
ENDBRANCH  29  32
ENDBRANCH  23  24
ENDBRANCH  21  23
ENDBRANCH  20  21
ENDBRANCH  19  20
ENDBRANCH  18  19
ENDBRANCH   1  18
TORSDOF 12
ENDMDL
MODEL 9
REMARK VINA RESULT:      -6.7      1.543      2.281
REMARK  Name = 
REMARK  15 active torsions:
REMARK  status: ('A' for Active; 'I' for Inactive)
REMARK    1  A    between atoms: C_1  and  C_2
REMARK    2  A    between atoms: C_2  and  C_3
REMARK    3  A    between atoms: C_3  and  C_4
REMARK    4  A    between atoms: C_3  and  C_6
REMARK    5  A    between atoms: C_4  and  C_5
REMARK    6  A    between atoms: C_10  and  N_11
REMARK    7  A    between atoms: N_11  and  C_12
REMARK    8  A    between atoms: C_12  and  C_13
REMARK    9  A    between atoms: C_13  and  C_14
REMARK   10  A    between atoms: C_14  and  N_15
REMARK   11  A    between atoms: N_15  and  C_16
REMARK   12  A    between atoms: C_16  and  C_17
REMARK   13  A    between atoms: C_21  and  O_22
REMARK   14  A    between atoms: O_22  and  C_23
REMARK   15  A    between atoms: C_24  and  O_25
REMARK                            x       y       z     vdW  Elec       q    Type
REMARK                         _______ _______ _______ _____ _____    ______ ____
ROOT
ATOM      1  N   UNL     1       1.832   7.310  21.117  0.00  0.00    +0.000 N 
ATOM      2  H   UNL     1       2.621   7.528  21.721  0.00  0.00    +0.000 HD
ENDROOT
BRANCH   1   7
ATOM      3  C   UNL     1      -1.134  11.495  22.192  0.00  0.00    +0.000 A 
ATOM      4  C   UNL     1      -0.753  10.401  22.967  0.00  0.00    +0.000 A 
ATOM      5  C   UNL     1       0.048   9.380  22.428  0.00  0.00    +0.000 A 
ATOM      6  C   UNL     1       0.499   9.428  21.087  0.00  0.00    +0.000 A 
ATOM      7  C   UNL     1       1.351   8.474  20.444  0.00  0.00    +0.000 A 
ATOM      8  C   UNL     1       1.615   8.654  19.077  0.00  0.00    +0.000 A 
ATOM      9  C   UNL     1       1.140   9.770  18.425  0.00  0.00    +0.000 A 
ATOM     10  N   UNL     1       0.395  10.708  19.016  0.00  0.00    +0.000 NA
ATOM     11  C   UNL     1       0.078  10.530  20.302  0.00  0.00    +0.000 A 
ATOM     12  C   UNL     1      -0.715  11.515  20.855  0.00  0.00    +0.000 A 
BRANCH   3  13
ATOM     13  C   UNL     1      -2.006  12.610  22.766  0.00  0.00    +0.000 C 
BRANCH  13  15
ATOM     14  C   UNL     1      -4.425  12.910  23.675  0.00  0.00    +0.000 C 
ATOM     15  C   UNL     1      -3.158  12.067  23.653  0.00  0.00    +0.000 C 
ENDBRANCH  13  15
BRANCH  13  16
ATOM     16  C   UNL     1      -1.142  13.700  23.441  0.00  0.00    +0.000 C 
ATOM     17  C   UNL     1      -1.462  15.129  23.026  0.00  0.00    +0.000 C 
ENDBRANCH  13  16
ENDBRANCH   3  13
ENDBRANCH   1   7
BRANCH   1  18
ATOM     18  C   UNL     1       2.113   6.175  20.230  0.00  0.00    +0.000 C 
BRANCH  18  19
ATOM     19  C   UNL     1       1.373   4.898  20.618  0.00  0.00    +0.000 C 
BRANCH  19  20
ATOM     20  C   UNL     1       2.332   4.051  21.467  0.00  0.00    +0.000 C 
BRANCH  20  21
ATOM     21  N   UNL     1       2.463   2.697  20.944  0.00  0.00    +0.000 NA
ATOM     22  H   UNL     1       1.823   2.568  20.159  0.00  0.00    +0.000 HD
BRANCH  21  23
ATOM     23  C   UNL     1       3.829   2.483  20.440  0.00  0.00    +0.000 C 
BRANCH  23  24
ATOM     24  C   UNL     1       3.996   3.074  19.063  0.00  0.00    +0.000 A 
ATOM     25  C   UNL     1       3.081   2.745  18.050  0.00  0.00    +0.000 A 
ATOM     26  C   UNL     1       3.215   3.273  16.767  0.00  0.00    +0.000 A 
ATOM     27  C   UNL     1       4.272   4.137  16.469  0.00  0.00    +0.000 A 
ATOM     28  C   UNL     1       5.201   4.469  17.457  0.00  0.00    +0.000 A 
ATOM     29  C   UNL     1       5.052   3.930  18.745  0.00  0.00    +0.000 A 
BRANCH  28  30
ATOM     30  O   UNL     1       6.284   5.296  17.295  0.00  0.00    +0.000 OA
ATOM     31  C   UNL     1       6.891   5.298  16.007  0.00  0.00    +0.000 C 
ENDBRANCH  28  30
BRANCH  29  32
ATOM     32  O   UNL     1       5.973   4.262  19.706  0.00  0.00    +0.000 OA
ATOM     33  H   UNL     1       6.788   4.476  19.210  0.00  0.00    +0.000 HD
ENDBRANCH  29  32
ENDBRANCH  23  24
ENDBRANCH  21  23
ENDBRANCH  20  21
ENDBRANCH  19  20
ENDBRANCH  18  19
ENDBRANCH   1  18
TORSDOF 12
ENDMDL
