MODEL 1
REMARK VINA RESULT:      -7.0      0.000      0.000
REMARK  Name = 
REMARK  2 active torsions:
REMARK  status: ('A' for Active; 'I' for Inactive)
REMARK    1  A    between atoms: C_4  and  O_5
REMARK    2  A    between atoms: O_5  and  C_6
REMARK                            x       y       z     vdW  Elec       q    Type
REMARK                         _______ _______ _______ _____ _____    ______ ____
ROOT
ATOM      1  C   UNL     1       1.876   7.541  20.268  0.00  0.00    +0.000 A 
ATOM      2  C   UNL     1       2.707   7.508  19.122  0.00  0.00    +0.000 A 
ATOM      3  C   UNL     1       2.833   6.184  18.743  0.00  0.00    +0.000 A 
ATOM      4  C   UNL     1       3.540   5.518  17.668  0.00  0.00    +0.000 A 
ATOM      5  N   UNL     1       3.583   4.232  17.483  0.00  0.00    +0.000 NA
ATOM      6  C   UNL     1       2.833   3.495  18.441  0.00  0.00    +0.000 A 
ATOM      7  C   UNL     1       2.705   2.083  18.455  0.00  0.00    +0.000 A 
ATOM      8  C   UNL     1       1.891   1.657  19.495  0.00  0.00    +0.000 A 
ATOM      9  S   UNL     1       1.309   2.972  20.449  0.00  0.00    +0.000 S 
ATOM     10  C   UNL     1       2.125   4.056  19.469  0.00  0.00    +0.000 A 
ATOM     11  N   UNL     1       2.118   5.419  19.638  0.00  0.00    +0.000 N 
ATOM     12  C   UNL     1       1.522   6.242  20.561  0.00  0.00    +0.000 A 
ENDROOT
BRANCH   4  13
ATOM     13  O   UNL     1       4.137   6.439  16.877  0.00  0.00    +0.000 OA
BRANCH  13  14
ATOM     14  C   UNL     1       5.502   6.412  16.391  0.00  0.00    +0.000 C 
ATOM     15  C   UNL     1       5.761   5.520  15.173  0.00  0.00    +0.000 C 
ATOM     16  C   UNL     1       6.607   4.279  15.450  0.00  0.00    +0.000 C 
ATOM     17  N   UNL     1       7.731   4.548  16.343  0.00  0.00    +0.000 NA
ATOM     18  C   UNL     1       7.228   4.998  17.638  0.00  0.00    +0.000 C 
ATOM     19  C   UNL     1       6.531   6.345  17.520  0.00  0.00    +0.000 C 
ATOM     20  H   UNL     1       8.338   5.260  15.937  0.00  0.00    +0.000 HD
ENDBRANCH  13  14
ENDBRANCH   4  13
TORSDOF 2
ENDMDL
MODEL 2
REMARK VINA RESULT:      -7.0      1.607      2.176
REMARK  Name = 
REMARK  2 active torsions:
REMARK  status: ('A' for Active; 'I' for Inactive)
REMARK    1  A    between atoms: C_4  and  O_5
REMARK    2  A    between atoms: O_5  and  C_6
REMARK                            x       y       z     vdW  Elec       q    Type
REMARK                         _______ _______ _______ _____ _____    ______ ____
ROOT
ATOM      1  C   UNL     1       2.911   7.734  18.017  0.00  0.00    +0.000 A 
ATOM      2  C   UNL     1       4.027   7.179  17.344  0.00  0.00    +0.000 A 
ATOM      3  C   UNL     1       3.933   5.804  17.456  0.00  0.00    +0.000 A 
ATOM      4  C   UNL     1       4.754   4.708  16.985  0.00  0.00    +0.000 A 
ATOM      5  N   UNL     1       4.532   3.448  17.222  0.00  0.00    +0.000 NA
ATOM      6  C   UNL     1       3.358   3.214  17.991  0.00  0.00    +0.000 A 
ATOM      7  C   UNL     1       2.884   1.934  18.373  0.00  0.00    +0.000 A 
ATOM      8  C   UNL     1       1.703   2.025  19.096  0.00  0.00    +0.000 A 
ATOM      9  S   UNL     1       1.196   3.659  19.316  0.00  0.00    +0.000 S 
ATOM     10  C   UNL     1       2.523   4.197  18.450  0.00  0.00    +0.000 A 
ATOM     11  N   UNL     1       2.804   5.516  18.190  0.00  0.00    +0.000 N 
ATOM     12  C   UNL     1       2.171   6.688  18.523  0.00  0.00    +0.000 A 
ENDROOT
BRANCH   4  13
ATOM     13  O   UNL     1       5.781   5.192  16.250  0.00  0.00    +0.000 OA
BRANCH  13  14
ATOM     14  C   UNL     1       7.121   5.487  16.718  0.00  0.00    +0.000 C 
ATOM     15  C   UNL     1       7.532   4.821  18.035  0.00  0.00    +0.000 C 
ATOM     16  C   UNL     1       7.695   5.776  19.216  0.00  0.00    +0.000 C 
ATOM     17  N   UNL     1       8.365   7.021  18.849  0.00  0.00    +0.000 NA
ATOM     18  C   UNL     1       7.563   7.731  17.857  0.00  0.00    +0.000 C 
ATOM     19  C   UNL     1       7.496   6.959  16.548  0.00  0.00    +0.000 C 
ATOM     20  H   UNL     1       9.292   6.821  18.472  0.00  0.00    +0.000 HD
ENDBRANCH  13  14
ENDBRANCH   4  13
TORSDOF 2
ENDMDL
MODEL 3
REMARK VINA RESULT:      -6.9      2.600      5.054
REMARK  Name = 
REMARK  2 active torsions:
REMARK  status: ('A' for Active; 'I' for Inactive)
REMARK    1  A    between atoms: C_4  and  O_5
REMARK    2  A    between atoms: O_5  and  C_6
REMARK                            x       y       z     vdW  Elec       q    Type
REMARK                         _______ _______ _______ _____ _____    ______ ____
ROOT
ATOM      1  C   UNL     1       2.591   7.325  18.478  0.00  0.00    +0.000 A 
ATOM      2  C   UNL     1       2.027   6.028  18.400  0.00  0.00    +0.000 A 
ATOM      3  C   UNL     1       2.928   5.228  17.723  0.00  0.00    +0.000 A 
ATOM      4  C   UNL     1       2.926   3.832  17.336  0.00  0.00    +0.000 A 
ATOM      5  N   UNL     1       3.861   3.242  16.651  0.00  0.00    +0.000 NA
ATOM      6  C   UNL     1       4.945   4.099  16.315  0.00  0.00    +0.000 A 
ATOM      7  C   UNL     1       6.095   3.700  15.588  0.00  0.00    +0.000 A 
ATOM      8  C   UNL     1       6.990   4.751  15.439  0.00  0.00    +0.000 A 
ATOM      9  S   UNL     1       6.417   6.206  16.166  0.00  0.00    +0.000 S 
ATOM     10  C   UNL     1       5.026   5.419  16.665  0.00  0.00    +0.000 A 
ATOM     11  N   UNL     1       4.008   6.008  17.376  0.00  0.00    +0.000 N 
ATOM     12  C   UNL     1       3.815   7.283  17.845  0.00  0.00    +0.000 A 
ENDROOT
BRANCH   4  13
ATOM     13  O   UNL     1       1.809   3.231  17.807  0.00  0.00    +0.000 OA
BRANCH  13  14
ATOM     14  C   UNL     1       1.682   2.478  19.039  0.00  0.00    +0.000 C 
ATOM     15  C   UNL     1       0.865   3.144  20.150  0.00  0.00    +0.000 C 
ATOM     16  C   UNL     1       1.676   3.593  21.364  0.00  0.00    +0.000 C 
ATOM     17  N   UNL     1       2.690   2.619  21.760  0.00  0.00    +0.000 NA
ATOM     18  C   UNL     1       3.647   2.443  20.672  0.00  0.00    +0.000 C 
ATOM     19  C   UNL     1       2.989   1.804  19.458  0.00  0.00    +0.000 C 
ATOM     20  H   UNL     1       2.248   1.727  21.987  0.00  0.00    +0.000 HD
ENDBRANCH  13  14
ENDBRANCH   4  13
TORSDOF 2
ENDMDL
MODEL 4
REMARK VINA RESULT:      -6.8      1.781      3.496
REMARK  Name = 
REMARK  2 active torsions:
REMARK  status: ('A' for Active; 'I' for Inactive)
REMARK    1  A    between atoms: C_4  and  O_5
REMARK    2  A    between atoms: O_5  and  C_6
REMARK                            x       y       z     vdW  Elec       q    Type
REMARK                         _______ _______ _______ _____ _____    ______ ____
ROOT
ATOM      1  C   UNL     1       2.456   3.495  21.087  0.00  0.00    +0.000 A 
ATOM      2  C   UNL     1       3.134   3.273  19.863  0.00  0.00    +0.000 A 
ATOM      3  C   UNL     1       3.144   4.472  19.175  0.00  0.00    +0.000 A 
ATOM      4  C   UNL     1       3.677   4.880  17.892  0.00  0.00    +0.000 A 
ATOM      5  N   UNL     1       3.556   6.066  17.372  0.00  0.00    +0.000 NA
ATOM      6  C   UNL     1       2.852   6.981  18.202  0.00  0.00    +0.000 A 
ATOM      7  C   UNL     1       2.597   8.337  17.877  0.00  0.00    +0.000 A 
ATOM      8  C   UNL     1       1.910   8.983  18.896  0.00  0.00    +0.000 A 
ATOM      9  S   UNL     1       1.570   7.933  20.222  0.00  0.00    +0.000 S 
ATOM     10  C   UNL     1       2.340   6.673  19.434  0.00  0.00    +0.000 A 
ATOM     11  N   UNL     1       2.476   5.403  19.939  0.00  0.00    +0.000 N 
ATOM     12  C   UNL     1       2.067   4.817  21.111  0.00  0.00    +0.000 A 
ENDROOT
BRANCH   4  13
ATOM     13  O   UNL     1       4.333   3.843  17.321  0.00  0.00    +0.000 OA
BRANCH  13  14
ATOM     14  C   UNL     1       5.707   3.833  16.860  0.00  0.00    +0.000 C 
ATOM     15  C   UNL     1       6.683   4.715  17.644  0.00  0.00    +0.000 C 
ATOM     16  C   UNL     1       7.204   5.933  16.884  0.00  0.00    +0.000 C 
ATOM     17  N   UNL     1       7.530   5.634  15.491  0.00  0.00    +0.000 NA
ATOM     18  C   UNL     1       6.325   5.199  14.791  0.00  0.00    +0.000 C 
ATOM     19  C   UNL     1       5.820   3.872  15.336  0.00  0.00    +0.000 C 
ATOM     20  H   UNL     1       8.243   4.905  15.448  0.00  0.00    +0.000 HD
ENDBRANCH  13  14
ENDBRANCH   4  13
TORSDOF 2
ENDMDL
MODEL 5
REMARK VINA RESULT:      -6.7      2.155      3.723
REMARK  Name = 
REMARK  2 active torsions:
REMARK  status: ('A' for Active; 'I' for Inactive)
REMARK    1  A    between atoms: C_4  and  O_5
REMARK    2  A    between atoms: O_5  and  C_6
REMARK                            x       y       z     vdW  Elec       q    Type
REMARK                         _______ _______ _______ _____ _____    ______ ____
ROOT
ATOM      1  C   UNL     1       2.092   4.907  20.867  0.00  0.00    +0.000 A 
ATOM      2  C   UNL     1       2.827   4.892  19.657  0.00  0.00    +0.000 A 
ATOM      3  C   UNL     1       2.725   6.152  19.098  0.00  0.00    +0.000 A 
ATOM      4  C   UNL     1       3.248   6.751  17.887  0.00  0.00    +0.000 A 
ATOM      5  N   UNL     1       3.012   7.967  17.489  0.00  0.00    +0.000 NA
ATOM      6  C   UNL     1       2.186   8.706  18.380  0.00  0.00    +0.000 A 
ATOM      7  C   UNL     1       1.793  10.054  18.187  0.00  0.00    +0.000 A 
ATOM      8  C   UNL     1       1.009  10.510  19.238  0.00  0.00    +0.000 A 
ATOM      9  S   UNL     1       0.748   9.293  20.433  0.00  0.00    +0.000 S 
ATOM     10  C   UNL     1       1.675   8.214  19.551  0.00  0.00    +0.000 A 
ATOM     11  N   UNL     1       1.936   6.919  19.926  0.00  0.00    +0.000 N 
ATOM     12  C   UNL     1       1.559   6.169  21.012  0.00  0.00    +0.000 A 
ENDROOT
BRANCH   4  13
ATOM     13  O   UNL     1       4.030   5.858  17.239  0.00  0.00    +0.000 OA
BRANCH  13  14
ATOM     14  C   UNL     1       5.336   6.106  16.661  0.00  0.00    +0.000 C 
ATOM     15  C   UNL     1       5.568   5.531  15.260  0.00  0.00    +0.000 C 
ATOM     16  C   UNL     1       6.566   4.376  15.195  0.00  0.00    +0.000 C 
ATOM     17  N   UNL     1       7.737   4.592  16.041  0.00  0.00    +0.000 NA
ATOM     18  C   UNL     1       7.318   4.692  17.436  0.00  0.00    +0.000 C 
ATOM     19  C   UNL     1       6.472   5.935  17.669  0.00  0.00    +0.000 C 
ATOM     20  H   UNL     1       8.221   5.445  15.758  0.00  0.00    +0.000 HD
ENDBRANCH  13  14
ENDBRANCH   4  13
TORSDOF 2
ENDMDL
MODEL 6
REMARK VINA RESULT:      -6.5      2.507      5.146
REMARK  Name = 
REMARK  2 active torsions:
REMARK  status: ('A' for Active; 'I' for Inactive)
REMARK    1  A    between atoms: C_4  and  O_5
REMARK    2  A    between atoms: O_5  and  C_6
REMARK                            x       y       z     vdW  Elec       q    Type
REMARK                         _______ _______ _______ _____ _____    ______ ____
ROOT
ATOM      1  C   UNL     1       2.603   7.460  18.785  0.00  0.00    +0.000 A 
ATOM      2  C   UNL     1       2.868   6.255  19.480  0.00  0.00    +0.000 A 
ATOM      3  C   UNL     1       3.787   5.542  18.733  0.00  0.00    +0.000 A 
ATOM      4  C   UNL     1       4.439   4.261  18.913  0.00  0.00    +0.000 A 
ATOM      5  N   UNL     1       5.264   3.714  18.069  0.00  0.00    +0.000 NA
ATOM      6  C   UNL     1       5.511   4.512  16.918  0.00  0.00    +0.000 A 
ATOM      7  C   UNL     1       6.381   4.154  15.858  0.00  0.00    +0.000 A 
ATOM      8  C   UNL     1       6.435   5.146  14.888  0.00  0.00    +0.000 A 
ATOM      9  S   UNL     1       5.418   6.487  15.269  0.00  0.00    +0.000 S 
ATOM     10  C   UNL     1       4.950   5.740  16.691  0.00  0.00    +0.000 A 
ATOM     11  N   UNL     1       4.070   6.274  17.601  0.00  0.00    +0.000 N 
ATOM     12  C   UNL     1       3.362   7.449  17.634  0.00  0.00    +0.000 A 
ENDROOT
BRANCH   4  13
ATOM     13  O   UNL     1       4.068   3.724  20.098  0.00  0.00    +0.000 OA
BRANCH  13  14
ATOM     14  C   UNL     1       2.991   2.781  20.325  0.00  0.00    +0.000 C 
ATOM     15  C   UNL     1       2.555   1.957  19.109  0.00  0.00    +0.000 C 
ATOM     16  C   UNL     1       1.168   2.293  18.567  0.00  0.00    +0.000 C 
ATOM     17  N   UNL     1       0.184   2.510  19.625  0.00  0.00    +0.000 NA
ATOM     18  C   UNL     1       0.591   3.650  20.441  0.00  0.00    +0.000 C 
ATOM     19  C   UNL     1       1.876   3.353  21.200  0.00  0.00    +0.000 C 
ATOM     20  H   UNL     1       0.104   1.675  20.205  0.00  0.00    +0.000 HD
ENDBRANCH  13  14
ENDBRANCH   4  13
TORSDOF 2
ENDMDL
MODEL 7
REMARK VINA RESULT:      -6.5      2.684      6.052
REMARK  Name = 
REMARK  2 active torsions:
REMARK  status: ('A' for Active; 'I' for Inactive)
REMARK    1  A    between atoms: C_4  and  O_5
REMARK    2  A    between atoms: O_5  and  C_6
REMARK                            x       y       z     vdW  Elec       q    Type
REMARK                         _______ _______ _______ _____ _____    ______ ____
ROOT
ATOM      1  C   UNL     1       1.480   2.904  20.398  0.00  0.00    +0.000 A 
ATOM      2  C   UNL     1       1.276   4.268  20.718  0.00  0.00    +0.000 A 
ATOM      3  C   UNL     1       2.040   5.016  19.842  0.00  0.00    +0.000 A 
ATOM      4  C   UNL     1       2.250   6.438  19.666  0.00  0.00    +0.000 A 
ATOM      5  N   UNL     1       3.053   6.976  18.796  0.00  0.00    +0.000 NA
ATOM      6  C   UNL     1       3.723   6.025  17.978  0.00  0.00    +0.000 A 
ATOM      7  C   UNL     1       4.640   6.350  16.946  0.00  0.00    +0.000 A 
ATOM      8  C   UNL     1       5.110   5.210  16.308  0.00  0.00    +0.000 A 
ATOM      9  S   UNL     1       4.448   3.765  16.980  0.00  0.00    +0.000 S 
ATOM     10  C   UNL     1       3.559   4.669  18.072  0.00  0.00    +0.000 A 
ATOM     11  N   UNL     1       2.711   4.142  19.015  0.00  0.00    +0.000 N 
ATOM     12  C   UNL     1       2.364   2.855  19.341  0.00  0.00    +0.000 A 
ENDROOT
BRANCH   4  13
ATOM     13  O   UNL     1       1.471   7.123  20.535  0.00  0.00    +0.000 OA
BRANCH  13  14
ATOM     14  C   UNL     1       1.529   8.544  20.818  0.00  0.00    +0.000 C 
ATOM     15  C   UNL     1       1.249   8.950  22.268  0.00  0.00    +0.000 C 
ATOM     16  C   UNL     1      -0.063   9.701  22.486  0.00  0.00    +0.000 C 
ATOM     17  N   UNL     1      -0.328  10.689  21.443  0.00  0.00    +0.000 NA
ATOM     18  C   UNL     1      -0.452  10.015  20.153  0.00  0.00    +0.000 C 
ATOM     19  C   UNL     1       0.869   9.391  19.730  0.00  0.00    +0.000 C 
ATOM     20  H   UNL     1       0.427  11.374  21.409  0.00  0.00    +0.000 HD
ENDBRANCH  13  14
ENDBRANCH   4  13
TORSDOF 2
ENDMDL
MODEL 8
REMARK VINA RESULT:      -6.4      2.840      5.885
REMARK  Name = 
REMARK  2 active torsions:
REMARK  status: ('A' for Active; 'I' for Inactive)
REMARK    1  A    between atoms: C_4  and  O_5
REMARK    2  A    between atoms: O_5  and  C_6
REMARK                            x       y       z     vdW  Elec       q    Type
REMARK                         _______ _______ _______ _____ _____    ______ ____
ROOT
ATOM      1  C   UNL     1       7.507   6.236  18.723  0.00  0.00    +0.000 A 
ATOM      2  C   UNL     1       6.345   5.490  19.037  0.00  0.00    +0.000 A 
ATOM      3  C   UNL     1       5.910   4.895  17.868  0.00  0.00    +0.000 A 
ATOM      4  C   UNL     1       4.796   4.025  17.547  0.00  0.00    +0.000 A 
ATOM      5  N   UNL     1       4.509   3.583  16.358  0.00  0.00    +0.000 NA
ATOM      6  C   UNL     1       5.421   4.014  15.356  0.00  0.00    +0.000 A 
ATOM      7  C   UNL     1       5.341   3.661  13.985  0.00  0.00    +0.000 A 
ATOM      8  C   UNL     1       6.386   4.214  13.257  0.00  0.00    +0.000 A 
ATOM      9  S   UNL     1       7.436   5.165  14.242  0.00  0.00    +0.000 S 
ATOM     10  C   UNL     1       6.505   4.816  15.588  0.00  0.00    +0.000 A 
ATOM     11  N   UNL     1       6.764   5.274  16.857  0.00  0.00    +0.000 N 
ATOM     12  C   UNL     1       7.747   6.081  17.374  0.00  0.00    +0.000 A 
ENDROOT
BRANCH   4  13
ATOM     13  O   UNL     1       4.108   3.732  18.674  0.00  0.00    +0.000 OA
BRANCH  13  14
ATOM     14  C   UNL     1       2.787   4.208  19.033  0.00  0.00    +0.000 C 
ATOM     15  C   UNL     1       2.531   4.409  20.530  0.00  0.00    +0.000 C 
ATOM     16  C   UNL     1       1.548   3.421  21.155  0.00  0.00    +0.000 C 
ATOM     17  N   UNL     1       0.393   3.156  20.300  0.00  0.00    +0.000 NA
ATOM     18  C   UNL     1       0.842   2.551  19.049  0.00  0.00    +0.000 C 
ATOM     19  C   UNL     1       1.676   3.528  18.234  0.00  0.00    +0.000 C 
ATOM     20  H   UNL     1      -0.108   4.024  20.110  0.00  0.00    +0.000 HD
ENDBRANCH  13  14
ENDBRANCH   4  13
TORSDOF 2
ENDMDL
MODEL 9
REMARK VINA RESULT:      -6.4      2.438      5.112
REMARK  Name = 
REMARK  2 active torsions:
REMARK  status: ('A' for Active; 'I' for Inactive)
REMARK    1  A    between atoms: C_4  and  O_5
REMARK    2  A    between atoms: O_5  and  C_6
REMARK                            x       y       z     vdW  Elec       q    Type
REMARK                         _______ _______ _______ _____ _____    ______ ____
ROOT
ATOM      1  C   UNL     1       5.372   6.092  15.999  0.00  0.00    +0.000 A 
ATOM      2  C   UNL     1       5.367   5.201  17.100  0.00  0.00    +0.000 A 
ATOM      3  C   UNL     1       4.450   5.684  18.015  0.00  0.00    +0.000 A 
ATOM      4  C   UNL     1       4.001   5.224  19.313  0.00  0.00    +0.000 A 
ATOM      5  N   UNL     1       3.140   5.839  20.070  0.00  0.00    +0.000 NA
ATOM      6  C   UNL     1       2.632   7.036  19.495  0.00  0.00    +0.000 A 
ATOM      7  C   UNL     1       1.673   7.883  20.107  0.00  0.00    +0.000 A 
ATOM      8  C   UNL     1       1.355   8.961  19.293  0.00  0.00    +0.000 A 
ATOM      9  S   UNL     1       2.234   8.940  17.809  0.00  0.00    +0.000 S 
ATOM     10  C   UNL     1       2.992   7.520  18.267  0.00  0.00    +0.000 A 
ATOM     11  N   UNL     1       3.917   6.847  17.506  0.00  0.00    +0.000 N 
ATOM     12  C   UNL     1       4.465   7.093  16.272  0.00  0.00    +0.000 A 
ENDROOT
BRANCH   4  13
ATOM     13  O   UNL     1       4.602   4.050  19.613  0.00  0.00    +0.000 OA
BRANCH  13  14
ATOM     14  C   UNL     1       4.001   2.731  19.574  0.00  0.00    +0.000 C 
ATOM     15  C   UNL     1       3.700   2.173  18.180  0.00  0.00    +0.000 C 
ATOM     16  C   UNL     1       2.216   2.061  17.838  0.00  0.00    +0.000 C 
ATOM     17  N   UNL     1       1.413   1.565  18.953  0.00  0.00    +0.000 NA
ATOM     18  C   UNL     1       1.505   2.499  20.072  0.00  0.00    +0.000 C 
ATOM     19  C   UNL     1       2.917   2.544  20.636  0.00  0.00    +0.000 C 
ATOM     20  H   UNL     1       1.743   0.642  19.239  0.00  0.00    +0.000 HD
ENDBRANCH  13  14
ENDBRANCH   4  13
TORSDOF 2
ENDMDL
