MODEL 1
REMARK VINA RESULT:      -8.9      0.000      0.000
REMARK  Name = 
REMARK  5 active torsions:
REMARK  status: ('A' for Active; 'I' for Inactive)
REMARK    1  A    between atoms: C_1  and  N_2
REMARK    2  A    between atoms: C_3  and  C_5
REMARK    3  A    between atoms: C_9  and  N_10
REMARK    4  A    between atoms: C_21  and  O_22
REMARK    5  A    between atoms: O_22  and  C_23
REMARK                            x       y       z     vdW  Elec       q    Type
REMARK                         _______ _______ _______ _____ _____    ______ ____
ROOT
ATOM      1  N   UNL     1      -0.790  12.656  22.065  0.00  0.00    +0.000 N 
ATOM      2  C   UNL     1      -0.322  11.345  22.115  0.00  0.00    +0.000 A 
ATOM      3  N   UNL     1      -0.562  10.721  23.283  0.00  0.00    +0.000 NA
ATOM      4  C   UNL     1      -0.180   9.504  23.332  0.00  0.00    +0.000 A 
ATOM      5  N   UNL     1       0.391   8.957  22.296  0.00  0.00    +0.000 NA
ATOM      6  C   UNL     1       0.666   9.587  21.102  0.00  0.00    +0.000 A 
ATOM      7  N   UNL     1       1.320   8.746  20.186  0.00  0.00    +0.000 N 
ATOM      8  C   UNL     1       1.383   7.575  20.948  0.00  0.00    +0.000 C 
ATOM      9  C   UNL     1       1.908   6.439  20.220  0.00  0.00    +0.000 C 
ATOM     10  C   UNL     1       2.796   6.434  19.117  0.00  0.00    +0.000 A 
ATOM     11  C   UNL     1       3.491   5.193  19.074  0.00  0.00    +0.000 A 
ATOM     12  C   UNL     1       4.328   4.850  18.090  0.00  0.00    +0.000 A 
ATOM     13  C   UNL     1       4.427   5.803  17.081  0.00  0.00    +0.000 A 
ATOM     14  C   UNL     1       3.673   7.114  17.155  0.00  0.00    +0.000 A 
ATOM     15  C   UNL     1       2.841   7.482  18.244  0.00  0.00    +0.000 A 
ATOM     16  C   UNL     1       1.944   8.766  18.710  0.00  0.00    +0.000 C 
ATOM     17  N   UNL     1       0.291  10.831  21.000  0.00  0.00    +0.000 NA
ATOM     18  H   UNL     1      -0.508  13.095  21.210  0.00  0.00    +0.000 HD
ENDROOT
BRANCH   1  23
ATOM     19  C   UNL     1      -3.954  13.690  23.675  0.00  0.00    +0.000 A 
ATOM     20  C   UNL     1      -3.547  14.641  24.611  0.00  0.00    +0.000 A 
ATOM     21  C   UNL     1      -2.207  15.012  24.667  0.00  0.00    +0.000 A 
ATOM     22  C   UNL     1      -1.275  14.396  23.815  0.00  0.00    +0.000 A 
ATOM     23  C   UNL     1      -1.647  13.375  22.926  0.00  0.00    +0.000 A 
ATOM     24  C   UNL     1      -3.014  13.071  22.839  0.00  0.00    +0.000 A 
BRANCH  19  27
ATOM     25  C   UNL     1      -7.685  13.650  24.230  0.00  0.00    +0.000 C 
ATOM     26  N   UNL     1      -6.277  13.921  24.359  0.00  0.00    +0.000 N 
ATOM     27  C   UNL     1      -5.372  13.261  23.551  0.00  0.00    +0.000 C 
ATOM     28  O   UNL     1      -5.688  12.393  22.746  0.00  0.00    +0.000 OA
ATOM     29  H   UNL     1      -5.987  14.772  24.820  0.00  0.00    +0.000 HD
ENDBRANCH  19  27
ENDBRANCH   1  23
BRANCH  12  30
ATOM     30  O   UNL     1       4.646   3.560  18.301  0.00  0.00    +0.000 OA
ATOM     31  C   UNL     1       3.866   2.393  18.328  0.00  0.00    +0.000 C 
ENDBRANCH  12  30
TORSDOF 3
ENDMDL
MODEL 2
REMARK VINA RESULT:      -8.5      1.281      2.183
REMARK  Name = 
REMARK  5 active torsions:
REMARK  status: ('A' for Active; 'I' for Inactive)
REMARK    1  A    between atoms: C_1  and  N_2
REMARK    2  A    between atoms: C_3  and  C_5
REMARK    3  A    between atoms: C_9  and  N_10
REMARK    4  A    between atoms: C_21  and  O_22
REMARK    5  A    between atoms: O_22  and  C_23
REMARK                            x       y       z     vdW  Elec       q    Type
REMARK                         _______ _______ _______ _____ _____    ______ ____
ROOT
ATOM      1  N   UNL     1      -0.980  10.814  22.600  0.00  0.00    +0.000 N 
ATOM      2  C   UNL     1      -0.313  10.463  21.429  0.00  0.00    +0.000 A 
ATOM      3  N   UNL     1      -0.421  11.372  20.442  0.00  0.00    +0.000 NA
ATOM      4  C   UNL     1       0.221  11.088  19.376  0.00  0.00    +0.000 A 
ATOM      5  N   UNL     1       0.915   9.987  19.305  0.00  0.00    +0.000 NA
ATOM      6  C   UNL     1       1.017   9.034  20.295  0.00  0.00    +0.000 A 
ATOM      7  N   UNL     1       1.810   7.941  19.911  0.00  0.00    +0.000 N 
ATOM      8  C   UNL     1       2.168   8.352  18.624  0.00  0.00    +0.000 C 
ATOM      9  C   UNL     1       3.121   7.472  17.979  0.00  0.00    +0.000 C 
ATOM     10  C   UNL     1       3.331   6.089  18.201  0.00  0.00    +0.000 A 
ATOM     11  C   UNL     1       3.898   5.503  17.034  0.00  0.00    +0.000 A 
ATOM     12  C   UNL     1       4.300   4.231  16.968  0.00  0.00    +0.000 A 
ATOM     13  C   UNL     1       4.155   3.536  18.165  0.00  0.00    +0.000 A 
ATOM     14  C   UNL     1       3.551   4.188  19.391  0.00  0.00    +0.000 A 
ATOM     15  C   UNL     1       3.071   5.522  19.414  0.00  0.00    +0.000 A 
ATOM     16  C   UNL     1       2.332   6.531  20.467  0.00  0.00    +0.000 C 
ATOM     17  N   UNL     1       0.383   9.281  21.407  0.00  0.00    +0.000 NA
ATOM     18  H   UNL     1      -0.937  10.065  23.264  0.00  0.00    +0.000 HD
ENDROOT
BRANCH   1  23
ATOM     19  C   UNL     1      -3.605  13.127  23.795  0.00  0.00    +0.000 A 
ATOM     20  C   UNL     1      -2.931  14.341  23.933  0.00  0.00    +0.000 A 
ATOM     21  C   UNL     1      -1.596  14.425  23.553  0.00  0.00    +0.000 A 
ATOM     22  C   UNL     1      -0.930  13.282  23.078  0.00  0.00    +0.000 A 
ATOM     23  C   UNL     1      -1.564  12.031  23.012  0.00  0.00    +0.000 A 
ATOM     24  C   UNL     1      -2.929  11.989  23.333  0.00  0.00    +0.000 A 
BRANCH  19  27
ATOM     25  C   UNL     1      -7.269  13.960  24.125  0.00  0.00    +0.000 C 
ATOM     26  N   UNL     1      -5.850  14.058  23.901  0.00  0.00    +0.000 N 
ATOM     27  C   UNL     1      -5.037  12.973  24.165  0.00  0.00    +0.000 C 
ATOM     28  O   UNL     1      -5.443  11.922  24.646  0.00  0.00    +0.000 OA
ATOM     29  H   UNL     1      -5.504  14.791  23.299  0.00  0.00    +0.000 HD
ENDBRANCH  19  27
ENDBRANCH   1  23
BRANCH  12  30
ATOM     30  O   UNL     1       4.930   4.097  15.788  0.00  0.00    +0.000 OA
ATOM     31  C   UNL     1       6.278   3.876  15.464  0.00  0.00    +0.000 C 
ENDBRANCH  12  30
TORSDOF 3
ENDMDL
MODEL 3
REMARK VINA RESULT:      -8.1      1.510      2.430
REMARK  Name = 
REMARK  5 active torsions:
REMARK  status: ('A' for Active; 'I' for Inactive)
REMARK    1  A    between atoms: C_1  and  N_2
REMARK    2  A    between atoms: C_3  and  C_5
REMARK    3  A    between atoms: C_9  and  N_10
REMARK    4  A    between atoms: C_21  and  O_22
REMARK    5  A    between atoms: O_22  and  C_23
REMARK                            x       y       z     vdW  Elec       q    Type
REMARK                         _______ _______ _______ _____ _____    ______ ____
ROOT
ATOM      1  N   UNL     1      -1.050  10.864  22.191  0.00  0.00    +0.000 N 
ATOM      2  C   UNL     1      -0.288  10.507  21.081  0.00  0.00    +0.000 A 
ATOM      3  N   UNL     1      -0.250  11.445  20.116  0.00  0.00    +0.000 NA
ATOM      4  C   UNL     1       0.480  11.153  19.110  0.00  0.00    +0.000 A 
ATOM      5  N   UNL     1       1.120  10.017  19.075  0.00  0.00    +0.000 NA
ATOM      6  C   UNL     1       1.073   9.036  20.041  0.00  0.00    +0.000 A 
ATOM      7  N   UNL     1       1.843   7.911  19.705  0.00  0.00    +0.000 N 
ATOM      8  C   UNL     1       2.350   8.334  18.472  0.00  0.00    +0.000 C 
ATOM      9  C   UNL     1       3.315   7.421  17.899  0.00  0.00    +0.000 C 
ATOM     10  C   UNL     1       3.431   6.023  18.098  0.00  0.00    +0.000 A 
ATOM     11  C   UNL     1       4.080   5.436  16.977  0.00  0.00    +0.000 A 
ATOM     12  C   UNL     1       4.421   4.145  16.913  0.00  0.00    +0.000 A 
ATOM     13  C   UNL     1       4.121   3.430  18.068  0.00  0.00    +0.000 A 
ATOM     14  C   UNL     1       3.431   4.084  19.247  0.00  0.00    +0.000 A 
ATOM     15  C   UNL     1       3.021   5.441  19.263  0.00  0.00    +0.000 A 
ATOM     16  C   UNL     1       2.234   6.462  20.267  0.00  0.00    +0.000 C 
ATOM     17  N   UNL     1       0.344   9.290  21.093  0.00  0.00    +0.000 NA
ATOM     18  H   UNL     1      -1.113  10.098  22.833  0.00  0.00    +0.000 HD
ENDROOT
BRANCH   1  23
ATOM     19  C   UNL     1      -3.655  13.432  22.733  0.00  0.00    +0.000 A 
ATOM     20  C   UNL     1      -2.961  14.475  23.345  0.00  0.00    +0.000 A 
ATOM     21  C   UNL     1      -1.585  14.368  23.519  0.00  0.00    +0.000 A 
ATOM     22  C   UNL     1      -0.918  13.198  23.119  0.00  0.00    +0.000 A 
ATOM     23  C   UNL     1      -1.609  12.101  22.579  0.00  0.00    +0.000 A 
ATOM     24  C   UNL     1      -2.983  12.263  22.349  0.00  0.00    +0.000 A 
BRANCH  19  27
ATOM     25  C   UNL     1      -7.140  12.253  21.900  0.00  0.00    +0.000 C 
ATOM     26  N   UNL     1      -5.710  12.324  22.048  0.00  0.00    +0.000 N 
ATOM     27  C   UNL     1      -5.123  13.489  22.501  0.00  0.00    +0.000 C 
ATOM     28  O   UNL     1      -5.748  14.516  22.737  0.00  0.00    +0.000 OA
ATOM     29  H   UNL     1      -5.184  11.463  22.098  0.00  0.00    +0.000 HD
ENDBRANCH  19  27
ENDBRANCH   1  23
BRANCH  12  30
ATOM     30  O   UNL     1       5.159   4.007  15.797  0.00  0.00    +0.000 OA
ATOM     31  C   UNL     1       5.729   4.948  14.925  0.00  0.00    +0.000 C 
ENDBRANCH  12  30
TORSDOF 3
ENDMDL
MODEL 4
REMARK VINA RESULT:      -8.0      2.580     11.054
REMARK  Name = 
REMARK  5 active torsions:
REMARK  status: ('A' for Active; 'I' for Inactive)
REMARK    1  A    between atoms: C_1  and  N_2
REMARK    2  A    between atoms: C_3  and  C_5
REMARK    3  A    between atoms: C_9  and  N_10
REMARK    4  A    between atoms: C_21  and  O_22
REMARK    5  A    between atoms: O_22  and  C_23
REMARK                            x       y       z     vdW  Elec       q    Type
REMARK                         _______ _______ _______ _____ _____    ______ ____
ROOT
ATOM      1  N   UNL     1       1.861   6.569  20.843  0.00  0.00    +0.000 N 
ATOM      2  C   UNL     1       1.509   7.843  20.405  0.00  0.00    +0.000 A 
ATOM      3  N   UNL     1       1.920   8.127  19.155  0.00  0.00    +0.000 NA
ATOM      4  C   UNL     1       1.567   9.274  18.720  0.00  0.00    +0.000 A 
ATOM      5  N   UNL     1       0.859  10.069  19.472  0.00  0.00    +0.000 NA
ATOM      6  C   UNL     1       0.450   9.805  20.761  0.00  0.00    +0.000 A 
ATOM      7  N   UNL     1      -0.270  10.869  21.327  0.00  0.00    +0.000 N 
ATOM      8  C   UNL     1      -0.256  11.761  20.250  0.00  0.00    +0.000 C 
ATOM      9  C   UNL     1      -1.050  12.951  20.472  0.00  0.00    +0.000 C 
ATOM     10  C   UNL     1      -1.384  13.569  21.703  0.00  0.00    +0.000 A 
ATOM     11  C   UNL     1      -1.654  14.948  21.481  0.00  0.00    +0.000 A 
ATOM     12  C   UNL     1      -2.090  15.777  22.435  0.00  0.00    +0.000 A 
ATOM     13  C   UNL     1      -2.302  15.156  23.662  0.00  0.00    +0.000 A 
ATOM     14  C   UNL     1      -2.008  13.684  23.865  0.00  0.00    +0.000 A 
ATOM     15  C   UNL     1      -1.482  12.842  22.853  0.00  0.00    +0.000 A 
ATOM     16  C   UNL     1      -0.994  11.290  22.694  0.00  0.00    +0.000 C 
ATOM     17  N   UNL     1       0.782   8.643  21.250  0.00  0.00    +0.000 NA
ATOM     18  H   UNL     1       1.606   6.447  21.804  0.00  0.00    +0.000 HD
ENDROOT
BRANCH   1  23
ATOM     19  C   UNL     1       4.364   4.462  19.120  0.00  0.00    +0.000 A 
ATOM     20  C   UNL     1       3.654   3.301  18.811  0.00  0.00    +0.000 A 
ATOM     21  C   UNL     1       2.296   3.234  19.107  0.00  0.00    +0.000 A 
ATOM     22  C   UNL     1       1.667   4.312  19.752  0.00  0.00    +0.000 A 
ATOM     23  C   UNL     1       2.380   5.454  20.149  0.00  0.00    +0.000 A 
ATOM     24  C   UNL     1       3.729   5.527  19.775  0.00  0.00    +0.000 A 
BRANCH  19  27
ATOM     25  C   UNL     1       7.557   4.478  17.113  0.00  0.00    +0.000 C 
ATOM     26  N   UNL     1       6.196   4.267  17.532  0.00  0.00    +0.000 N 
ATOM     27  C   UNL     1       5.812   4.607  18.814  0.00  0.00    +0.000 C 
ATOM     28  O   UNL     1       6.584   5.034  19.664  0.00  0.00    +0.000 OA
ATOM     29  H   UNL     1       5.485   4.148  16.826  0.00  0.00    +0.000 HD
ENDBRANCH  19  27
ENDBRANCH   1  23
BRANCH  12  30
ATOM     30  O   UNL     1      -2.395  16.932  21.817  0.00  0.00    +0.000 OA
ATOM     31  C   UNL     1      -2.530  18.245  22.295  0.00  0.00    +0.000 C 
ENDBRANCH  12  30
TORSDOF 3
ENDMDL
MODEL 5
REMARK VINA RESULT:      -8.0      3.466     10.811
REMARK  Name = 
REMARK  5 active torsions:
REMARK  status: ('A' for Active; 'I' for Inactive)
REMARK    1  A    between atoms: C_1  and  N_2
REMARK    2  A    between atoms: C_3  and  C_5
REMARK    3  A    between atoms: C_9  and  N_10
REMARK    4  A    between atoms: C_21  and  O_22
REMARK    5  A    between atoms: O_22  and  C_23
REMARK                            x       y       z     vdW  Elec       q    Type
REMARK                         _______ _______ _______ _____ _____    ______ ____
ROOT
ATOM      1  N   UNL     1       1.856   6.974  20.615  0.00  0.00    +0.000 N 
ATOM      2  C   UNL     1       1.688   8.127  19.852  0.00  0.00    +0.000 A 
ATOM      3  N   UNL     1       2.163   8.029  18.596  0.00  0.00    +0.000 NA
ATOM      4  C   UNL     1       1.977   9.062  17.869  0.00  0.00    +0.000 A 
ATOM      5  N   UNL     1       1.365  10.104  18.358  0.00  0.00    +0.000 NA
ATOM      6  C   UNL     1       0.895  10.231  19.647  0.00  0.00    +0.000 A 
ATOM      7  N   UNL     1       0.311  11.485  19.887  0.00  0.00    +0.000 N 
ATOM      8  C   UNL     1       0.471  12.063  18.623  0.00  0.00    +0.000 C 
ATOM      9  C   UNL     1      -0.161  13.360  18.496  0.00  0.00    +0.000 C 
ATOM     10  C   UNL     1      -0.437  14.308  19.511  0.00  0.00    +0.000 A 
ATOM     11  C   UNL     1      -0.514  15.608  18.937  0.00  0.00    +0.000 A 
ATOM     12  C   UNL     1      -0.857  16.700  19.627  0.00  0.00    +0.000 A 
ATOM     13  C   UNL     1      -1.179  16.444  20.956  0.00  0.00    +0.000 A 
ATOM     14  C   UNL     1      -1.090  15.048  21.537  0.00  0.00    +0.000 A 
ATOM     15  C   UNL     1      -0.659  13.917  20.800  0.00  0.00    +0.000 A 
ATOM     16  C   UNL     1      -0.381  12.327  21.061  0.00  0.00    +0.000 C 
ATOM     17  N   UNL     1       1.056   9.200  20.428  0.00  0.00    +0.000 NA
ATOM     18  H   UNL     1       1.564   7.134  21.559  0.00  0.00    +0.000 HD
ENDROOT
BRANCH   1  23
ATOM     19  C   UNL     1       3.963   4.276  19.216  0.00  0.00    +0.000 A 
ATOM     20  C   UNL     1       3.235   3.118  19.493  0.00  0.00    +0.000 A 
ATOM     21  C   UNL     1       1.982   3.227  20.088  0.00  0.00    +0.000 A 
ATOM     22  C   UNL     1       1.484   4.492  20.443  0.00  0.00    +0.000 A 
ATOM     23  C   UNL     1       2.236   5.663  20.252  0.00  0.00    +0.000 A 
ATOM     24  C   UNL     1       3.463   5.533  19.586  0.00  0.00    +0.000 A 
BRANCH  19  27
ATOM     25  C   UNL     1       6.542   4.159  16.466  0.00  0.00    +0.000 C 
ATOM     26  N   UNL     1       5.299   4.101  17.191  0.00  0.00    +0.000 N 
ATOM     27  C   UNL     1       5.299   4.232  18.566  0.00  0.00    +0.000 C 
ATOM     28  O   UNL     1       6.318   4.338  19.238  0.00  0.00    +0.000 OA
ATOM     29  H   UNL     1       4.437   4.253  16.688  0.00  0.00    +0.000 HD
ENDBRANCH  19  27
ENDBRANCH   1  23
BRANCH  12  30
ATOM     30  O   UNL     1      -0.989  17.688  18.724  0.00  0.00    +0.000 OA
ATOM     31  C   UNL     1      -0.467  17.854  17.432  0.00  0.00    +0.000 C 
ENDBRANCH  12  30
TORSDOF 3
ENDMDL
MODEL 6
REMARK VINA RESULT:      -8.0      1.090      1.104
REMARK  Name = 
REMARK  5 active torsions:
REMARK  status: ('A' for Active; 'I' for Inactive)
REMARK    1  A    between atoms: C_1  and  N_2
REMARK    2  A    between atoms: C_3  and  C_5
REMARK    3  A    between atoms: C_9  and  N_10
REMARK    4  A    between atoms: C_21  and  O_22
REMARK    5  A    between atoms: O_22  and  C_23
REMARK                            x       y       z     vdW  Elec       q    Type
REMARK                         _______ _______ _______ _____ _____    ______ ____
ROOT
ATOM      1  N   UNL     1      -0.261  12.793  21.590  0.00  0.00    +0.000 N 
ATOM      2  C   UNL     1       0.021  11.443  21.781  0.00  0.00    +0.000 A 
ATOM      3  N   UNL     1      -0.375  10.962  22.974  0.00  0.00    +0.000 NA
ATOM      4  C   UNL     1      -0.164   9.715  23.149  0.00  0.00    +0.000 A 
ATOM      5  N   UNL     1       0.394   9.008  22.206  0.00  0.00    +0.000 NA
ATOM      6  C   UNL     1       0.828   9.489  20.990  0.00  0.00    +0.000 A 
ATOM      7  N   UNL     1       1.420   8.492  20.197  0.00  0.00    +0.000 N 
ATOM      8  C   UNL     1       1.276   7.396  21.053  0.00  0.00    +0.000 C 
ATOM      9  C   UNL     1       1.688   6.140  20.461  0.00  0.00    +0.000 C 
ATOM     10  C   UNL     1       2.638   5.923  19.432  0.00  0.00    +0.000 A 
ATOM     11  C   UNL     1       3.160   4.604  19.541  0.00  0.00    +0.000 A 
ATOM     12  C   UNL     1       4.005   4.069  18.654  0.00  0.00    +0.000 A 
ATOM     13  C   UNL     1       4.296   4.907  17.582  0.00  0.00    +0.000 A 
ATOM     14  C   UNL     1       3.721   6.306  17.493  0.00  0.00    +0.000 A 
ATOM     15  C   UNL     1       2.879   6.873  18.483  0.00  0.00    +0.000 A 
ATOM     16  C   UNL     1       2.134   8.299  18.775  0.00  0.00    +0.000 C 
ATOM     17  N   UNL     1       0.630  10.757  20.760  0.00  0.00    +0.000 NA
ATOM     18  H   UNL     1       0.131  13.114  20.726  0.00  0.00    +0.000 HD
ENDROOT
BRANCH   1  23
ATOM     19  C   UNL     1      -3.354  14.368  22.864  0.00  0.00    +0.000 A 
ATOM     20  C   UNL     1      -2.885  15.337  23.752  0.00  0.00    +0.000 A 
ATOM     21  C   UNL     1      -1.513  15.534  23.882  0.00  0.00    +0.000 A 
ATOM     22  C   UNL     1      -0.620  14.728  23.156  0.00  0.00    +0.000 A 
ATOM     23  C   UNL     1      -1.068  13.690  22.323  0.00  0.00    +0.000 A 
ATOM     24  C   UNL     1      -2.454  13.561  22.155  0.00  0.00    +0.000 A 
BRANCH  19  27
ATOM     25  C   UNL     1      -6.594  12.459  22.561  0.00  0.00    +0.000 C 
ATOM     26  N   UNL     1      -5.196  12.794  22.641  0.00  0.00    +0.000 N 
ATOM     27  C   UNL     1      -4.806  14.119  22.664  0.00  0.00    +0.000 C 
ATOM     28  O   UNL     1      -5.587  15.058  22.560  0.00  0.00    +0.000 OA
ATOM     29  H   UNL     1      -4.546  12.091  22.962  0.00  0.00    +0.000 HD
ENDBRANCH  19  27
ENDBRANCH   1  23
BRANCH  12  30
ATOM     30  O   UNL     1       4.132   2.774  18.991  0.00  0.00    +0.000 OA
ATOM     31  C   UNL     1       3.575   1.603  18.452  0.00  0.00    +0.000 C 
ENDBRANCH  12  30
TORSDOF 3
ENDMDL
MODEL 7
REMARK VINA RESULT:      -7.9      1.930      2.836
REMARK  Name = 
REMARK  5 active torsions:
REMARK  status: ('A' for Active; 'I' for Inactive)
REMARK    1  A    between atoms: C_1  and  N_2
REMARK    2  A    between atoms: C_3  and  C_5
REMARK    3  A    between atoms: C_9  and  N_10
REMARK    4  A    between atoms: C_21  and  O_22
REMARK    5  A    between atoms: O_22  and  C_23
REMARK                            x       y       z     vdW  Elec       q    Type
REMARK                         _______ _______ _______ _____ _____    ______ ____
ROOT
ATOM      1  N   UNL     1      -0.806  12.673  21.770  0.00  0.00    +0.000 N 
ATOM      2  C   UNL     1      -0.322  11.374  21.912  0.00  0.00    +0.000 A 
ATOM      3  N   UNL     1      -0.547  10.834  23.124  0.00  0.00    +0.000 NA
ATOM      4  C   UNL     1      -0.150   9.628  23.258  0.00  0.00    +0.000 A 
ATOM      5  N   UNL     1       0.423   9.014  22.261  0.00  0.00    +0.000 NA
ATOM      6  C   UNL     1       0.683   9.559  21.023  0.00  0.00    +0.000 A 
ATOM      7  N   UNL     1       1.342   8.662  20.167  0.00  0.00    +0.000 N 
ATOM      8  C   UNL     1       1.424   7.551  21.011  0.00  0.00    +0.000 C 
ATOM      9  C   UNL     1       1.959   6.370  20.364  0.00  0.00    +0.000 C 
ATOM     10  C   UNL     1       2.841   6.297  19.259  0.00  0.00    +0.000 A 
ATOM     11  C   UNL     1       3.551   5.064  19.301  0.00  0.00    +0.000 A 
ATOM     12  C   UNL     1       4.387   4.660  18.339  0.00  0.00    +0.000 A 
ATOM     13  C   UNL     1       4.468   5.539  17.263  0.00  0.00    +0.000 A 
ATOM     14  C   UNL     1       3.698   6.843  17.247  0.00  0.00    +0.000 A 
ATOM     15  C   UNL     1       2.868   7.278  18.311  0.00  0.00    +0.000 A 
ATOM     16  C   UNL     1       1.957   8.582  18.689  0.00  0.00    +0.000 C 
ATOM     17  N   UNL     1       0.291  10.788  20.834  0.00  0.00    +0.000 NA
ATOM     18  H   UNL     1      -0.534  13.051  20.883  0.00  0.00    +0.000 HD
ENDROOT
BRANCH   1  23
ATOM     19  C   UNL     1      -1.807  15.085  24.388  0.00  0.00    +0.000 A 
ATOM     20  C   UNL     1      -3.197  15.125  24.279  0.00  0.00    +0.000 A 
ATOM     21  C   UNL     1      -3.834  14.281  23.374  0.00  0.00    +0.000 A 
ATOM     22  C   UNL     1      -3.072  13.435  22.551  0.00  0.00    +0.000 A 
ATOM     23  C   UNL     1      -1.668  13.441  22.583  0.00  0.00    +0.000 A 
ATOM     24  C   UNL     1      -1.054  14.247  23.553  0.00  0.00    +0.000 A 
BRANCH  19  27
ATOM     25  C   UNL     1       0.463  17.828  25.634  0.00  0.00    +0.000 C 
ATOM     26  N   UNL     1      -0.214  16.879  24.789  0.00  0.00    +0.000 N 
ATOM     27  C   UNL     1      -1.065  15.946  25.347  0.00  0.00    +0.000 C 
ATOM     28  O   UNL     1      -1.246  15.828  26.553  0.00  0.00    +0.000 OA
ATOM     29  H   UNL     1      -0.289  17.077  23.801  0.00  0.00    +0.000 HD
ENDBRANCH  19  27
ENDBRANCH   1  23
BRANCH  12  30
ATOM     30  O   UNL     1       4.722   3.393  18.641  0.00  0.00    +0.000 OA
ATOM     31  C   UNL     1       4.270   2.514  19.638  0.00  0.00    +0.000 C 
ENDBRANCH  12  30
TORSDOF 3
ENDMDL
MODEL 8
REMARK VINA RESULT:      -7.9      1.746      1.813
REMARK  Name = 
REMARK  5 active torsions:
REMARK  status: ('A' for Active; 'I' for Inactive)
REMARK    1  A    between atoms: C_1  and  N_2
REMARK    2  A    between atoms: C_3  and  C_5
REMARK    3  A    between atoms: C_9  and  N_10
REMARK    4  A    between atoms: C_21  and  O_22
REMARK    5  A    between atoms: O_22  and  C_23
REMARK                            x       y       z     vdW  Elec       q    Type
REMARK                         _______ _______ _______ _____ _____    ______ ____
ROOT
ATOM      1  N   UNL     1      -1.157  12.736  20.334  0.00  0.00    +0.000 N 
ATOM      2  C   UNL     1      -0.597  11.528  20.741  0.00  0.00    +0.000 A 
ATOM      3  N   UNL     1      -0.880  11.192  22.014  0.00  0.00    +0.000 NA
ATOM      4  C   UNL     1      -0.413  10.065  22.390  0.00  0.00    +0.000 A 
ATOM      5  N   UNL     1       0.278   9.334  21.561  0.00  0.00    +0.000 NA
ATOM      6  C   UNL     1       0.598   9.673  20.264  0.00  0.00    +0.000 A 
ATOM      7  N   UNL     1       1.383   8.696  19.630  0.00  0.00    +0.000 N 
ATOM      8  C   UNL     1       1.474   7.761  20.666  0.00  0.00    +0.000 C 
ATOM      9  C   UNL     1       2.138   6.533  20.281  0.00  0.00    +0.000 C 
ATOM     10  C   UNL     1       3.109   6.339  19.267  0.00  0.00    +0.000 A 
ATOM     11  C   UNL     1       3.896   5.195  19.579  0.00  0.00    +0.000 A 
ATOM     12  C   UNL     1       4.832   4.698  18.764  0.00  0.00    +0.000 A 
ATOM     13  C   UNL     1       4.937   5.378  17.554  0.00  0.00    +0.000 A 
ATOM     14  C   UNL     1       4.083   6.591  17.251  0.00  0.00    +0.000 A 
ATOM     15  C   UNL     1       3.143   7.137  18.161  0.00  0.00    +0.000 A 
ATOM     16  C   UNL     1       2.117   8.408  18.235  0.00  0.00    +0.000 C 
ATOM     17  N   UNL     1       0.138  10.813  19.830  0.00  0.00    +0.000 NA
ATOM     18  H   UNL     1      -0.842  12.974  19.413  0.00  0.00    +0.000 HD
ENDROOT
BRANCH   1  23
ATOM     19  C   UNL     1      -4.515  13.877  21.378  0.00  0.00    +0.000 A 
ATOM     20  C   UNL     1      -4.252  15.029  22.120  0.00  0.00    +0.000 A 
ATOM     21  C   UNL     1      -2.943  15.490  22.219  0.00  0.00    +0.000 A 
ATOM     22  C   UNL     1      -1.900  14.770  21.613  0.00  0.00    +0.000 A 
ATOM     23  C   UNL     1      -2.131  13.563  20.935  0.00  0.00    +0.000 A 
ATOM     24  C   UNL     1      -3.466  13.159  20.788  0.00  0.00    +0.000 A 
BRANCH  19  27
ATOM     25  C   UNL     1      -7.287  11.354  20.955  0.00  0.00    +0.000 C 
ATOM     26  N   UNL     1      -5.991  11.978  21.014  0.00  0.00    +0.000 N 
ATOM     27  C   UNL     1      -5.892  13.341  21.216  0.00  0.00    +0.000 C 
ATOM     28  O   UNL     1      -6.861  14.087  21.294  0.00  0.00    +0.000 OA
ATOM     29  H   UNL     1      -5.182  11.400  21.192  0.00  0.00    +0.000 HD
ENDBRANCH  19  27
ENDBRANCH   1  23
BRANCH  12  30
ATOM     30  O   UNL     1       5.228   3.536  19.312  0.00  0.00    +0.000 OA
ATOM     31  C   UNL     1       4.509   2.461  19.857  0.00  0.00    +0.000 C 
ENDBRANCH  12  30
TORSDOF 3
ENDMDL
MODEL 9
REMARK VINA RESULT:      -7.9      3.053     11.422
REMARK  Name = 
REMARK  5 active torsions:
REMARK  status: ('A' for Active; 'I' for Inactive)
REMARK    1  A    between atoms: C_1  and  N_2
REMARK    2  A    between atoms: C_3  and  C_5
REMARK    3  A    between atoms: C_9  and  N_10
REMARK    4  A    between atoms: C_21  and  O_22
REMARK    5  A    between atoms: O_22  and  C_23
REMARK                            x       y       z     vdW  Elec       q    Type
REMARK                         _______ _______ _______ _____ _____    ______ ____
ROOT
ATOM      1  N   UNL     1       3.929   7.226  17.381  0.00  0.00    +0.000 N 
ATOM      2  C   UNL     1       3.031   7.493  18.412  0.00  0.00    +0.000 A 
ATOM      3  N   UNL     1       2.926   6.504  19.319  0.00  0.00    +0.000 NA
ATOM      4  C   UNL     1       2.140   6.750  20.295  0.00  0.00    +0.000 A 
ATOM      5  N   UNL     1       1.514   7.892  20.358  0.00  0.00    +0.000 NA
ATOM      6  C   UNL     1       1.591   8.904  19.427  0.00  0.00    +0.000 A 
ATOM      7  N   UNL     1       0.775  10.000  19.753  0.00  0.00    +0.000 N 
ATOM      8  C   UNL     1       0.235   9.538  20.957  0.00  0.00    +0.000 C 
ATOM      9  C   UNL     1      -0.582  10.520  21.639  0.00  0.00    +0.000 C 
ATOM     10  C   UNL     1      -1.308  11.601  21.081  0.00  0.00    +0.000 A 
ATOM     11  C   UNL     1      -2.385  11.945  21.946  0.00  0.00    +0.000 A 
ATOM     12  C   UNL     1      -3.192  12.990  21.740  0.00  0.00    +0.000 A 
ATOM     13  C   UNL     1      -2.855  13.744  20.620  0.00  0.00    +0.000 A 
ATOM     14  C   UNL     1      -1.701  13.354  19.720  0.00  0.00    +0.000 A 
ATOM     15  C   UNL     1      -0.901  12.201  19.925  0.00  0.00    +0.000 A 
ATOM     16  C   UNL     1       0.340  11.435  19.188  0.00  0.00    +0.000 C 
ATOM     17  N   UNL     1       2.386   8.704  18.413  0.00  0.00    +0.000 NA
ATOM     18  H   UNL     1       3.901   7.955  16.695  0.00  0.00    +0.000 HD
ENDROOT
BRANCH   1  23
ATOM     19  C   UNL     1       6.267   4.949  15.642  0.00  0.00    +0.000 A 
ATOM     20  C   UNL     1       6.883   4.256  16.685  0.00  0.00    +0.000 A 
ATOM     21  C   UNL     1       6.468   4.485  17.993  0.00  0.00    +0.000 A 
ATOM     22  C   UNL     1       5.470   5.440  18.254  0.00  0.00    +0.000 A 
ATOM     23  C   UNL     1       4.898   6.210  17.228  0.00  0.00    +0.000 A 
ATOM     24  C   UNL     1       5.282   5.909  15.914  0.00  0.00    +0.000 A 
BRANCH  19  27
ATOM     25  C   UNL     1       6.344   3.395  12.206  0.00  0.00    +0.000 C 
ATOM     26  N   UNL     1       6.117   3.621  13.610  0.00  0.00    +0.000 N 
ATOM     27  C   UNL     1       6.650   4.739  14.221  0.00  0.00    +0.000 C 
ATOM     28  O   UNL     1       7.372   5.547  13.648  0.00  0.00    +0.000 OA
ATOM     29  H   UNL     1       5.356   3.135  14.062  0.00  0.00    +0.000 HD
ENDBRANCH  19  27
ENDBRANCH   1  23
BRANCH  12  30
ATOM     30  O   UNL     1      -3.959  13.095  22.839  0.00  0.00    +0.000 OA
ATOM     31  C   UNL     1      -3.679  12.900  24.201  0.00  0.00    +0.000 C 
ENDBRANCH  12  30
TORSDOF 3
ENDMDL
