MODEL 1
REMARK VINA RESULT:      -7.3      0.000      0.000
REMARK  Name = 
REMARK  9 active torsions:
REMARK  status: ('A' for Active; 'I' for Inactive)
REMARK    1  A    between atoms: C_1  and  C_2
REMARK    2  A    between atoms: C_2  and  C_3
REMARK    3  A    between atoms: C_7  and  N_8
REMARK    4  A    between atoms: C_9  and  O_11
REMARK    5  A    between atoms: O_11  and  C_12
REMARK    6  A    between atoms: C_12  and  C_13
REMARK    7  A    between atoms: C_13  and  C_14
REMARK    8  A    between atoms: C_14  and  C_15
REMARK    9  A    between atoms: C_15  and  C_16
REMARK                            x       y       z     vdW  Elec       q    Type
REMARK                         _______ _______ _______ _____ _____    ______ ____
ROOT
ATOM      1  N   UNL     1       4.677   4.578  18.146  0.00  0.00    +0.000 N 
ATOM      2  C   UNL     1       5.863   5.065  18.587  0.00  0.00    +0.000 C 
ATOM      3  O   UNL     1       6.307   4.923  19.710  0.00  0.00    +0.000 OA
ATOM      4  H   UNL     1       4.443   4.804  17.186  0.00  0.00    +0.000 HD
ENDROOT
BRANCH   1  11
ATOM      5  C   UNL     1       2.636   6.289  19.423  0.00  0.00    +0.000 C 
ATOM      6  C   UNL     1       2.602   4.789  19.683  0.00  0.00    +0.000 C 
ATOM      7  C   UNL     1       2.286   4.463  21.140  0.00  0.00    +0.000 C 
ATOM      8  N   UNL     1       1.614   4.107  18.829  0.00  0.00    +0.000 N 
ATOM      9  C   UNL     1       2.509   3.291  18.218  0.00  0.00    +0.000 C 
ATOM     10  O   UNL     1       2.364   2.546  17.277  0.00  0.00    +0.000 OA
ATOM     11  C   UNL     1       3.702   3.885  19.019  0.00  0.00    +0.000 C 
ATOM     12  H   UNL     1       0.820   4.458  18.311  0.00  0.00    +0.000 HD
ENDBRANCH   1  11
BRANCH   2  13
ATOM     13  O   UNL     1       6.430   5.773  17.578  0.00  0.00    +0.000 OA
BRANCH  13  14
ATOM     14  C   UNL     1       6.483   7.190  17.777  0.00  0.00    +0.000 C 
BRANCH  14  15
ATOM     15  C   UNL     1       7.929   7.674  17.709  0.00  0.00    +0.000 C 
BRANCH  15  16
ATOM     16  C   UNL     1       7.968   9.195  17.797  0.00  0.00    +0.000 C 
BRANCH  16  17
ATOM     17  C   UNL     1       9.012   9.721  18.786  0.00  0.00    +0.000 C 
BRANCH  17  18
ATOM     18  C   UNL     1       9.215  11.248  18.641  0.00  0.00    +0.000 C 
ATOM     19  C   UNL     1       9.276  11.999  19.988  0.00  0.00    +0.000 C 
ATOM     20  C   UNL     1      10.613  11.855  20.713  0.00  0.00    +0.000 C 
ATOM     21  C   UNL     1      11.782  12.236  19.813  0.00  0.00    +0.000 C 
ATOM     22  C   UNL     1      11.771  11.416  18.527  0.00  0.00    +0.000 C 
ATOM     23  C   UNL     1      10.449  11.579  17.781  0.00  0.00    +0.000 C 
ENDBRANCH  17  18
ENDBRANCH  16  17
ENDBRANCH  15  16
ENDBRANCH  14  15
ENDBRANCH  13  14
ENDBRANCH   2  13
TORSDOF 7
ENDMDL
MODEL 2
REMARK VINA RESULT:      -7.2      2.793      3.608
REMARK  Name = 
REMARK  9 active torsions:
REMARK  status: ('A' for Active; 'I' for Inactive)
REMARK    1  A    between atoms: C_1  and  C_2
REMARK    2  A    between atoms: C_2  and  C_3
REMARK    3  A    between atoms: C_7  and  N_8
REMARK    4  A    between atoms: C_9  and  O_11
REMARK    5  A    between atoms: O_11  and  C_12
REMARK    6  A    between atoms: C_12  and  C_13
REMARK    7  A    between atoms: C_13  and  C_14
REMARK    8  A    between atoms: C_14  and  C_15
REMARK    9  A    between atoms: C_15  and  C_16
REMARK                            x       y       z     vdW  Elec       q    Type
REMARK                         _______ _______ _______ _____ _____    ______ ____
ROOT
ATOM      1  N   UNL     1       7.565   6.128  17.128  0.00  0.00    +0.000 N 
ATOM      2  C   UNL     1       7.798   6.261  18.457  0.00  0.00    +0.000 C 
ATOM      3  O   UNL     1       7.546   5.424  19.302  0.00  0.00    +0.000 OA
ATOM      4  H   UNL     1       7.813   6.930  16.560  0.00  0.00    +0.000 HD
ENDROOT
BRANCH   1  11
ATOM      5  C   UNL     1       4.626   6.343  16.934  0.00  0.00    +0.000 C 
ATOM      6  C   UNL     1       5.305   5.085  16.409  0.00  0.00    +0.000 C 
ATOM      7  C   UNL     1       4.527   3.820  16.759  0.00  0.00    +0.000 C 
ATOM      8  N   UNL     1       5.486   5.130  14.948  0.00  0.00    +0.000 N 
ATOM      9  C   UNL     1       6.838   5.025  14.980  0.00  0.00    +0.000 C 
ATOM     10  O   UNL     1       7.647   5.136  14.088  0.00  0.00    +0.000 OA
ATOM     11  C   UNL     1       6.867   4.966  16.533  0.00  0.00    +0.000 C 
ATOM     12  H   UNL     1       5.044   5.693  14.235  0.00  0.00    +0.000 HD
ENDBRANCH   1  11
BRANCH   2  13
ATOM     13  O   UNL     1       8.306   7.501  18.674  0.00  0.00    +0.000 OA
BRANCH  13  14
ATOM     14  C   UNL     1       8.096   8.444  17.618  0.00  0.00    +0.000 C 
BRANCH  14  15
ATOM     15  C   UNL     1       8.074   9.862  18.181  0.00  0.00    +0.000 C 
BRANCH  15  16
ATOM     16  C   UNL     1       9.366  10.134  18.944  0.00  0.00    +0.000 C 
BRANCH  16  17
ATOM     17  C   UNL     1      10.245  11.205  18.292  0.00  0.00    +0.000 C 
BRANCH  17  18
ATOM     18  C   UNL     1      11.365  11.680  19.248  0.00  0.00    +0.000 C 
ATOM     19  C   UNL     1      12.122  12.929  18.748  0.00  0.00    +0.000 C 
ATOM     20  C   UNL     1      11.353  14.234  18.944  0.00  0.00    +0.000 C 
ATOM     21  C   UNL     1      10.895  14.404  20.388  0.00  0.00    +0.000 C 
ATOM     22  C   UNL     1      10.063  13.210  20.841  0.00  0.00    +0.000 C 
ATOM     23  C   UNL     1      10.837  11.904  20.677  0.00  0.00    +0.000 C 
ENDBRANCH  17  18
ENDBRANCH  16  17
ENDBRANCH  15  16
ENDBRANCH  14  15
ENDBRANCH  13  14
ENDBRANCH   2  13
TORSDOF 7
ENDMDL
MODEL 3
REMARK VINA RESULT:      -7.2      1.019      1.314
REMARK  Name = 
REMARK  9 active torsions:
REMARK  status: ('A' for Active; 'I' for Inactive)
REMARK    1  A    between atoms: C_1  and  C_2
REMARK    2  A    between atoms: C_2  and  C_3
REMARK    3  A    between atoms: C_7  and  N_8
REMARK    4  A    between atoms: C_9  and  O_11
REMARK    5  A    between atoms: O_11  and  C_12
REMARK    6  A    between atoms: C_12  and  C_13
REMARK    7  A    between atoms: C_13  and  C_14
REMARK    8  A    between atoms: C_14  and  C_15
REMARK    9  A    between atoms: C_15  and  C_16
REMARK                            x       y       z     vdW  Elec       q    Type
REMARK                         _______ _______ _______ _____ _____    ______ ____
ROOT
ATOM      1  N   UNL     1       5.197   5.006  18.315  0.00  0.00    +0.000 N 
ATOM      2  C   UNL     1       6.466   5.264  18.720  0.00  0.00    +0.000 C 
ATOM      3  O   UNL     1       6.881   5.138  19.856  0.00  0.00    +0.000 OA
ATOM      4  H   UNL     1       5.008   5.185  17.336  0.00  0.00    +0.000 HD
ENDROOT
BRANCH   1  11
ATOM      5  C   UNL     1       2.672   6.509  18.023  0.00  0.00    +0.000 C 
ATOM      6  C   UNL     1       2.753   5.410  19.074  0.00  0.00    +0.000 C 
ATOM      7  C   UNL     1       2.068   5.807  20.377  0.00  0.00    +0.000 C 
ATOM      8  N   UNL     1       2.154   4.152  18.597  0.00  0.00    +0.000 N 
ATOM      9  C   UNL     1       3.285   3.413  18.722  0.00  0.00    +0.000 C 
ATOM     10  O   UNL     1       3.519   2.283  18.358  0.00  0.00    +0.000 OA
ATOM     11  C   UNL     1       4.105   4.628  19.240  0.00  0.00    +0.000 C 
ATOM     12  H   UNL     1       1.510   3.959  17.843  0.00  0.00    +0.000 HD
ENDBRANCH   1  11
BRANCH   2  13
ATOM     13  O   UNL     1       7.162   5.733  17.654  0.00  0.00    +0.000 OA
BRANCH  13  14
ATOM     14  C   UNL     1       7.133   7.154  17.479  0.00  0.00    +0.000 C 
BRANCH  14  15
ATOM     15  C   UNL     1       8.231   7.805  18.316  0.00  0.00    +0.000 C 
BRANCH  15  16
ATOM     16  C   UNL     1       8.297   9.297  18.010  0.00  0.00    +0.000 C 
BRANCH  16  17
ATOM     17  C   UNL     1       9.183  10.080  18.983  0.00  0.00    +0.000 C 
BRANCH  17  18
ATOM     18  C   UNL     1       9.975  11.195  18.260  0.00  0.00    +0.000 C 
ATOM     19  C   UNL     1       9.147  12.467  17.981  0.00  0.00    +0.000 C 
ATOM     20  C   UNL     1       8.950  13.355  19.209  0.00  0.00    +0.000 C 
ATOM     21  C   UNL     1      10.279  13.693  19.874  0.00  0.00    +0.000 C 
ATOM     22  C   UNL     1      11.046  12.427  20.237  0.00  0.00    +0.000 C 
ATOM     23  C   UNL     1      11.273  11.549  19.009  0.00  0.00    +0.000 C 
ENDBRANCH  17  18
ENDBRANCH  16  17
ENDBRANCH  15  16
ENDBRANCH  14  15
ENDBRANCH  13  14
ENDBRANCH   2  13
TORSDOF 7
ENDMDL
MODEL 4
REMARK VINA RESULT:      -7.1      1.852      2.566
REMARK  Name = 
REMARK  9 active torsions:
REMARK  status: ('A' for Active; 'I' for Inactive)
REMARK    1  A    between atoms: C_1  and  C_2
REMARK    2  A    between atoms: C_2  and  C_3
REMARK    3  A    between atoms: C_7  and  N_8
REMARK    4  A    between atoms: C_9  and  O_11
REMARK    5  A    between atoms: O_11  and  C_12
REMARK    6  A    between atoms: C_12  and  C_13
REMARK    7  A    between atoms: C_13  and  C_14
REMARK    8  A    between atoms: C_14  and  C_15
REMARK    9  A    between atoms: C_15  and  C_16
REMARK                            x       y       z     vdW  Elec       q    Type
REMARK                         _______ _______ _______ _____ _____    ______ ____
ROOT
ATOM      1  N   UNL     1       5.482   5.722  17.468  0.00  0.00    +0.000 N 
ATOM      2  C   UNL     1       6.138   6.386  16.484  0.00  0.00    +0.000 C 
ATOM      3  O   UNL     1       5.633   6.801  15.458  0.00  0.00    +0.000 OA
ATOM      4  H   UNL     1       6.056   5.424  18.248  0.00  0.00    +0.000 HD
ENDROOT
BRANCH   1  11
ATOM      5  C   UNL     1       4.641   3.525  19.252  0.00  0.00    +0.000 C 
ATOM      6  C   UNL     1       3.604   4.165  18.337  0.00  0.00    +0.000 C 
ATOM      7  C   UNL     1       2.669   3.132  17.716  0.00  0.00    +0.000 C 
ATOM      8  N   UNL     1       2.789   5.163  19.049  0.00  0.00    +0.000 N 
ATOM      9  C   UNL     1       3.135   6.206  18.254  0.00  0.00    +0.000 C 
ATOM     10  O   UNL     1       2.907   7.387  18.379  0.00  0.00    +0.000 OA
ATOM     11  C   UNL     1       4.061   5.319  17.375  0.00  0.00    +0.000 C 
ATOM     12  H   UNL     1       2.626   5.317  20.035  0.00  0.00    +0.000 HD
ENDBRANCH   1  11
BRANCH   2  13
ATOM     13  O   UNL     1       7.450   6.454  16.822  0.00  0.00    +0.000 OA
BRANCH  13  14
ATOM     14  C   UNL     1       7.746   7.254  17.973  0.00  0.00    +0.000 C 
BRANCH  14  15
ATOM     15  C   UNL     1       7.846   8.724  17.575  0.00  0.00    +0.000 C 
BRANCH  15  16
ATOM     16  C   UNL     1       8.747   9.464  18.557  0.00  0.00    +0.000 C 
BRANCH  16  17
ATOM     17  C   UNL     1       8.806  10.974  18.312  0.00  0.00    +0.000 C 
BRANCH  17  18
ATOM     18  C   UNL     1      10.252  11.450  18.034  0.00  0.00    +0.000 C 
ATOM     19  C   UNL     1      10.338  12.885  17.472  0.00  0.00    +0.000 C 
ATOM     20  C   UNL     1      10.145  13.972  18.528  0.00  0.00    +0.000 C 
ATOM     21  C   UNL     1      11.091  13.781  19.708  0.00  0.00    +0.000 C 
ATOM     22  C   UNL     1      10.927  12.395  20.321  0.00  0.00    +0.000 C 
ATOM     23  C   UNL     1      11.148  11.302  19.278  0.00  0.00    +0.000 C 
ENDBRANCH  17  18
ENDBRANCH  16  17
ENDBRANCH  15  16
ENDBRANCH  14  15
ENDBRANCH  13  14
ENDBRANCH   2  13
TORSDOF 7
ENDMDL
MODEL 5
REMARK VINA RESULT:      -7.1      1.482      1.993
REMARK  Name = 
REMARK  9 active torsions:
REMARK  status: ('A' for Active; 'I' for Inactive)
REMARK    1  A    between atoms: C_1  and  C_2
REMARK    2  A    between atoms: C_2  and  C_3
REMARK    3  A    between atoms: C_7  and  N_8
REMARK    4  A    between atoms: C_9  and  O_11
REMARK    5  A    between atoms: O_11  and  C_12
REMARK    6  A    between atoms: C_12  and  C_13
REMARK    7  A    between atoms: C_13  and  C_14
REMARK    8  A    between atoms: C_14  and  C_15
REMARK    9  A    between atoms: C_15  and  C_16
REMARK                            x       y       z     vdW  Elec       q    Type
REMARK                         _______ _______ _______ _____ _____    ______ ____
ROOT
ATOM      1  N   UNL     1       5.834   5.557  18.665  0.00  0.00    +0.000 N 
ATOM      2  C   UNL     1       7.121   5.688  19.069  0.00  0.00    +0.000 C 
ATOM      3  O   UNL     1       7.537   5.441  20.185  0.00  0.00    +0.000 OA
ATOM      4  H   UNL     1       5.649   5.827  17.706  0.00  0.00    +0.000 HD
ENDROOT
BRANCH   1  11
ATOM      5  C   UNL     1       3.105   5.964  17.613  0.00  0.00    +0.000 C 
ATOM      6  C   UNL     1       3.272   5.380  19.009  0.00  0.00    +0.000 C 
ATOM      7  C   UNL     1       2.263   5.954  19.999  0.00  0.00    +0.000 C 
ATOM      8  N   UNL     1       3.141   3.913  19.009  0.00  0.00    +0.000 N 
ATOM      9  C   UNL     1       4.383   3.670  19.499  0.00  0.00    +0.000 C 
ATOM     10  O   UNL     1       4.980   2.625  19.620  0.00  0.00    +0.000 OA
ATOM     11  C   UNL     1       4.726   5.185  19.573  0.00  0.00    +0.000 C 
ATOM     12  H   UNL     1       2.734   3.276  18.338  0.00  0.00    +0.000 HD
ENDBRANCH   1  11
BRANCH   2  13
ATOM     13  O   UNL     1       7.840   6.190  18.034  0.00  0.00    +0.000 OA
BRANCH  13  14
ATOM     14  C   UNL     1       7.524   7.536  17.662  0.00  0.00    +0.000 C 
BRANCH  14  15
ATOM     15  C   UNL     1       8.541   8.498  18.271  0.00  0.00    +0.000 C 
BRANCH  15  16
ATOM     16  C   UNL     1       8.085   9.936  18.052  0.00  0.00    +0.000 C 
BRANCH  16  17
ATOM     17  C   UNL     1       9.230  10.953  18.106  0.00  0.00    +0.000 C 
BRANCH  17  18
ATOM     18  C   UNL     1      10.070  10.796  19.396  0.00  0.00    +0.000 C 
ATOM     19  C   UNL     1      11.416  11.549  19.358  0.00  0.00    +0.000 C 
ATOM     20  C   UNL     1      11.286  13.054  19.584  0.00  0.00    +0.000 C 
ATOM     21  C   UNL     1      10.514  13.364  20.860  0.00  0.00    +0.000 C 
ATOM     22  C   UNL     1       9.143  12.698  20.844  0.00  0.00    +0.000 C 
ATOM     23  C   UNL     1       9.266  11.189  20.649  0.00  0.00    +0.000 C 
ENDBRANCH  17  18
ENDBRANCH  16  17
ENDBRANCH  15  16
ENDBRANCH  14  15
ENDBRANCH  13  14
ENDBRANCH   2  13
TORSDOF 7
ENDMDL
MODEL 6
REMARK VINA RESULT:      -7.1      1.458      1.933
REMARK  Name = 
REMARK  9 active torsions:
REMARK  status: ('A' for Active; 'I' for Inactive)
REMARK    1  A    between atoms: C_1  and  C_2
REMARK    2  A    between atoms: C_2  and  C_3
REMARK    3  A    between atoms: C_7  and  N_8
REMARK    4  A    between atoms: C_9  and  O_11
REMARK    5  A    between atoms: O_11  and  C_12
REMARK    6  A    between atoms: C_12  and  C_13
REMARK    7  A    between atoms: C_13  and  C_14
REMARK    8  A    between atoms: C_14  and  C_15
REMARK    9  A    between atoms: C_15  and  C_16
REMARK                            x       y       z     vdW  Elec       q    Type
REMARK                         _______ _______ _______ _____ _____    ______ ____
ROOT
ATOM      1  N   UNL     1       4.400   5.046  18.767  0.00  0.00    +0.000 N 
ATOM      2  C   UNL     1       5.707   5.383  18.901  0.00  0.00    +0.000 C 
ATOM      3  O   UNL     1       6.405   5.119  19.861  0.00  0.00    +0.000 OA
ATOM      4  H   UNL     1       3.955   5.361  17.912  0.00  0.00    +0.000 HD
ENDROOT
BRANCH   1  11
ATOM      5  C   UNL     1       1.659   4.227  18.033  0.00  0.00    +0.000 C 
ATOM      6  C   UNL     1       2.159   3.936  19.442  0.00  0.00    +0.000 C 
ATOM      7  C   UNL     1       1.089   4.194  20.499  0.00  0.00    +0.000 C 
ATOM      8  N   UNL     1       2.625   2.545  19.582  0.00  0.00    +0.000 N 
ATOM      9  C   UNL     1       3.895   2.867  19.931  0.00  0.00    +0.000 C 
ATOM     10  O   UNL     1       4.867   2.159  20.064  0.00  0.00    +0.000 OA
ATOM     11  C   UNL     1       3.610   4.392  19.834  0.00  0.00    +0.000 C 
ATOM     12  H   UNL     1       2.452   1.722  19.022  0.00  0.00    +0.000 HD
ENDBRANCH   1  11
BRANCH   2  13
ATOM     13  O   UNL     1       6.072   6.101  17.809  0.00  0.00    +0.000 OA
BRANCH  13  14
ATOM     14  C   UNL     1       7.484   6.230  17.605  0.00  0.00    +0.000 C 
BRANCH  14  15
ATOM     15  C   UNL     1       8.026   7.395  18.429  0.00  0.00    +0.000 C 
BRANCH  15  16
ATOM     16  C   UNL     1       8.221   8.613  17.533  0.00  0.00    +0.000 C 
BRANCH  16  17
ATOM     17  C   UNL     1       8.201   9.941  18.297  0.00  0.00    +0.000 C 
BRANCH  17  18
ATOM     18  C   UNL     1       9.620  10.355  18.755  0.00  0.00    +0.000 C 
ATOM     19  C   UNL     1      10.275  11.426  17.858  0.00  0.00    +0.000 C 
ATOM     20  C   UNL     1       9.746  12.839  18.099  0.00  0.00    +0.000 C 
ATOM     21  C   UNL     1       9.828  13.224  19.572  0.00  0.00    +0.000 C 
ATOM     22  C   UNL     1       9.091  12.212  20.442  0.00  0.00    +0.000 C 
ATOM     23  C   UNL     1       9.635  10.802  20.228  0.00  0.00    +0.000 C 
ENDBRANCH  17  18
ENDBRANCH  16  17
ENDBRANCH  15  16
ENDBRANCH  14  15
ENDBRANCH  13  14
ENDBRANCH   2  13
TORSDOF 7
ENDMDL
MODEL 7
REMARK VINA RESULT:      -7.1      5.143      8.629
REMARK  Name = 
REMARK  9 active torsions:
REMARK  status: ('A' for Active; 'I' for Inactive)
REMARK    1  A    between atoms: C_1  and  C_2
REMARK    2  A    between atoms: C_2  and  C_3
REMARK    3  A    between atoms: C_7  and  N_8
REMARK    4  A    between atoms: C_9  and  O_11
REMARK    5  A    between atoms: O_11  and  C_12
REMARK    6  A    between atoms: C_12  and  C_13
REMARK    7  A    between atoms: C_13  and  C_14
REMARK    8  A    between atoms: C_14  and  C_15
REMARK    9  A    between atoms: C_15  and  C_16
REMARK                            x       y       z     vdW  Elec       q    Type
REMARK                         _______ _______ _______ _____ _____    ______ ____
ROOT
ATOM      1  N   UNL     1       5.808   4.335  14.462  0.00  0.00    +0.000 N 
ATOM      2  C   UNL     1       6.140   4.754  15.708  0.00  0.00    +0.000 C 
ATOM      3  O   UNL     1       7.269   4.795  16.158  0.00  0.00    +0.000 OA
ATOM      4  H   UNL     1       4.816   4.341  14.250  0.00  0.00    +0.000 HD
ENDROOT
BRANCH   1  11
ATOM      5  C   UNL     1       4.727   3.547  11.829  0.00  0.00    +0.000 C 
ATOM      6  C   UNL     1       6.216   3.365  12.095  0.00  0.00    +0.000 C 
ATOM      7  C   UNL     1       6.745   2.049  11.532  0.00  0.00    +0.000 C 
ATOM      8  N   UNL     1       7.012   4.467  11.529  0.00  0.00    +0.000 N 
ATOM      9  C   UNL     1       7.544   4.865  12.711  0.00  0.00    +0.000 C 
ATOM     10  O   UNL     1       8.207   5.841  12.976  0.00  0.00    +0.000 OA
ATOM     11  C   UNL     1       6.782   3.765  13.504  0.00  0.00    +0.000 C 
ATOM     12  H   UNL     1       6.796   5.154  10.820  0.00  0.00    +0.000 HD
ENDBRANCH   1  11
BRANCH   2  13
ATOM     13  O   UNL     1       4.995   5.063  16.369  0.00  0.00    +0.000 OA
BRANCH  13  14
ATOM     14  C   UNL     1       5.120   6.083  17.366  0.00  0.00    +0.000 C 
BRANCH  14  15
ATOM     15  C   UNL     1       3.911   7.014  17.315  0.00  0.00    +0.000 C 
BRANCH  15  16
ATOM     16  C   UNL     1       3.172   6.972  18.648  0.00  0.00    +0.000 C 
BRANCH  16  17
ATOM     17  C   UNL     1       3.067   5.565  19.243  0.00  0.00    +0.000 C 
BRANCH  17  18
ATOM     18  C   UNL     1       1.703   4.910  18.918  0.00  0.00    +0.000 C 
ATOM     19  C   UNL     1       1.739   3.975  17.691  0.00  0.00    +0.000 C 
ATOM     20  C   UNL     1       2.366   2.611  17.974  0.00  0.00    +0.000 C 
ATOM     21  C   UNL     1       1.711   1.931  19.170  0.00  0.00    +0.000 C 
ATOM     22  C   UNL     1       1.771   2.823  20.406  0.00  0.00    +0.000 C 
ATOM     23  C   UNL     1       1.118   4.177  20.139  0.00  0.00    +0.000 C 
ENDBRANCH  17  18
ENDBRANCH  16  17
ENDBRANCH  15  16
ENDBRANCH  14  15
ENDBRANCH  13  14
ENDBRANCH   2  13
TORSDOF 7
ENDMDL
MODEL 8
REMARK VINA RESULT:      -7.0      5.095      7.549
REMARK  Name = 
REMARK  9 active torsions:
REMARK  status: ('A' for Active; 'I' for Inactive)
REMARK    1  A    between atoms: C_1  and  C_2
REMARK    2  A    between atoms: C_2  and  C_3
REMARK    3  A    between atoms: C_7  and  N_8
REMARK    4  A    between atoms: C_9  and  O_11
REMARK    5  A    between atoms: O_11  and  C_12
REMARK    6  A    between atoms: C_12  and  C_13
REMARK    7  A    between atoms: C_13  and  C_14
REMARK    8  A    between atoms: C_14  and  C_15
REMARK    9  A    between atoms: C_15  and  C_16
REMARK                            x       y       z     vdW  Elec       q    Type
REMARK                         _______ _______ _______ _____ _____    ______ ____
ROOT
ATOM      1  N   UNL     1       5.118   4.977  17.900  0.00  0.00    +0.000 N 
ATOM      2  C   UNL     1       4.835   4.424  19.106  0.00  0.00    +0.000 C 
ATOM      3  O   UNL     1       5.179   3.315  19.468  0.00  0.00    +0.000 OA
ATOM      4  H   UNL     1       4.738   5.904  17.746  0.00  0.00    +0.000 HD
ENDROOT
BRANCH   1  11
ATOM      5  C   UNL     1       5.349   6.416  15.332  0.00  0.00    +0.000 C 
ATOM      6  C   UNL     1       5.950   5.021  15.447  0.00  0.00    +0.000 C 
ATOM      7  C   UNL     1       5.704   4.182  14.197  0.00  0.00    +0.000 C 
ATOM      8  N   UNL     1       7.401   5.069  15.698  0.00  0.00    +0.000 N 
ATOM      9  C   UNL     1       7.352   4.404  16.879  0.00  0.00    +0.000 C 
ATOM     10  O   UNL     1       8.219   4.216  17.701  0.00  0.00    +0.000 OA
ATOM     11  C   UNL     1       5.806   4.251  16.809  0.00  0.00    +0.000 C 
ATOM     12  H   UNL     1       8.080   5.805  15.565  0.00  0.00    +0.000 HD
ENDBRANCH   1  11
BRANCH   2  13
ATOM     13  O   UNL     1       4.067   5.299  19.802  0.00  0.00    +0.000 OA
BRANCH  13  14
ATOM     14  C   UNL     1       2.738   5.481  19.301  0.00  0.00    +0.000 C 
BRANCH  14  15
ATOM     15  C   UNL     1       2.344   6.953  19.389  0.00  0.00    +0.000 C 
BRANCH  15  16
ATOM     16  C   UNL     1       1.770   7.251  20.769  0.00  0.00    +0.000 C 
BRANCH  16  17
ATOM     17  C   UNL     1       1.503   8.740  21.010  0.00  0.00    +0.000 C 
BRANCH  17  18
ATOM     18  C   UNL     1      -0.007   9.067  20.931  0.00  0.00    +0.000 C 
ATOM     19  C   UNL     1      -0.757   8.872  22.266  0.00  0.00    +0.000 C 
ATOM     20  C   UNL     1      -0.529  10.000  23.270  0.00  0.00    +0.000 C 
ATOM     21  C   UNL     1      -0.830  11.364  22.659  0.00  0.00    +0.000 C 
ATOM     22  C   UNL     1      -0.009  11.589  21.395  0.00  0.00    +0.000 C 
ATOM     23  C   UNL     1      -0.255  10.481  20.374  0.00  0.00    +0.000 C 
ENDBRANCH  17  18
ENDBRANCH  16  17
ENDBRANCH  15  16
ENDBRANCH  14  15
ENDBRANCH  13  14
ENDBRANCH   2  13
TORSDOF 7
ENDMDL
MODEL 9
REMARK VINA RESULT:      -7.0      3.751      7.126
REMARK  Name = 
REMARK  9 active torsions:
REMARK  status: ('A' for Active; 'I' for Inactive)
REMARK    1  A    between atoms: C_1  and  C_2
REMARK    2  A    between atoms: C_2  and  C_3
REMARK    3  A    between atoms: C_7  and  N_8
REMARK    4  A    between atoms: C_9  and  O_11
REMARK    5  A    between atoms: O_11  and  C_12
REMARK    6  A    between atoms: C_12  and  C_13
REMARK    7  A    between atoms: C_13  and  C_14
REMARK    8  A    between atoms: C_14  and  C_15
REMARK    9  A    between atoms: C_15  and  C_16
REMARK                            x       y       z     vdW  Elec       q    Type
REMARK                         _______ _______ _______ _____ _____    ______ ____
ROOT
ATOM      1  N   UNL     1       5.378   3.934  18.276  0.00  0.00    +0.000 N 
ATOM      2  C   UNL     1       4.181   3.298  18.301  0.00  0.00    +0.000 C 
ATOM      3  O   UNL     1       3.292   3.441  17.483  0.00  0.00    +0.000 OA
ATOM      4  H   UNL     1       6.001   3.720  19.047  0.00  0.00    +0.000 HD
ENDROOT
BRANCH   1  11
ATOM      5  C   UNL     1       7.886   5.409  18.786  0.00  0.00    +0.000 C 
ATOM      6  C   UNL     1       7.072   5.753  17.545  0.00  0.00    +0.000 C 
ATOM      7  C   UNL     1       7.016   7.256  17.291  0.00  0.00    +0.000 C 
ATOM      8  N   UNL     1       7.608   5.097  16.340  0.00  0.00    +0.000 N 
ATOM      9  C   UNL     1       6.478   4.403  16.055  0.00  0.00    +0.000 C 
ATOM     10  O   UNL     1       6.284   3.536  15.234  0.00  0.00    +0.000 OA
ATOM     11  C   UNL     1       5.729   4.980  17.289  0.00  0.00    +0.000 C 
ATOM     12  H   UNL     1       8.511   4.686  16.146  0.00  0.00    +0.000 HD
ENDBRANCH   1  11
BRANCH   2  13
ATOM     13  O   UNL     1       4.135   2.527  19.417  0.00  0.00    +0.000 OA
BRANCH  13  14
ATOM     14  C   UNL     1       2.840   2.386  20.012  0.00  0.00    +0.000 C 
BRANCH  14  15
ATOM     15  C   UNL     1       2.553   3.576  20.924  0.00  0.00    +0.000 C 
BRANCH  15  16
ATOM     16  C   UNL     1       1.177   4.149  20.607  0.00  0.00    +0.000 C 
BRANCH  16  17
ATOM     17  C   UNL     1       1.212   5.289  19.585  0.00  0.00    +0.000 C 
BRANCH  17  18
ATOM     18  C   UNL     1       2.317   6.319  19.920  0.00  0.00    +0.000 C 
ATOM     19  C   UNL     1       3.043   6.879  18.679  0.00  0.00    +0.000 C 
ATOM     20  C   UNL     1       2.241   7.935  17.921  0.00  0.00    +0.000 C 
ATOM     21  C   UNL     1       1.775   9.055  18.843  0.00  0.00    +0.000 C 
ATOM     22  C   UNL     1       0.971   8.500  20.014  0.00  0.00    +0.000 C 
ATOM     23  C   UNL     1       1.779   7.466  20.795  0.00  0.00    +0.000 C 
ENDBRANCH  17  18
ENDBRANCH  16  17
ENDBRANCH  15  16
ENDBRANCH  14  15
ENDBRANCH  13  14
ENDBRANCH   2  13
TORSDOF 7
ENDMDL
