MODEL 1
REMARK VINA RESULT:      -7.3      0.000      0.000
REMARK  Name = 
REMARK  7 active torsions:
REMARK  status: ('A' for Active; 'I' for Inactive)
REMARK    1  A    between atoms: C_1  and  C_2
REMARK    2  A    between atoms: C_4  and  O_5
REMARK    3  A    between atoms: C_6  and  C_7
REMARK    4  A    between atoms: N_9  and  C_10
REMARK    5  A    between atoms: C_10  and  C_11
REMARK    6  A    between atoms: C_11  and  C_12
REMARK    7  A    between atoms: C_12  and  C_13
REMARK                            x       y       z     vdW  Elec       q    Type
REMARK                         _______ _______ _______ _____ _____    ______ ____
ROOT
ATOM      1  C   UNL     1       5.451   4.277  18.580  0.00  0.00    +0.000 C 
ATOM      2  O   UNL     1       5.269   3.850  19.716  0.00  0.00    +0.000 OA
ATOM      3  N   UNL     1       4.899   3.638  17.489  0.00  0.00    +0.000 N 
ATOM      4  H   UNL     1       5.034   4.038  16.560  0.00  0.00    +0.000 HD
ENDROOT
BRANCH   1   9
ATOM      5  C   UNL     1       8.414   9.141  17.434  0.00  0.00    +0.000 C 
ATOM      6  C   UNL     1       7.733   7.859  17.784  0.00  0.00    +0.000 A 
ATOM      7  C   UNL     1       8.069   7.067  18.805  0.00  0.00    +0.000 A 
ATOM      8  C   UNL     1       7.307   5.869  19.058  0.00  0.00    +0.000 A 
ATOM      9  C   UNL     1       6.262   5.512  18.279  0.00  0.00    +0.000 A 
ATOM     10  C   UNL     1       5.935   6.384  17.118  0.00  0.00    +0.000 A 
ATOM     11  O   UNL     1       5.032   6.106  16.332  0.00  0.00    +0.000 OA
ATOM     12  O   UNL     1       6.665   7.526  16.933  0.00  0.00    +0.000 OA
BRANCH   8  13
ATOM     13  O   UNL     1       7.724   5.140  20.148  0.00  0.00    +0.000 OA
ATOM     14  H   UNL     1       8.330   4.430  19.885  0.00  0.00    +0.000 HD
ENDBRANCH   8  13
ENDBRANCH   1   9
BRANCH   3  15
ATOM     15  C   UNL     1       4.057   2.464  17.606  0.00  0.00    +0.000 C 
BRANCH  15  16
ATOM     16  C   UNL     1       2.626   2.741  17.144  0.00  0.00    +0.000 C 
BRANCH  16  17
ATOM     17  C   UNL     1       1.702   3.025  18.333  0.00  0.00    +0.000 C 
BRANCH  17  18
ATOM     18  C   UNL     1       1.847   4.436  18.850  0.00  0.00    +0.000 A 
ATOM     19  C   UNL     1       2.130   5.500  17.981  0.00  0.00    +0.000 A 
ATOM     20  C   UNL     1       2.291   6.797  18.478  0.00  0.00    +0.000 A 
ATOM     21  C   UNL     1       2.169   7.044  19.844  0.00  0.00    +0.000 A 
ATOM     22  C   UNL     1       1.877   5.996  20.714  0.00  0.00    +0.000 A 
ATOM     23  C   UNL     1       1.720   4.700  20.221  0.00  0.00    +0.000 A 
ENDBRANCH  17  18
ENDBRANCH  16  17
ENDBRANCH  15  16
ENDBRANCH   3  15
TORSDOF 6
ENDMDL
MODEL 2
REMARK VINA RESULT:      -7.2      2.608      7.286
REMARK  Name = 
REMARK  7 active torsions:
REMARK  status: ('A' for Active; 'I' for Inactive)
REMARK    1  A    between atoms: C_1  and  C_2
REMARK    2  A    between atoms: C_4  and  O_5
REMARK    3  A    between atoms: C_6  and  C_7
REMARK    4  A    between atoms: N_9  and  C_10
REMARK    5  A    between atoms: C_10  and  C_11
REMARK    6  A    between atoms: C_11  and  C_12
REMARK    7  A    between atoms: C_12  and  C_13
REMARK                            x       y       z     vdW  Elec       q    Type
REMARK                         _______ _______ _______ _____ _____    ______ ____
ROOT
ATOM      1  C   UNL     1       5.996   6.030  16.571  0.00  0.00    +0.000 C 
ATOM      2  O   UNL     1       6.433   5.903  15.431  0.00  0.00    +0.000 OA
ATOM      3  N   UNL     1       6.619   6.864  17.477  0.00  0.00    +0.000 N 
ATOM      4  H   UNL     1       6.210   6.980  18.405  0.00  0.00    +0.000 HD
ENDROOT
BRANCH   1   9
ATOM      5  C   UNL     1       1.147   3.387  18.375  0.00  0.00    +0.000 C 
ATOM      6  C   UNL     1       2.441   3.976  17.918  0.00  0.00    +0.000 A 
ATOM      7  C   UNL     1       3.471   3.278  17.430  0.00  0.00    +0.000 A 
ATOM      8  C   UNL     1       4.656   3.973  16.991  0.00  0.00    +0.000 A 
ATOM      9  C   UNL     1       4.765   5.317  17.071  0.00  0.00    +0.000 A 
ATOM     10  C   UNL     1       3.626   6.070  17.662  0.00  0.00    +0.000 A 
ATOM     11  O   UNL     1       3.664   7.288  17.816  0.00  0.00    +0.000 OA
ATOM     12  O   UNL     1       2.509   5.375  18.038  0.00  0.00    +0.000 OA
BRANCH   8  13
ATOM     13  O   UNL     1       5.644   3.160  16.484  0.00  0.00    +0.000 OA
ATOM     14  H   UNL     1       5.812   2.403  17.067  0.00  0.00    +0.000 HD
ENDBRANCH   8  13
ENDBRANCH   1   9
BRANCH   3  15
ATOM     15  C   UNL     1       7.787   7.656  17.145  0.00  0.00    +0.000 C 
BRANCH  15  16
ATOM     16  C   UNL     1       8.191   8.582  18.292  0.00  0.00    +0.000 C 
BRANCH  16  17
ATOM     17  C   UNL     1       8.353  10.028  17.810  0.00  0.00    +0.000 C 
BRANCH  17  18
ATOM     18  C   UNL     1       9.440  10.765  18.556  0.00  0.00    +0.000 A 
ATOM     19  C   UNL     1      10.506  11.368  17.871  0.00  0.00    +0.000 A 
ATOM     20  C   UNL     1      11.521  12.023  18.576  0.00  0.00    +0.000 A 
ATOM     21  C   UNL     1      11.481  12.083  19.968  0.00  0.00    +0.000 A 
ATOM     22  C   UNL     1      10.421  11.497  20.656  0.00  0.00    +0.000 A 
ATOM     23  C   UNL     1       9.408  10.840  19.954  0.00  0.00    +0.000 A 
ENDBRANCH  17  18
ENDBRANCH  16  17
ENDBRANCH  15  16
ENDBRANCH   3  15
TORSDOF 6
ENDMDL
MODEL 3
REMARK VINA RESULT:      -7.2      1.071      1.299
REMARK  Name = 
REMARK  7 active torsions:
REMARK  status: ('A' for Active; 'I' for Inactive)
REMARK    1  A    between atoms: C_1  and  C_2
REMARK    2  A    between atoms: C_4  and  O_5
REMARK    3  A    between atoms: C_6  and  C_7
REMARK    4  A    between atoms: N_9  and  C_10
REMARK    5  A    between atoms: C_10  and  C_11
REMARK    6  A    between atoms: C_11  and  C_12
REMARK    7  A    between atoms: C_12  and  C_13
REMARK                            x       y       z     vdW  Elec       q    Type
REMARK                         _______ _______ _______ _____ _____    ______ ____
ROOT
ATOM      1  C   UNL     1       5.388   4.191  16.637  0.00  0.00    +0.000 C 
ATOM      2  O   UNL     1       5.227   3.796  15.485  0.00  0.00    +0.000 OA
ATOM      3  N   UNL     1       4.846   3.499  17.701  0.00  0.00    +0.000 N 
ATOM      4  H   UNL     1       5.030   3.828  18.650  0.00  0.00    +0.000 HD
ENDROOT
BRANCH   1   9
ATOM      5  C   UNL     1       8.275   9.031  18.045  0.00  0.00    +0.000 C 
ATOM      6  C   UNL     1       7.613   7.733  17.718  0.00  0.00    +0.000 A 
ATOM      7  C   UNL     1       7.955   6.548  18.230  0.00  0.00    +0.000 A 
ATOM      8  C   UNL     1       7.211   5.370  17.856  0.00  0.00    +0.000 A 
ATOM      9  C   UNL     1       6.179   5.425  16.987  0.00  0.00    +0.000 A 
ATOM     10  C   UNL     1       5.846   6.747  16.391  0.00  0.00    +0.000 A 
ATOM     11  O   UNL     1       4.954   6.877  15.556  0.00  0.00    +0.000 OA
ATOM     12  O   UNL     1       6.557   7.844  16.796  0.00  0.00    +0.000 OA
BRANCH   8  13
ATOM     13  O   UNL     1       7.632   4.208  18.461  0.00  0.00    +0.000 OA
ATOM     14  H   UNL     1       8.345   3.786  17.955  0.00  0.00    +0.000 HD
ENDBRANCH   8  13
ENDBRANCH   1   9
BRANCH   3  15
ATOM     15  C   UNL     1       4.096   2.269  17.543  0.00  0.00    +0.000 C 
BRANCH  15  16
ATOM     16  C   UNL     1       2.685   2.384  18.118  0.00  0.00    +0.000 C 
BRANCH  16  17
ATOM     17  C   UNL     1       1.943   3.592  17.536  0.00  0.00    +0.000 C 
BRANCH  17  18
ATOM     18  C   UNL     1       1.992   4.793  18.452  0.00  0.00    +0.000 A 
ATOM     19  C   UNL     1       2.402   6.048  17.979  0.00  0.00    +0.000 A 
ATOM     20  C   UNL     1       2.469   7.144  18.844  0.00  0.00    +0.000 A 
ATOM     21  C   UNL     1       2.128   6.998  20.187  0.00  0.00    +0.000 A 
ATOM     22  C   UNL     1       1.709   5.758  20.665  0.00  0.00    +0.000 A 
ATOM     23  C   UNL     1       1.644   4.661  19.803  0.00  0.00    +0.000 A 
ENDBRANCH  17  18
ENDBRANCH  16  17
ENDBRANCH  15  16
ENDBRANCH   3  15
TORSDOF 6
ENDMDL
MODEL 4
REMARK VINA RESULT:      -7.2      0.134      1.061
REMARK  Name = 
REMARK  7 active torsions:
REMARK  status: ('A' for Active; 'I' for Inactive)
REMARK    1  A    between atoms: C_1  and  C_2
REMARK    2  A    between atoms: C_4  and  O_5
REMARK    3  A    between atoms: C_6  and  C_7
REMARK    4  A    between atoms: N_9  and  C_10
REMARK    5  A    between atoms: C_10  and  C_11
REMARK    6  A    between atoms: C_11  and  C_12
REMARK    7  A    between atoms: C_12  and  C_13
REMARK                            x       y       z     vdW  Elec       q    Type
REMARK                         _______ _______ _______ _____ _____    ______ ____
ROOT
ATOM      1  C   UNL     1       5.510   4.345  18.571  0.00  0.00    +0.000 C 
ATOM      2  O   UNL     1       5.323   3.907  19.703  0.00  0.00    +0.000 OA
ATOM      3  N   UNL     1       4.957   3.719  17.473  0.00  0.00    +0.000 N 
ATOM      4  H   UNL     1       5.096   4.128  16.548  0.00  0.00    +0.000 HD
ENDROOT
BRANCH   1   9
ATOM      5  C   UNL     1       8.500   9.205  17.483  0.00  0.00    +0.000 C 
ATOM      6  C   UNL     1       7.811   7.923  17.818  0.00  0.00    +0.000 A 
ATOM      7  C   UNL     1       8.145   7.115  18.828  0.00  0.00    +0.000 A 
ATOM      8  C   UNL     1       7.375   5.919  19.066  0.00  0.00    +0.000 A 
ATOM      9  C   UNL     1       6.327   5.578  18.285  0.00  0.00    +0.000 A 
ATOM     10  C   UNL     1       6.003   6.467  17.136  0.00  0.00    +0.000 A 
ATOM     11  O   UNL     1       5.097   6.205  16.348  0.00  0.00    +0.000 OA
ATOM     12  O   UNL     1       6.740   7.607  16.965  0.00  0.00    +0.000 OA
BRANCH   8  13
ATOM     13  O   UNL     1       7.790   5.174  20.146  0.00  0.00    +0.000 OA
ATOM     14  H   UNL     1       8.750   5.236  20.270  0.00  0.00    +0.000 HD
ENDBRANCH   8  13
ENDBRANCH   1   9
BRANCH   3  15
ATOM     15  C   UNL     1       4.108   2.548  17.576  0.00  0.00    +0.000 C 
BRANCH  15  16
ATOM     16  C   UNL     1       2.657   2.863  17.215  0.00  0.00    +0.000 C 
BRANCH  16  17
ATOM     17  C   UNL     1       1.816   3.128  18.468  0.00  0.00    +0.000 C 
BRANCH  17  18
ATOM     18  C   UNL     1       1.934   4.555  18.949  0.00  0.00    +0.000 A 
ATOM     19  C   UNL     1       1.748   4.880  20.300  0.00  0.00    +0.000 A 
ATOM     20  C   UNL     1       1.832   6.209  20.728  0.00  0.00    +0.000 A 
ATOM     21  C   UNL     1       2.103   7.223  19.811  0.00  0.00    +0.000 A 
ATOM     22  C   UNL     1       2.300   6.909  18.468  0.00  0.00    +0.000 A 
ATOM     23  C   UNL     1       2.213   5.583  18.039  0.00  0.00    +0.000 A 
ENDBRANCH  17  18
ENDBRANCH  16  17
ENDBRANCH  15  16
ENDBRANCH   3  15
TORSDOF 6
ENDMDL
MODEL 5
REMARK VINA RESULT:      -7.2      2.417      7.314
REMARK  Name = 
REMARK  7 active torsions:
REMARK  status: ('A' for Active; 'I' for Inactive)
REMARK    1  A    between atoms: C_1  and  C_2
REMARK    2  A    between atoms: C_4  and  O_5
REMARK    3  A    between atoms: C_6  and  C_7
REMARK    4  A    between atoms: N_9  and  C_10
REMARK    5  A    between atoms: C_10  and  C_11
REMARK    6  A    between atoms: C_11  and  C_12
REMARK    7  A    between atoms: C_12  and  C_13
REMARK                            x       y       z     vdW  Elec       q    Type
REMARK                         _______ _______ _______ _____ _____    ______ ____
ROOT
ATOM      1  C   UNL     1       5.290   6.414  17.545  0.00  0.00    +0.000 C 
ATOM      2  O   UNL     1       4.992   6.832  16.430  0.00  0.00    +0.000 OA
ATOM      3  N   UNL     1       6.540   6.656  18.078  0.00  0.00    +0.000 N 
ATOM      4  H   UNL     1       6.747   6.331  19.023  0.00  0.00    +0.000 HD
ENDROOT
BRANCH   1   9
ATOM      5  C   UNL     1       1.760   3.418  21.054  0.00  0.00    +0.000 C 
ATOM      6  C   UNL     1       2.584   4.232  20.110  0.00  0.00    +0.000 A 
ATOM      7  C   UNL     1       2.161   5.326  19.471  0.00  0.00    +0.000 A 
ATOM      8  C   UNL     1       3.070   6.042  18.611  0.00  0.00    +0.000 A 
ATOM      9  C   UNL     1       4.342   5.632  18.418  0.00  0.00    +0.000 A 
ATOM     10  C   UNL     1       4.778   4.384  19.101  0.00  0.00    +0.000 A 
ATOM     11  O   UNL     1       5.902   3.914  18.941  0.00  0.00    +0.000 OA
ATOM     12  O   UNL     1       3.893   3.752  19.932  0.00  0.00    +0.000 OA
BRANCH   8  13
ATOM     13  O   UNL     1       2.539   7.167  18.022  0.00  0.00    +0.000 OA
ATOM     14  H   UNL     1       3.229   7.705  17.602  0.00  0.00    +0.000 HD
ENDBRANCH   8  13
ENDBRANCH   1   9
BRANCH   3  15
ATOM     15  C   UNL     1       7.554   7.430  17.389  0.00  0.00    +0.000 C 
BRANCH  15  16
ATOM     16  C   UNL     1       8.342   8.320  18.350  0.00  0.00    +0.000 C 
BRANCH  16  17
ATOM     17  C   UNL     1       8.358   9.777  17.874  0.00  0.00    +0.000 C 
BRANCH  17  18
ATOM     18  C   UNL     1       9.378  10.612  18.611  0.00  0.00    +0.000 A 
ATOM     19  C   UNL     1      10.424  11.247  17.926  0.00  0.00    +0.000 A 
ATOM     20  C   UNL     1      11.378  11.994  18.623  0.00  0.00    +0.000 A 
ATOM     21  C   UNL     1      11.296  12.114  20.010  0.00  0.00    +0.000 A 
ATOM     22  C   UNL     1      10.255  11.496  20.698  0.00  0.00    +0.000 A 
ATOM     23  C   UNL     1       9.303  10.747  20.004  0.00  0.00    +0.000 A 
ENDBRANCH  17  18
ENDBRANCH  16  17
ENDBRANCH  15  16
ENDBRANCH   3  15
TORSDOF 6
ENDMDL
MODEL 6
REMARK VINA RESULT:      -7.2      2.636      7.298
REMARK  Name = 
REMARK  7 active torsions:
REMARK  status: ('A' for Active; 'I' for Inactive)
REMARK    1  A    between atoms: C_1  and  C_2
REMARK    2  A    between atoms: C_4  and  O_5
REMARK    3  A    between atoms: C_6  and  C_7
REMARK    4  A    between atoms: N_9  and  C_10
REMARK    5  A    between atoms: C_10  and  C_11
REMARK    6  A    between atoms: C_11  and  C_12
REMARK    7  A    between atoms: C_12  and  C_13
REMARK                            x       y       z     vdW  Elec       q    Type
REMARK                         _______ _______ _______ _____ _____    ______ ____
ROOT
ATOM      1  C   UNL     1       5.544   6.447  17.218  0.00  0.00    +0.000 C 
ATOM      2  O   UNL     1       5.500   6.580  15.999  0.00  0.00    +0.000 OA
ATOM      3  N   UNL     1       6.596   6.966  17.946  0.00  0.00    +0.000 N 
ATOM      4  H   UNL     1       6.586   6.875  18.963  0.00  0.00    +0.000 HD
ENDROOT
BRANCH   1   9
ATOM      5  C   UNL     1       1.324   3.717  20.131  0.00  0.00    +0.000 C 
ATOM      6  C   UNL     1       2.476   4.356  19.427  0.00  0.00    +0.000 A 
ATOM      7  C   UNL     1       3.682   3.802  19.272  0.00  0.00    +0.000 A 
ATOM      8  C   UNL     1       4.701   4.512  18.541  0.00  0.00    +0.000 A 
ATOM      9  C   UNL     1       4.480   5.736  18.013  0.00  0.00    +0.000 A 
ATOM     10  C   UNL     1       3.145   6.354  18.239  0.00  0.00    +0.000 A 
ATOM     11  O   UNL     1       2.876   7.484  17.836  0.00  0.00    +0.000 OA
ATOM     12  O   UNL     1       2.197   5.634  18.912  0.00  0.00    +0.000 OA
BRANCH   8  13
ATOM     13  O   UNL     1       5.897   3.841  18.421  0.00  0.00    +0.000 OA
ATOM     14  H   UNL     1       5.941   3.087  19.031  0.00  0.00    +0.000 HD
ENDBRANCH   8  13
ENDBRANCH   1   9
BRANCH   3  15
ATOM     15  C   UNL     1       7.679   7.717  17.342  0.00  0.00    +0.000 C 
BRANCH  15  16
ATOM     16  C   UNL     1       8.449   8.538  18.376  0.00  0.00    +0.000 C 
BRANCH  16  17
ATOM     17  C   UNL     1       8.373  10.037  18.065  0.00  0.00    +0.000 C 
BRANCH  17  18
ATOM     18  C   UNL     1       9.526  10.808  18.665  0.00  0.00    +0.000 A 
ATOM     19  C   UNL     1      10.582  11.268  17.864  0.00  0.00    +0.000 A 
ATOM     20  C   UNL     1      11.657  11.955  18.436  0.00  0.00    +0.000 A 
ATOM     21  C   UNL     1      11.687  12.190  19.810  0.00  0.00    +0.000 A 
ATOM     22  C   UNL     1      10.638  11.746  20.611  0.00  0.00    +0.000 A 
ATOM     23  C   UNL     1       9.565  11.057  20.043  0.00  0.00    +0.000 A 
ENDBRANCH  17  18
ENDBRANCH  16  17
ENDBRANCH  15  16
ENDBRANCH   3  15
TORSDOF 6
ENDMDL
MODEL 7
REMARK VINA RESULT:      -7.1      1.074      1.634
REMARK  Name = 
REMARK  7 active torsions:
REMARK  status: ('A' for Active; 'I' for Inactive)
REMARK    1  A    between atoms: C_1  and  C_2
REMARK    2  A    between atoms: C_4  and  O_5
REMARK    3  A    between atoms: C_6  and  C_7
REMARK    4  A    between atoms: N_9  and  C_10
REMARK    5  A    between atoms: C_10  and  C_11
REMARK    6  A    between atoms: C_11  and  C_12
REMARK    7  A    between atoms: C_12  and  C_13
REMARK                            x       y       z     vdW  Elec       q    Type
REMARK                         _______ _______ _______ _____ _____    ______ ____
ROOT
ATOM      1  C   UNL     1       5.496   4.220  16.723  0.00  0.00    +0.000 C 
ATOM      2  O   UNL     1       5.461   3.727  15.600  0.00  0.00    +0.000 OA
ATOM      3  N   UNL     1       4.823   3.630  17.774  0.00  0.00    +0.000 N 
ATOM      4  H   UNL     1       4.903   4.041  18.705  0.00  0.00    +0.000 HD
ENDROOT
BRANCH   1   9
ATOM      5  C   UNL     1       8.292   9.135  18.058  0.00  0.00    +0.000 C 
ATOM      6  C   UNL     1       7.656   7.819  17.748  0.00  0.00    +0.000 A 
ATOM      7  C   UNL     1       8.037   6.645  18.257  0.00  0.00    +0.000 A 
ATOM      8  C   UNL     1       7.314   5.448  17.902  0.00  0.00    +0.000 A 
ATOM      9  C   UNL     1       6.264   5.475  17.053  0.00  0.00    +0.000 A 
ATOM     10  C   UNL     1       5.887   6.787  16.460  0.00  0.00    +0.000 A 
ATOM     11  O   UNL     1       4.976   6.891  15.642  0.00  0.00    +0.000 OA
ATOM     12  O   UNL     1       6.579   7.901  16.847  0.00  0.00    +0.000 OA
BRANCH   8  13
ATOM     13  O   UNL     1       7.775   4.298  18.502  0.00  0.00    +0.000 OA
ATOM     14  H   UNL     1       7.196   3.544  18.309  0.00  0.00    +0.000 HD
ENDBRANCH   8  13
ENDBRANCH   1   9
BRANCH   3  15
ATOM     15  C   UNL     1       4.075   2.397  17.637  0.00  0.00    +0.000 C 
BRANCH  15  16
ATOM     16  C   UNL     1       2.578   2.610  17.865  0.00  0.00    +0.000 C 
BRANCH  16  17
ATOM     17  C   UNL     1       2.126   3.979  17.345  0.00  0.00    +0.000 C 
BRANCH  17  18
ATOM     18  C   UNL     1       2.092   5.026  18.434  0.00  0.00    +0.000 A 
ATOM     19  C   UNL     1       1.723   4.693  19.746  0.00  0.00    +0.000 A 
ATOM     20  C   UNL     1       1.669   5.677  20.737  0.00  0.00    +0.000 A 
ATOM     21  C   UNL     1       1.984   7.000  20.429  0.00  0.00    +0.000 A 
ATOM     22  C   UNL     1       2.362   7.338  19.132  0.00  0.00    +0.000 A 
ATOM     23  C   UNL     1       2.413   6.357  18.140  0.00  0.00    +0.000 A 
ENDBRANCH  17  18
ENDBRANCH  16  17
ENDBRANCH  15  16
ENDBRANCH   3  15
TORSDOF 6
ENDMDL
MODEL 8
REMARK VINA RESULT:      -7.1      3.911      7.416
REMARK  Name = 
REMARK  7 active torsions:
REMARK  status: ('A' for Active; 'I' for Inactive)
REMARK    1  A    between atoms: C_1  and  C_2
REMARK    2  A    between atoms: C_4  and  O_5
REMARK    3  A    between atoms: C_6  and  C_7
REMARK    4  A    between atoms: N_9  and  C_10
REMARK    5  A    between atoms: C_10  and  C_11
REMARK    6  A    between atoms: C_11  and  C_12
REMARK    7  A    between atoms: C_12  and  C_13
REMARK                            x       y       z     vdW  Elec       q    Type
REMARK                         _______ _______ _______ _____ _____    ______ ____
ROOT
ATOM      1  C   UNL     1       7.412   5.277  16.700  0.00  0.00    +0.000 C 
ATOM      2  O   UNL     1       7.880   4.571  17.589  0.00  0.00    +0.000 OA
ATOM      3  N   UNL     1       7.420   6.653  16.814  0.00  0.00    +0.000 N 
ATOM      4  H   UNL     1       7.060   7.215  16.041  0.00  0.00    +0.000 HD
ENDROOT
BRANCH   1   9
ATOM      5  C   UNL     1       5.277   3.065  11.770  0.00  0.00    +0.000 C 
ATOM      6  C   UNL     1       5.736   3.613  13.082  0.00  0.00    +0.000 A 
ATOM      7  C   UNL     1       5.171   3.347  14.263  0.00  0.00    +0.000 A 
ATOM      8  C   UNL     1       5.733   3.914  15.464  0.00  0.00    +0.000 A 
ATOM      9  C   UNL     1       6.814   4.724  15.432  0.00  0.00    +0.000 A 
ATOM     10  C   UNL     1       7.398   5.046  14.101  0.00  0.00    +0.000 A 
ATOM     11  O   UNL     1       8.351   5.812  13.978  0.00  0.00    +0.000 OA
ATOM     12  O   UNL     1       6.852   4.462  12.990  0.00  0.00    +0.000 OA
BRANCH   8  13
ATOM     13  O   UNL     1       5.089   3.556  16.626  0.00  0.00    +0.000 OA
ATOM     14  H   UNL     1       4.626   2.709  16.526  0.00  0.00    +0.000 HD
ENDBRANCH   8  13
ENDBRANCH   1   9
BRANCH   3  15
ATOM     15  C   UNL     1       7.997   7.347  17.948  0.00  0.00    +0.000 C 
BRANCH  15  16
ATOM     16  C   UNL     1       8.015   8.861  17.740  0.00  0.00    +0.000 C 
BRANCH  16  17
ATOM     17  C   UNL     1       8.875   9.559  18.799  0.00  0.00    +0.000 C 
BRANCH  17  18
ATOM     18  C   UNL     1       9.411  10.887  18.321  0.00  0.00    +0.000 A 
ATOM     19  C   UNL     1       8.547  11.946  18.008  0.00  0.00    +0.000 A 
ATOM     20  C   UNL     1       9.055  13.161  17.539  0.00  0.00    +0.000 A 
ATOM     21  C   UNL     1      10.430  13.331  17.381  0.00  0.00    +0.000 A 
ATOM     22  C   UNL     1      11.297  12.289  17.700  0.00  0.00    +0.000 A 
ATOM     23  C   UNL     1      10.791  11.074  18.165  0.00  0.00    +0.000 A 
ENDBRANCH  17  18
ENDBRANCH  16  17
ENDBRANCH  15  16
ENDBRANCH   3  15
TORSDOF 6
ENDMDL
MODEL 9
REMARK VINA RESULT:      -7.0      1.650      2.020
REMARK  Name = 
REMARK  7 active torsions:
REMARK  status: ('A' for Active; 'I' for Inactive)
REMARK    1  A    between atoms: C_1  and  C_2
REMARK    2  A    between atoms: C_4  and  O_5
REMARK    3  A    between atoms: C_6  and  C_7
REMARK    4  A    between atoms: N_9  and  C_10
REMARK    5  A    between atoms: C_10  and  C_11
REMARK    6  A    between atoms: C_11  and  C_12
REMARK    7  A    between atoms: C_12  and  C_13
REMARK                            x       y       z     vdW  Elec       q    Type
REMARK                         _______ _______ _______ _____ _____    ______ ____
ROOT
ATOM      1  C   UNL     1       6.072   4.703  18.090  0.00  0.00    +0.000 C 
ATOM      2  O   UNL     1       5.854   4.078  19.125  0.00  0.00    +0.000 OA
ATOM      3  N   UNL     1       5.634   4.225  16.872  0.00  0.00    +0.000 N 
ATOM      4  H   UNL     1       5.795   4.786  16.034  0.00  0.00    +0.000 HD
ENDROOT
BRANCH   1   9
ATOM      5  C   UNL     1       8.733   9.867  17.994  0.00  0.00    +0.000 C 
ATOM      6  C   UNL     1       8.130   8.502  18.068  0.00  0.00    +0.000 A 
ATOM      7  C   UNL     1       8.509   7.542  18.917  0.00  0.00    +0.000 A 
ATOM      8  C   UNL     1       7.821   6.275  18.911  0.00  0.00    +0.000 A 
ATOM      9  C   UNL     1       6.805   6.020  18.057  0.00  0.00    +0.000 A 
ATOM     10  C   UNL     1       6.431   7.085  17.088  0.00  0.00    +0.000 A 
ATOM     11  O   UNL     1       5.552   6.917  16.246  0.00  0.00    +0.000 OA
ATOM     12  O   UNL     1       7.090   8.283  17.149  0.00  0.00    +0.000 OA
BRANCH   8  13
ATOM     13  O   UNL     1       8.276   5.368  19.841  0.00  0.00    +0.000 OA
ATOM     14  H   UNL     1       7.763   5.419  20.663  0.00  0.00    +0.000 HD
ENDBRANCH   8  13
ENDBRANCH   1   9
BRANCH   3  15
ATOM     15  C   UNL     1       4.876   2.998  16.733  0.00  0.00    +0.000 C 
BRANCH  15  16
ATOM     16  C   UNL     1       3.369   3.249  16.801  0.00  0.00    +0.000 C 
BRANCH  16  17
ATOM     17  C   UNL     1       2.657   2.151  17.597  0.00  0.00    +0.000 C 
BRANCH  17  18
ATOM     18  C   UNL     1       2.313   2.589  19.001  0.00  0.00    +0.000 A 
ATOM     19  C   UNL     1       3.143   2.262  20.084  0.00  0.00    +0.000 A 
ATOM     20  C   UNL     1       2.798   2.650  21.383  0.00  0.00    +0.000 A 
ATOM     21  C   UNL     1       1.625   3.368  21.612  0.00  0.00    +0.000 A 
ATOM     22  C   UNL     1       0.801   3.707  20.541  0.00  0.00    +0.000 A 
ATOM     23  C   UNL     1       1.142   3.318  19.244  0.00  0.00    +0.000 A 
ENDBRANCH  17  18
ENDBRANCH  16  17
ENDBRANCH  15  16
ENDBRANCH   3  15
TORSDOF 6
ENDMDL
