MODEL 1
REMARK VINA RESULT:      -7.2      0.000      0.000
REMARK  Name = 
REMARK  8 active torsions:
REMARK  status: ('A' for Active; 'I' for Inactive)
REMARK    1  A    between atoms: C_1  and  N_2
REMARK    2  A    between atoms: C_6  and  C_7
REMARK    3  A    between atoms: C_7  and  O_9
REMARK    4  A    between atoms: O_9  and  C_10
REMARK    5  A    between atoms: C_10  and  C_11
REMARK    6  A    between atoms: N_13  and  N_14
REMARK    7  A    between atoms: C_15  and  C_17
REMARK    8  A    between atoms: C_20  and  N_21
REMARK                            x       y       z     vdW  Elec       q    Type
REMARK                         _______ _______ _______ _____ _____    ______ ____
ROOT
ATOM      1  C   UNL     1       5.424   6.595  16.748  0.00  0.00    +0.000 C 
ATOM      2  O   UNL     1       4.636   7.475  17.100  0.00  0.00    +0.000 OA
ATOM      3  N   UNL     1       6.778   6.843  16.603  0.00  0.00    +0.000 N 
ATOM      4  H   UNL     1       7.484   6.116  16.483  0.00  0.00    +0.000 HD
ENDROOT
BRANCH   3   5
ATOM      5  N   UNL     1       7.240   8.108  16.990  0.00  0.00    +0.000 N 
ATOM      6  C   UNL     1       8.086   8.219  18.078  0.00  0.00    +0.000 C 
ATOM      7  O   UNL     1       8.457   7.263  18.747  0.00  0.00    +0.000 OA
ATOM      8  H   UNL     1       7.031   8.868  16.347  0.00  0.00    +0.000 HD
BRANCH   6   9
ATOM      9  C   UNL     1       8.557   9.602  18.383  0.00  0.00    +0.000 A 
ATOM     10  C   UNL     1       8.283  10.677  17.524  0.00  0.00    +0.000 A 
ATOM     11  C   UNL     1       8.748  11.961  17.829  0.00  0.00    +0.000 A 
ATOM     12  C   UNL     1       9.483  12.172  19.003  0.00  0.00    +0.000 A 
ATOM     13  C   UNL     1       9.746  11.109  19.877  0.00  0.00    +0.000 A 
ATOM     14  C   UNL     1       9.274   9.827  19.568  0.00  0.00    +0.000 A 
BRANCH  12  15
ATOM     15  N   UNL     1       9.977  13.520  19.318  0.00  0.00    +0.000 N 
ATOM     16  O   UNL     1       9.150  14.444  19.343  0.00  0.00    +0.000 OA
ATOM     17  O   UNL     1      11.189  13.655  19.536  0.00  0.00    +0.000 OA
ENDBRANCH  12  15
ENDBRANCH   6   9
ENDBRANCH   3   5
BRANCH   1  18
ATOM     18  C   UNL     1       4.992   5.174  16.390  0.00  0.00    +0.000 C 
BRANCH  18  19
ATOM     19  O   UNL     1       5.656   4.172  17.158  0.00  0.00    +0.000 OA
BRANCH  19  20
ATOM     20  C   UNL     1       5.209   4.048  18.442  0.00  0.00    +0.000 C 
ATOM     21  O   UNL     1       5.889   4.306  19.428  0.00  0.00    +0.000 OA
BRANCH  20  27
ATOM     22  C   UNL     1       2.742   5.590  19.456  0.00  0.00    +0.000 C 
ATOM     23  N   UNL     1       2.740   4.251  18.901  0.00  0.00    +0.000 N 
ATOM     24  C   UNL     1       1.607   3.490  18.758  0.00  0.00    +0.000 A 
ATOM     25  C   UNL     1       1.969   2.280  18.221  0.00  0.00    +0.000 A 
ATOM     26  C   UNL     1       3.370   2.314  18.032  0.00  0.00    +0.000 A 
ATOM     27  C   UNL     1       3.847   3.551  18.453  0.00  0.00    +0.000 A 
ENDBRANCH  20  27
ENDBRANCH  19  20
ENDBRANCH  18  19
ENDBRANCH   1  18
TORSDOF 7
ENDMDL
MODEL 2
REMARK VINA RESULT:      -7.2      5.198      7.648
REMARK  Name = 
REMARK  8 active torsions:
REMARK  status: ('A' for Active; 'I' for Inactive)
REMARK    1  A    between atoms: C_1  and  N_2
REMARK    2  A    between atoms: C_6  and  C_7
REMARK    3  A    between atoms: C_7  and  O_9
REMARK    4  A    between atoms: O_9  and  C_10
REMARK    5  A    between atoms: C_10  and  C_11
REMARK    6  A    between atoms: N_13  and  N_14
REMARK    7  A    between atoms: C_15  and  C_17
REMARK    8  A    between atoms: C_20  and  N_21
REMARK                            x       y       z     vdW  Elec       q    Type
REMARK                         _______ _______ _______ _____ _____    ______ ____
ROOT
ATOM      1  C   UNL     1       2.238   5.061  20.198  0.00  0.00    +0.000 C 
ATOM      2  O   UNL     1       1.124   4.779  20.643  0.00  0.00    +0.000 OA
ATOM      3  N   UNL     1       2.724   6.357  20.214  0.00  0.00    +0.000 N 
ATOM      4  H   UNL     1       3.693   6.608  20.018  0.00  0.00    +0.000 HD
ENDROOT
BRANCH   3   5
ATOM      5  N   UNL     1       1.947   7.322  20.869  0.00  0.00    +0.000 N 
ATOM      6  C   UNL     1       1.498   8.424  20.166  0.00  0.00    +0.000 C 
ATOM      7  O   UNL     1       1.749   8.620  18.984  0.00  0.00    +0.000 OA
ATOM      8  H   UNL     1       1.639   7.076  21.807  0.00  0.00    +0.000 HD
BRANCH   6   9
ATOM      9  C   UNL     1       0.642   9.371  20.940  0.00  0.00    +0.000 A 
ATOM     10  C   UNL     1       0.295  10.631  20.429  0.00  0.00    +0.000 A 
ATOM     11  C   UNL     1      -0.498  11.504  21.181  0.00  0.00    +0.000 A 
ATOM     12  C   UNL     1      -0.953  11.112  22.447  0.00  0.00    +0.000 A 
ATOM     13  C   UNL     1      -0.628   9.849  22.959  0.00  0.00    +0.000 A 
ATOM     14  C   UNL     1       0.164   8.979  22.199  0.00  0.00    +0.000 A 
BRANCH  12  15
ATOM     15  N   UNL     1      -1.780  12.034  23.238  0.00  0.00    +0.000 N 
ATOM     16  O   UNL     1      -2.962  11.718  23.438  0.00  0.00    +0.000 OA
ATOM     17  O   UNL     1      -1.249  13.073  23.656  0.00  0.00    +0.000 OA
ENDBRANCH  12  15
ENDBRANCH   6   9
ENDBRANCH   3   5
BRANCH   1  18
ATOM     18  C   UNL     1       3.165   4.038  19.544  0.00  0.00    +0.000 C 
BRANCH  18  19
ATOM     19  O   UNL     1       3.739   4.496  18.321  0.00  0.00    +0.000 OA
BRANCH  19  20
ATOM     20  C   UNL     1       4.280   3.515  17.542  0.00  0.00    +0.000 C 
ATOM     21  O   UNL     1       4.006   2.326  17.653  0.00  0.00    +0.000 OA
BRANCH  20  27
ATOM     22  C   UNL     1       7.013   4.736  18.268  0.00  0.00    +0.000 C 
ATOM     23  N   UNL     1       6.459   4.625  16.934  0.00  0.00    +0.000 N 
ATOM     24  C   UNL     1       7.105   5.063  15.805  0.00  0.00    +0.000 A 
ATOM     25  C   UNL     1       6.292   4.819  14.725  0.00  0.00    +0.000 A 
ATOM     26  C   UNL     1       5.116   4.211  15.223  0.00  0.00    +0.000 A 
ATOM     27  C   UNL     1       5.227   4.086  16.604  0.00  0.00    +0.000 A 
ENDBRANCH  20  27
ENDBRANCH  19  20
ENDBRANCH  18  19
ENDBRANCH   1  18
TORSDOF 7
ENDMDL
MODEL 3
REMARK VINA RESULT:      -7.1      0.458      1.092
REMARK  Name = 
REMARK  8 active torsions:
REMARK  status: ('A' for Active; 'I' for Inactive)
REMARK    1  A    between atoms: C_1  and  N_2
REMARK    2  A    between atoms: C_6  and  C_7
REMARK    3  A    between atoms: C_7  and  O_9
REMARK    4  A    between atoms: O_9  and  C_10
REMARK    5  A    between atoms: C_10  and  C_11
REMARK    6  A    between atoms: N_13  and  N_14
REMARK    7  A    between atoms: C_15  and  C_17
REMARK    8  A    between atoms: C_20  and  N_21
REMARK                            x       y       z     vdW  Elec       q    Type
REMARK                         _______ _______ _______ _____ _____    ______ ____
ROOT
ATOM      1  C   UNL     1       5.697   6.480  16.658  0.00  0.00    +0.000 C 
ATOM      2  O   UNL     1       4.879   7.323  17.031  0.00  0.00    +0.000 OA
ATOM      3  N   UNL     1       7.041   6.778  16.517  0.00  0.00    +0.000 N 
ATOM      4  H   UNL     1       7.772   6.080  16.380  0.00  0.00    +0.000 HD
ENDROOT
BRANCH   3   5
ATOM      5  N   UNL     1       7.459   8.050  16.932  0.00  0.00    +0.000 N 
ATOM      6  C   UNL     1       8.159   8.182  18.117  0.00  0.00    +0.000 C 
ATOM      7  O   UNL     1       8.435   7.239  18.848  0.00  0.00    +0.000 OA
ATOM      8  H   UNL     1       7.340   8.796  16.252  0.00  0.00    +0.000 HD
BRANCH   6   9
ATOM      9  C   UNL     1       8.598   9.569  18.450  0.00  0.00    +0.000 A 
ATOM     10  C   UNL     1       9.299   9.853  19.632  0.00  0.00    +0.000 A 
ATOM     11  C   UNL     1       9.687  11.165  19.925  0.00  0.00    +0.000 A 
ATOM     12  C   UNL     1       9.380  12.196  19.027  0.00  0.00    +0.000 A 
ATOM     13  C   UNL     1       8.696  11.920  17.836  0.00  0.00    +0.000 A 
ATOM     14  C   UNL     1       8.314  10.604  17.547  0.00  0.00    +0.000 A 
BRANCH  12  15
ATOM     15  N   UNL     1       9.782  13.574  19.341  0.00  0.00    +0.000 N 
ATOM     16  O   UNL     1      10.222  14.270  18.414  0.00  0.00    +0.000 OA
ATOM     17  O   UNL     1       9.660  13.960  20.513  0.00  0.00    +0.000 OA
ENDBRANCH  12  15
ENDBRANCH   6   9
ENDBRANCH   3   5
BRANCH   1  18
ATOM     18  C   UNL     1       5.314   5.053  16.269  0.00  0.00    +0.000 C 
BRANCH  18  19
ATOM     19  O   UNL     1       5.839   4.065  17.155  0.00  0.00    +0.000 OA
BRANCH  19  20
ATOM     20  C   UNL     1       5.308   4.089  18.412  0.00  0.00    +0.000 C 
ATOM     21  O   UNL     1       5.929   4.441  19.408  0.00  0.00    +0.000 OA
BRANCH  20  27
ATOM     22  C   UNL     1       2.839   5.691  19.321  0.00  0.00    +0.000 C 
ATOM     23  N   UNL     1       2.830   4.344  18.788  0.00  0.00    +0.000 N 
ATOM     24  C   UNL     1       1.687   3.601  18.620  0.00  0.00    +0.000 A 
ATOM     25  C   UNL     1       2.044   2.375  18.113  0.00  0.00    +0.000 A 
ATOM     26  C   UNL     1       3.451   2.381  17.970  0.00  0.00    +0.000 A 
ATOM     27  C   UNL     1       3.938   3.616  18.387  0.00  0.00    +0.000 A 
ENDBRANCH  20  27
ENDBRANCH  19  20
ENDBRANCH  18  19
ENDBRANCH   1  18
TORSDOF 7
ENDMDL
MODEL 4
REMARK VINA RESULT:      -7.1      5.324      8.622
REMARK  Name = 
REMARK  8 active torsions:
REMARK  status: ('A' for Active; 'I' for Inactive)
REMARK    1  A    between atoms: C_1  and  N_2
REMARK    2  A    between atoms: C_6  and  C_7
REMARK    3  A    between atoms: C_7  and  O_9
REMARK    4  A    between atoms: O_9  and  C_10
REMARK    5  A    between atoms: C_10  and  C_11
REMARK    6  A    between atoms: N_13  and  N_14
REMARK    7  A    between atoms: C_15  and  C_17
REMARK    8  A    between atoms: C_20  and  N_21
REMARK                            x       y       z     vdW  Elec       q    Type
REMARK                         _______ _______ _______ _____ _____    ______ ____
ROOT
ATOM      1  C   UNL     1       1.505   7.930  20.433  0.00  0.00    +0.000 C 
ATOM      2  O   UNL     1       1.598   8.753  19.520  0.00  0.00    +0.000 OA
ATOM      3  N   UNL     1       2.174   6.719  20.396  0.00  0.00    +0.000 N 
ATOM      4  H   UNL     1       2.264   6.089  21.193  0.00  0.00    +0.000 HD
ENDROOT
BRANCH   3   5
ATOM      5  N   UNL     1       3.062   6.513  19.331  0.00  0.00    +0.000 N 
ATOM      6  C   UNL     1       3.117   5.273  18.723  0.00  0.00    +0.000 C 
ATOM      7  O   UNL     1       2.432   4.319  19.069  0.00  0.00    +0.000 OA
ATOM      8  H   UNL     1       3.521   7.347  18.974  0.00  0.00    +0.000 HD
BRANCH   6   9
ATOM      9  C   UNL     1       4.061   5.166  17.572  0.00  0.00    +0.000 A 
ATOM     10  C   UNL     1       4.570   6.307  16.931  0.00  0.00    +0.000 A 
ATOM     11  C   UNL     1       5.443   6.177  15.847  0.00  0.00    +0.000 A 
ATOM     12  C   UNL     1       5.817   4.901  15.405  0.00  0.00    +0.000 A 
ATOM     13  C   UNL     1       5.329   3.756  16.049  0.00  0.00    +0.000 A 
ATOM     14  C   UNL     1       4.458   3.893  17.137  0.00  0.00    +0.000 A 
BRANCH  12  15
ATOM     15  N   UNL     1       6.729   4.768  14.260  0.00  0.00    +0.000 N 
ATOM     16  O   UNL     1       6.461   3.907  13.409  0.00  0.00    +0.000 OA
ATOM     17  O   UNL     1       7.713   5.520  14.215  0.00  0.00    +0.000 OA
ENDBRANCH  12  15
ENDBRANCH   6   9
ENDBRANCH   3   5
BRANCH   1  18
ATOM     18  C   UNL     1       0.615   8.132  21.659  0.00  0.00    +0.000 C 
BRANCH  18  19
ATOM     19  O   UNL     1      -0.175   9.319  21.594  0.00  0.00    +0.000 OA
BRANCH  19  20
ATOM     20  C   UNL     1      -0.163  10.075  22.729  0.00  0.00    +0.000 C 
ATOM     21  O   UNL     1       0.344   9.712  23.785  0.00  0.00    +0.000 OA
BRANCH  20  27
ATOM     22  C   UNL     1       0.837  12.371  20.937  0.00  0.00    +0.000 C 
ATOM     23  N   UNL     1      -0.401  12.357  21.688  0.00  0.00    +0.000 N 
ATOM     24  C   UNL     1      -1.301  13.394  21.690  0.00  0.00    +0.000 A 
ATOM     25  C   UNL     1      -2.344  13.054  22.516  0.00  0.00    +0.000 A 
ATOM     26  C   UNL     1      -2.063  11.766  23.028  0.00  0.00    +0.000 A 
ATOM     27  C   UNL     1      -0.851  11.331  22.503  0.00  0.00    +0.000 A 
ENDBRANCH  20  27
ENDBRANCH  19  20
ENDBRANCH  18  19
ENDBRANCH   1  18
TORSDOF 7
ENDMDL
MODEL 5
REMARK VINA RESULT:      -7.1      2.098      2.637
REMARK  Name = 
REMARK  8 active torsions:
REMARK  status: ('A' for Active; 'I' for Inactive)
REMARK    1  A    between atoms: C_1  and  N_2
REMARK    2  A    between atoms: C_6  and  C_7
REMARK    3  A    between atoms: C_7  and  O_9
REMARK    4  A    between atoms: O_9  and  C_10
REMARK    5  A    between atoms: C_10  and  C_11
REMARK    6  A    between atoms: N_13  and  N_14
REMARK    7  A    between atoms: C_15  and  C_17
REMARK    8  A    between atoms: C_20  and  N_21
REMARK                            x       y       z     vdW  Elec       q    Type
REMARK                         _______ _______ _______ _____ _____    ______ ____
ROOT
ATOM      1  C   UNL     1       7.880   7.483  17.964  0.00  0.00    +0.000 C 
ATOM      2  O   UNL     1       7.792   7.756  16.766  0.00  0.00    +0.000 OA
ATOM      3  N   UNL     1       8.500   8.333  18.864  0.00  0.00    +0.000 N 
ATOM      4  H   UNL     1       8.447   8.233  19.877  0.00  0.00    +0.000 HD
ENDROOT
BRANCH   3   5
ATOM      5  N   UNL     1       8.920   9.579  18.378  0.00  0.00    +0.000 N 
ATOM      6  C   UNL     1       9.356  10.543  19.267  0.00  0.00    +0.000 C 
ATOM      7  O   UNL     1       9.390  10.378  20.480  0.00  0.00    +0.000 OA
ATOM      8  H   UNL     1       9.011   9.649  17.367  0.00  0.00    +0.000 HD
BRANCH   6   9
ATOM      9  C   UNL     1       9.823  11.819  18.650  0.00  0.00    +0.000 A 
ATOM     10  C   UNL     1      10.945  11.860  17.807  0.00  0.00    +0.000 A 
ATOM     11  C   UNL     1      11.368  13.071  17.253  0.00  0.00    +0.000 A 
ATOM     12  C   UNL     1      10.661  14.248  17.534  0.00  0.00    +0.000 A 
ATOM     13  C   UNL     1       9.529  14.216  18.359  0.00  0.00    +0.000 A 
ATOM     14  C   UNL     1       9.108  12.998  18.908  0.00  0.00    +0.000 A 
BRANCH  12  15
ATOM     15  N   UNL     1      11.112  15.522  16.955  0.00  0.00    +0.000 N 
ATOM     16  O   UNL     1      10.243  16.323  16.581  0.00  0.00    +0.000 OA
ATOM     17  O   UNL     1      12.332  15.719  16.872  0.00  0.00    +0.000 OA
ENDBRANCH  12  15
ENDBRANCH   6   9
ENDBRANCH   3   5
BRANCH   1  18
ATOM     18  C   UNL     1       7.369   6.175  18.568  0.00  0.00    +0.000 C 
BRANCH  18  19
ATOM     19  O   UNL     1       5.977   5.958  18.347  0.00  0.00    +0.000 OA
BRANCH  19  20
ATOM     20  C   UNL     1       5.451   4.895  19.023  0.00  0.00    +0.000 C 
ATOM     21  O   UNL     1       5.987   4.369  19.991  0.00  0.00    +0.000 OA
BRANCH  20  27
ATOM     22  C   UNL     1       2.733   6.307  19.354  0.00  0.00    +0.000 C 
ATOM     23  N   UNL     1       2.985   5.124  18.556  0.00  0.00    +0.000 N 
ATOM     24  C   UNL     1       2.016   4.474  17.834  0.00  0.00    +0.000 A 
ATOM     25  C   UNL     1       2.595   3.393  17.216  0.00  0.00    +0.000 A 
ATOM     26  C   UNL     1       3.962   3.393  17.579  0.00  0.00    +0.000 A 
ATOM     27  C   UNL     1       4.203   4.480  18.412  0.00  0.00    +0.000 A 
ENDBRANCH  20  27
ENDBRANCH  19  20
ENDBRANCH  18  19
ENDBRANCH   1  18
TORSDOF 7
ENDMDL
MODEL 6
REMARK VINA RESULT:      -7.1      5.237      8.496
REMARK  Name = 
REMARK  8 active torsions:
REMARK  status: ('A' for Active; 'I' for Inactive)
REMARK    1  A    between atoms: C_1  and  N_2
REMARK    2  A    between atoms: C_6  and  C_7
REMARK    3  A    between atoms: C_7  and  O_9
REMARK    4  A    between atoms: O_9  and  C_10
REMARK    5  A    between atoms: C_10  and  C_11
REMARK    6  A    between atoms: N_13  and  N_14
REMARK    7  A    between atoms: C_15  and  C_17
REMARK    8  A    between atoms: C_20  and  N_21
REMARK                            x       y       z     vdW  Elec       q    Type
REMARK                         _______ _______ _______ _____ _____    ______ ____
ROOT
ATOM      1  C   UNL     1       1.404   8.373  20.608  0.00  0.00    +0.000 C 
ATOM      2  O   UNL     1       1.455   9.061  19.587  0.00  0.00    +0.000 OA
ATOM      3  N   UNL     1       2.096   7.180  20.721  0.00  0.00    +0.000 N 
ATOM      4  H   UNL     1       2.221   6.670  21.595  0.00  0.00    +0.000 HD
ENDROOT
BRANCH   3   5
ATOM      5  N   UNL     1       2.959   6.842  19.669  0.00  0.00    +0.000 N 
ATOM      6  C   UNL     1       2.769   5.652  18.991  0.00  0.00    +0.000 C 
ATOM      7  O   UNL     1       1.882   4.853  19.263  0.00  0.00    +0.000 OA
ATOM      8  H   UNL     1       3.600   7.573  19.374  0.00  0.00    +0.000 HD
BRANCH   6   9
ATOM      9  C   UNL     1       3.711   5.403  17.860  0.00  0.00    +0.000 A 
ATOM     10  C   UNL     1       3.943   4.108  17.371  0.00  0.00    +0.000 A 
ATOM     11  C   UNL     1       4.841   3.902  16.319  0.00  0.00    +0.000 A 
ATOM     12  C   UNL     1       5.503   4.996  15.746  0.00  0.00    +0.000 A 
ATOM     13  C   UNL     1       5.264   6.295  16.215  0.00  0.00    +0.000 A 
ATOM     14  C   UNL     1       4.361   6.495  17.267  0.00  0.00    +0.000 A 
BRANCH  12  15
ATOM     15  N   UNL     1       6.452   4.776  14.646  0.00  0.00    +0.000 N 
ATOM     16  O   UNL     1       6.109   4.006  13.737  0.00  0.00    +0.000 OA
ATOM     17  O   UNL     1       7.538   5.371  14.692  0.00  0.00    +0.000 OA
ENDBRANCH  12  15
ENDBRANCH   6   9
ENDBRANCH   3   5
BRANCH   1  18
ATOM     18  C   UNL     1       0.544   8.731  21.820  0.00  0.00    +0.000 C 
BRANCH  18  19
ATOM     19  O   UNL     1      -0.622   9.482  21.483  0.00  0.00    +0.000 OA
BRANCH  19  20
ATOM     20  C   UNL     1      -0.532  10.818  21.742  0.00  0.00    +0.000 C 
ATOM     21  O   UNL     1      -0.419  11.290  22.867  0.00  0.00    +0.000 OA
BRANCH  20  27
ATOM     22  C   UNL     1       1.691  12.597  20.566  0.00  0.00    +0.000 C 
ATOM     23  N   UNL     1       0.388  12.365  19.978  0.00  0.00    +0.000 N 
ATOM     24  C   UNL     1      -0.022  12.927  18.794  0.00  0.00    +0.000 A 
ATOM     25  C   UNL     1      -1.306  12.510  18.545  0.00  0.00    +0.000 A 
ATOM     26  C   UNL     1      -1.683  11.667  19.616  0.00  0.00    +0.000 A 
ATOM     27  C   UNL     1      -0.618  11.574  20.507  0.00  0.00    +0.000 A 
ENDBRANCH  20  27
ENDBRANCH  19  20
ENDBRANCH  18  19
ENDBRANCH   1  18
TORSDOF 7
ENDMDL
MODEL 7
REMARK VINA RESULT:      -7.0      5.171      7.467
REMARK  Name = 
REMARK  8 active torsions:
REMARK  status: ('A' for Active; 'I' for Inactive)
REMARK    1  A    between atoms: C_1  and  N_2
REMARK    2  A    between atoms: C_6  and  C_7
REMARK    3  A    between atoms: C_7  and  O_9
REMARK    4  A    between atoms: O_9  and  C_10
REMARK    5  A    between atoms: C_10  and  C_11
REMARK    6  A    between atoms: N_13  and  N_14
REMARK    7  A    between atoms: C_15  and  C_17
REMARK    8  A    between atoms: C_20  and  N_21
REMARK                            x       y       z     vdW  Elec       q    Type
REMARK                         _______ _______ _______ _____ _____    ______ ____
ROOT
ATOM      1  C   UNL     1       2.098   4.496  20.137  0.00  0.00    +0.000 C 
ATOM      2  O   UNL     1       0.885   4.374  20.320  0.00  0.00    +0.000 OA
ATOM      3  N   UNL     1       2.748   5.703  20.330  0.00  0.00    +0.000 N 
ATOM      4  H   UNL     1       3.761   5.810  20.358  0.00  0.00    +0.000 HD
ENDROOT
BRANCH   3   5
ATOM      5  N   UNL     1       1.991   6.757  20.861  0.00  0.00    +0.000 N 
ATOM      6  C   UNL     1       1.759   7.881  20.092  0.00  0.00    +0.000 C 
ATOM      7  O   UNL     1       2.190   8.023  18.954  0.00  0.00    +0.000 OA
ATOM      8  H   UNL     1       1.534   6.566  21.749  0.00  0.00    +0.000 HD
BRANCH   6   9
ATOM      9  C   UNL     1       0.908   8.928  20.729  0.00  0.00    +0.000 A 
ATOM     10  C   UNL     1       0.756   9.004  22.122  0.00  0.00    +0.000 A 
ATOM     11  C   UNL     1      -0.058   9.988  22.692  0.00  0.00    +0.000 A 
ATOM     12  C   UNL     1      -0.718  10.907  21.865  0.00  0.00    +0.000 A 
ATOM     13  C   UNL     1      -0.559  10.852  20.474  0.00  0.00    +0.000 A 
ATOM     14  C   UNL     1       0.261   9.867  19.910  0.00  0.00    +0.000 A 
BRANCH  12  15
ATOM     15  N   UNL     1      -1.579  11.935  22.466  0.00  0.00    +0.000 N 
ATOM     16  O   UNL     1      -2.560  12.317  21.811  0.00  0.00    +0.000 OA
ATOM     17  O   UNL     1      -1.272  12.362  23.588  0.00  0.00    +0.000 OA
ENDBRANCH  12  15
ENDBRANCH   6   9
ENDBRANCH   3   5
BRANCH   1  18
ATOM     18  C   UNL     1       2.990   3.362  19.635  0.00  0.00    +0.000 C 
BRANCH  18  19
ATOM     19  O   UNL     1       3.987   3.794  18.711  0.00  0.00    +0.000 OA
BRANCH  19  20
ATOM     20  C   UNL     1       3.619   3.718  17.399  0.00  0.00    +0.000 C 
ATOM     21  O   UNL     1       2.536   3.290  17.018  0.00  0.00    +0.000 OA
BRANCH  20  27
ATOM     22  C   UNL     1       4.451   6.659  17.010  0.00  0.00    +0.000 C 
ATOM     23  N   UNL     1       5.072   5.509  16.384  0.00  0.00    +0.000 N 
ATOM     24  C   UNL     1       6.135   5.597  15.520  0.00  0.00    +0.000 A 
ATOM     25  C   UNL     1       6.456   4.328  15.106  0.00  0.00    +0.000 A 
ATOM     26  C   UNL     1       5.555   3.444  15.745  0.00  0.00    +0.000 A 
ATOM     27  C   UNL     1       4.696   4.187  16.548  0.00  0.00    +0.000 A 
ENDBRANCH  20  27
ENDBRANCH  19  20
ENDBRANCH  18  19
ENDBRANCH   1  18
TORSDOF 7
ENDMDL
MODEL 8
REMARK VINA RESULT:      -7.0      4.644      7.457
REMARK  Name = 
REMARK  8 active torsions:
REMARK  status: ('A' for Active; 'I' for Inactive)
REMARK    1  A    between atoms: C_1  and  N_2
REMARK    2  A    between atoms: C_6  and  C_7
REMARK    3  A    between atoms: C_7  and  O_9
REMARK    4  A    between atoms: O_9  and  C_10
REMARK    5  A    between atoms: C_10  and  C_11
REMARK    6  A    between atoms: N_13  and  N_14
REMARK    7  A    between atoms: C_15  and  C_17
REMARK    8  A    between atoms: C_20  and  N_21
REMARK                            x       y       z     vdW  Elec       q    Type
REMARK                         _______ _______ _______ _____ _____    ______ ____
ROOT
ATOM      1  C   UNL     1       2.634   4.372  20.531  0.00  0.00    +0.000 C 
ATOM      2  O   UNL     1       1.760   4.116  21.362  0.00  0.00    +0.000 OA
ATOM      3  N   UNL     1       2.876   5.664  20.100  0.00  0.00    +0.000 N 
ATOM      4  H   UNL     1       3.690   5.942  19.552  0.00  0.00    +0.000 HD
ENDROOT
BRANCH   3   5
ATOM      5  N   UNL     1       2.168   6.692  20.736  0.00  0.00    +0.000 N 
ATOM      6  C   UNL     1       1.852   7.839  20.030  0.00  0.00    +0.000 C 
ATOM      7  O   UNL     1       2.169   8.021  18.861  0.00  0.00    +0.000 OA
ATOM      8  H   UNL     1       1.801   6.469  21.658  0.00  0.00    +0.000 HD
BRANCH   6   9
ATOM      9  C   UNL     1       1.060   8.855  20.782  0.00  0.00    +0.000 A 
ATOM     10  C   UNL     1       0.845  10.144  20.270  0.00  0.00    +0.000 A 
ATOM     11  C   UNL     1       0.109  11.081  21.002  0.00  0.00    +0.000 A 
ATOM     12  C   UNL     1      -0.423  10.726  22.248  0.00  0.00    +0.000 A 
ATOM     13  C   UNL     1      -0.231   9.436  22.760  0.00  0.00    +0.000 A 
ATOM     14  C   UNL     1       0.504   8.501  22.021  0.00  0.00    +0.000 A 
BRANCH  12  15
ATOM     15  N   UNL     1      -1.190  11.715  23.018  0.00  0.00    +0.000 N 
ATOM     16  O   UNL     1      -2.308  11.377  23.435  0.00  0.00    +0.000 OA
ATOM     17  O   UNL     1      -0.677  12.828  23.203  0.00  0.00    +0.000 OA
ENDBRANCH  12  15
ENDBRANCH   6   9
ENDBRANCH   3   5
BRANCH   1  18
ATOM     18  C   UNL     1       3.494   3.301  19.860  0.00  0.00    +0.000 C 
BRANCH  18  19
ATOM     19  O   UNL     1       4.803   3.759  19.523  0.00  0.00    +0.000 OA
BRANCH  19  20
ATOM     20  C   UNL     1       4.974   4.076  18.206  0.00  0.00    +0.000 C 
ATOM     21  O   UNL     1       4.344   3.558  17.292  0.00  0.00    +0.000 OA
BRANCH  20  27
ATOM     22  C   UNL     1       5.528   5.739  15.673  0.00  0.00    +0.000 C 
ATOM     23  N   UNL     1       6.252   5.829  16.925  0.00  0.00    +0.000 N 
ATOM     24  C   UNL     1       7.300   6.690  17.135  0.00  0.00    +0.000 A 
ATOM     25  C   UNL     1       7.759   6.500  18.416  0.00  0.00    +0.000 A 
ATOM     26  C   UNL     1       6.958   5.490  18.997  0.00  0.00    +0.000 A 
ATOM     27  C   UNL     1       6.013   5.077  18.063  0.00  0.00    +0.000 A 
ENDBRANCH  20  27
ENDBRANCH  19  20
ENDBRANCH  18  19
ENDBRANCH   1  18
TORSDOF 7
ENDMDL
MODEL 9
REMARK VINA RESULT:      -6.9      1.082      2.017
REMARK  Name = 
REMARK  8 active torsions:
REMARK  status: ('A' for Active; 'I' for Inactive)
REMARK    1  A    between atoms: C_1  and  N_2
REMARK    2  A    between atoms: C_6  and  C_7
REMARK    3  A    between atoms: C_7  and  O_9
REMARK    4  A    between atoms: O_9  and  C_10
REMARK    5  A    between atoms: C_10  and  C_11
REMARK    6  A    between atoms: N_13  and  N_14
REMARK    7  A    between atoms: C_15  and  C_17
REMARK    8  A    between atoms: C_20  and  N_21
REMARK                            x       y       z     vdW  Elec       q    Type
REMARK                         _______ _______ _______ _____ _____    ______ ____
ROOT
ATOM      1  C   UNL     1       5.666   6.473  16.933  0.00  0.00    +0.000 C 
ATOM      2  O   UNL     1       4.862   7.302  17.365  0.00  0.00    +0.000 OA
ATOM      3  N   UNL     1       6.986   6.801  16.677  0.00  0.00    +0.000 N 
ATOM      4  H   UNL     1       7.719   6.119  16.487  0.00  0.00    +0.000 HD
ENDROOT
BRANCH   3   5
ATOM      5  N   UNL     1       7.406   8.087  17.043  0.00  0.00    +0.000 N 
ATOM      6  C   UNL     1       8.193   8.251  18.167  0.00  0.00    +0.000 C 
ATOM      7  O   UNL     1       8.546   7.325  18.886  0.00  0.00    +0.000 OA
ATOM      8  H   UNL     1       7.217   8.821  16.365  0.00  0.00    +0.000 HD
BRANCH   6   9
ATOM      9  C   UNL     1       8.625   9.652  18.448  0.00  0.00    +0.000 A 
ATOM     10  C   UNL     1       9.354   9.978  19.602  0.00  0.00    +0.000 A 
ATOM     11  C   UNL     1       9.734  11.301  19.846  0.00  0.00    +0.000 A 
ATOM     12  C   UNL     1       9.392  12.303  18.928  0.00  0.00    +0.000 A 
ATOM     13  C   UNL     1       8.680  11.985  17.764  0.00  0.00    +0.000 A 
ATOM     14  C   UNL     1       8.305  10.658  17.524  0.00  0.00    +0.000 A 
BRANCH  12  15
ATOM     15  N   UNL     1       9.786  13.694  19.191  0.00  0.00    +0.000 N 
ATOM     16  O   UNL     1       9.926  14.446  18.215  0.00  0.00    +0.000 OA
ATOM     17  O   UNL     1       9.959  14.033  20.370  0.00  0.00    +0.000 OA
ENDBRANCH  12  15
ENDBRANCH   6   9
ENDBRANCH   3   5
BRANCH   1  18
ATOM     18  C   UNL     1       5.286   5.033  16.592  0.00  0.00    +0.000 C 
BRANCH  18  19
ATOM     19  O   UNL     1       4.867   4.276  17.726  0.00  0.00    +0.000 OA
BRANCH  19  20
ATOM     20  C   UNL     1       3.540   3.962  17.743  0.00  0.00    +0.000 C 
ATOM     21  O   UNL     1       2.968   3.367  16.837  0.00  0.00    +0.000 OA
BRANCH  20  27
ATOM     22  C   UNL     1       3.432   2.467  20.434  0.00  0.00    +0.000 C 
ATOM     23  N   UNL     1       2.886   3.782  20.170  0.00  0.00    +0.000 N 
ATOM     24  C   UNL     1       2.237   4.539  21.114  0.00  0.00    +0.000 A 
ATOM     25  C   UNL     1       1.838   5.712  20.521  0.00  0.00    +0.000 A 
ATOM     26  C   UNL     1       2.263   5.660  19.174  0.00  0.00    +0.000 A 
ATOM     27  C   UNL     1       2.923   4.454  18.959  0.00  0.00    +0.000 A 
ENDBRANCH  20  27
ENDBRANCH  19  20
ENDBRANCH  18  19
ENDBRANCH   1  18
TORSDOF 7
ENDMDL
