MODEL 1
REMARK VINA RESULT:      -7.1      0.000      0.000
REMARK  Name = 
REMARK  8 active torsions:
REMARK  status: ('A' for Active; 'I' for Inactive)
REMARK    1  A    between atoms: C_1  and  O_2
REMARK    2  A    between atoms: O_2  and  C_3
REMARK    3  A    between atoms: C_6  and  C_7
REMARK    4  A    between atoms: N_9  and  C_10
REMARK    5  A    between atoms: C_10  and  C_11
REMARK    6  A    between atoms: C_11  and  N_12
REMARK    7  A    between atoms: C_13  and  C_15
REMARK    8  A    between atoms: C_18  and  C_19
REMARK                            x       y       z     vdW  Elec       q    Type
REMARK                         _______ _______ _______ _____ _____    ______ ____
ROOT
ATOM      1  C   UNL     1       2.995   2.824  20.649  0.00  0.00    +0.000 C 
ENDROOT
BRANCH   1   4
ATOM      2  C   UNL     1       2.164   4.823  19.440  0.00  0.00    +0.000 C 
ATOM      3  O   UNL     1       1.806   4.147  18.481  0.00  0.00    +0.000 OA
ATOM      4  N   UNL     1       2.751   4.256  20.555  0.00  0.00    +0.000 N 
ATOM      5  H   UNL     1       3.116   4.827  21.301  0.00  0.00    +0.000 HD
BRANCH   2   9
ATOM      6  C   UNL     1       1.571   9.109  19.503  0.00  0.00    +0.000 A 
ATOM      7  C   UNL     1       1.285   8.318  20.614  0.00  0.00    +0.000 A 
ATOM      8  C   UNL     1       1.498   6.935  20.578  0.00  0.00    +0.000 A 
ATOM      9  C   UNL     1       1.983   6.314  19.417  0.00  0.00    +0.000 A 
ATOM     10  C   UNL     1       2.263   7.116  18.301  0.00  0.00    +0.000 A 
ATOM     11  C   UNL     1       2.054   8.504  18.345  0.00  0.00    +0.000 A 
BRANCH   6  13
ATOM     12  C   UNL     1       0.518  11.038  18.621  0.00  0.00    +0.000 C 
ATOM     13  O   UNL     1       1.302  10.441  19.649  0.00  0.00    +0.000 OA
ENDBRANCH   6  13
ENDBRANCH   2   9
ENDBRANCH   1   4
BRANCH   1  14
ATOM     14  C   UNL     1       4.467   2.467  20.410  0.00  0.00    +0.000 C 
BRANCH  14  15
ATOM     15  N   UNL     1       4.925   2.793  19.069  0.00  0.00    +0.000 N 
ATOM     16  C   UNL     1       5.543   3.992  18.779  0.00  0.00    +0.000 C 
ATOM     17  O   UNL     1       5.788   4.840  19.629  0.00  0.00    +0.000 OA
ATOM     18  H   UNL     1       4.916   2.051  18.384  0.00  0.00    +0.000 HD
BRANCH  16  19
ATOM     19  C   UNL     1       5.927   4.223  17.363  0.00  0.00    +0.000 A 
ATOM     20  C   UNL     1       5.017   4.197  16.304  0.00  0.00    +0.000 A 
ATOM     21  C   UNL     1       5.464   4.451  15.005  0.00  0.00    +0.000 A 
ATOM     22  C   UNL     1       6.811   4.736  14.796  0.00  0.00    +0.000 A 
ATOM     23  C   UNL     1       7.334   5.028  13.421  0.00  0.00    +0.000 C 
ATOM     24  N   UNL     1       7.707   4.775  15.810  0.00  0.00    +0.000 NA
ATOM     25  C   UNL     1       7.247   4.530  17.066  0.00  0.00    +0.000 A 
ENDBRANCH  16  19
ENDBRANCH  14  15
ENDBRANCH   1  14
TORSDOF 6
ENDMDL
MODEL 2
REMARK VINA RESULT:      -7.1      1.129      1.517
REMARK  Name = 
REMARK  8 active torsions:
REMARK  status: ('A' for Active; 'I' for Inactive)
REMARK    1  A    between atoms: C_1  and  O_2
REMARK    2  A    between atoms: O_2  and  C_3
REMARK    3  A    between atoms: C_6  and  C_7
REMARK    4  A    between atoms: N_9  and  C_10
REMARK    5  A    between atoms: C_10  and  C_11
REMARK    6  A    between atoms: C_11  and  N_12
REMARK    7  A    between atoms: C_13  and  C_15
REMARK    8  A    between atoms: C_18  and  C_19
REMARK                            x       y       z     vdW  Elec       q    Type
REMARK                         _______ _______ _______ _____ _____    ______ ____
ROOT
ATOM      1  C   UNL     1       2.298   3.000  19.140  0.00  0.00    +0.000 C 
ENDROOT
BRANCH   1   4
ATOM      2  C   UNL     1       2.205   5.317  20.019  0.00  0.00    +0.000 C 
ATOM      3  O   UNL     1       2.494   4.943  21.152  0.00  0.00    +0.000 OA
ATOM      4  N   UNL     1       2.095   4.431  18.965  0.00  0.00    +0.000 N 
ATOM      5  H   UNL     1       1.778   4.735  18.058  0.00  0.00    +0.000 HD
BRANCH   2   9
ATOM      6  C   UNL     1       1.533   9.496  19.125  0.00  0.00    +0.000 A 
ATOM      7  C   UNL     1       2.116   8.638  18.195  0.00  0.00    +0.000 A 
ATOM      8  C   UNL     1       2.310   7.285  18.500  0.00  0.00    +0.000 A 
ATOM      9  C   UNL     1       1.943   6.771  19.752  0.00  0.00    +0.000 A 
ATOM     10  C   UNL     1       1.364   7.643  20.685  0.00  0.00    +0.000 A 
ATOM     11  C   UNL     1       1.165   8.997  20.372  0.00  0.00    +0.000 A 
BRANCH   6  13
ATOM     12  C   UNL     1       0.154  11.415  18.964  0.00  0.00    +0.000 C 
ATOM     13  O   UNL     1       1.415  10.798  18.724  0.00  0.00    +0.000 OA
ENDBRANCH   6  13
ENDBRANCH   2   9
ENDBRANCH   1   4
BRANCH   1  14
ATOM     14  C   UNL     1       3.783   2.624  19.200  0.00  0.00    +0.000 C 
BRANCH  14  15
ATOM     15  N   UNL     1       4.503   2.941  17.977  0.00  0.00    +0.000 N 
ATOM     16  C   UNL     1       5.209   4.117  17.828  0.00  0.00    +0.000 C 
ATOM     17  O   UNL     1       5.315   4.950  18.721  0.00  0.00    +0.000 OA
ATOM     18  H   UNL     1       4.601   2.204  17.294  0.00  0.00    +0.000 HD
BRANCH  16  19
ATOM     19  C   UNL     1       5.868   4.342  16.516  0.00  0.00    +0.000 A 
ATOM     20  C   UNL     1       5.526   3.648  15.354  0.00  0.00    +0.000 A 
ATOM     21  C   UNL     1       6.183   3.944  14.157  0.00  0.00    +0.000 A 
ATOM     22  C   UNL     1       7.160   4.935  14.148  0.00  0.00    +0.000 A 
ATOM     23  C   UNL     1       7.883   5.296  12.884  0.00  0.00    +0.000 C 
ATOM     24  N   UNL     1       7.500   5.626  15.262  0.00  0.00    +0.000 NA
ATOM     25  C   UNL     1       6.843   5.323  16.413  0.00  0.00    +0.000 A 
ENDBRANCH  16  19
ENDBRANCH  14  15
ENDBRANCH   1  14
TORSDOF 6
ENDMDL
MODEL 3
REMARK VINA RESULT:      -7.0      6.470      8.072
REMARK  Name = 
REMARK  8 active torsions:
REMARK  status: ('A' for Active; 'I' for Inactive)
REMARK    1  A    between atoms: C_1  and  O_2
REMARK    2  A    between atoms: O_2  and  C_3
REMARK    3  A    between atoms: C_6  and  C_7
REMARK    4  A    between atoms: N_9  and  C_10
REMARK    5  A    between atoms: C_10  and  C_11
REMARK    6  A    between atoms: C_11  and  N_12
REMARK    7  A    between atoms: C_13  and  C_15
REMARK    8  A    between atoms: C_18  and  C_19
REMARK                            x       y       z     vdW  Elec       q    Type
REMARK                         _______ _______ _______ _____ _____    ______ ____
ROOT
ATOM      1  C   UNL     1       8.174   8.388  18.299  0.00  0.00    +0.000 C 
ENDROOT
BRANCH   1   4
ATOM      2  C   UNL     1       9.248  10.561  18.823  0.00  0.00    +0.000 C 
ATOM      3  O   UNL     1       9.319  10.285  20.017  0.00  0.00    +0.000 OA
ATOM      4  N   UNL     1       8.707   9.683  17.904  0.00  0.00    +0.000 N 
ATOM      5  H   UNL     1       8.578   9.950  16.940  0.00  0.00    +0.000 HD
BRANCH   2   9
ATOM      6  C   UNL     1      10.799  14.326  17.364  0.00  0.00    +0.000 A 
ATOM      7  C   UNL     1      11.485  13.130  17.163  0.00  0.00    +0.000 A 
ATOM      8  C   UNL     1      10.957  11.920  17.631  0.00  0.00    +0.000 A 
ATOM      9  C   UNL     1       9.741  11.890  18.328  0.00  0.00    +0.000 A 
ATOM     10  C   UNL     1       9.061  13.099  18.532  0.00  0.00    +0.000 A 
ATOM     11  C   UNL     1       9.590  14.309  18.055  0.00  0.00    +0.000 A 
BRANCH   6  13
ATOM     12  C   UNL     1      10.672  16.653  16.940  0.00  0.00    +0.000 C 
ATOM     13  O   UNL     1      11.423  15.444  16.883  0.00  0.00    +0.000 OA
ENDBRANCH   6  13
ENDBRANCH   2   9
ENDBRANCH   1   4
BRANCH   1  14
ATOM     14  C   UNL     1       7.513   7.647  17.131  0.00  0.00    +0.000 C 
BRANCH  14  15
ATOM     15  N   UNL     1       6.392   6.816  17.541  0.00  0.00    +0.000 N 
ATOM     16  C   UNL     1       5.453   6.360  16.639  0.00  0.00    +0.000 C 
ATOM     17  O   UNL     1       5.519   6.581  15.435  0.00  0.00    +0.000 OA
ATOM     18  H   UNL     1       6.406   6.454  18.483  0.00  0.00    +0.000 HD
BRANCH  16  19
ATOM     19  C   UNL     1       4.333   5.554  17.188  0.00  0.00    +0.000 A 
ATOM     20  C   UNL     1       3.285   6.099  17.932  0.00  0.00    +0.000 A 
ATOM     21  C   UNL     1       2.258   5.268  18.387  0.00  0.00    +0.000 A 
ATOM     22  C   UNL     1       2.299   3.911  18.079  0.00  0.00    +0.000 A 
ATOM     23  C   UNL     1       1.213   2.983  18.535  0.00  0.00    +0.000 C 
ATOM     24  N   UNL     1       3.301   3.364  17.351  0.00  0.00    +0.000 NA
ATOM     25  C   UNL     1       4.286   4.195  16.915  0.00  0.00    +0.000 A 
ENDBRANCH  16  19
ENDBRANCH  14  15
ENDBRANCH   1  14
TORSDOF 6
ENDMDL
MODEL 4
REMARK VINA RESULT:      -6.9      1.012      1.463
REMARK  Name = 
REMARK  8 active torsions:
REMARK  status: ('A' for Active; 'I' for Inactive)
REMARK    1  A    between atoms: C_1  and  O_2
REMARK    2  A    between atoms: O_2  and  C_3
REMARK    3  A    between atoms: C_6  and  C_7
REMARK    4  A    between atoms: N_9  and  C_10
REMARK    5  A    between atoms: C_10  and  C_11
REMARK    6  A    between atoms: C_11  and  N_12
REMARK    7  A    between atoms: C_13  and  C_15
REMARK    8  A    between atoms: C_18  and  C_19
REMARK                            x       y       z     vdW  Elec       q    Type
REMARK                         _______ _______ _______ _____ _____    ______ ____
ROOT
ATOM      1  C   UNL     1       3.115   3.516  19.871  0.00  0.00    +0.000 C 
ENDROOT
BRANCH   1   4
ATOM      2  C   UNL     1       2.460   5.652  18.797  0.00  0.00    +0.000 C 
ATOM      3  O   UNL     1       2.563   5.168  17.674  0.00  0.00    +0.000 OA
ATOM      4  N   UNL     1       2.704   4.911  19.936  0.00  0.00    +0.000 N 
ATOM      5  H   UNL     1       2.697   5.338  20.849  0.00  0.00    +0.000 HD
BRANCH   2   9
ATOM      6  C   UNL     1       1.409   9.836  19.130  0.00  0.00    +0.000 A 
ATOM      7  C   UNL     1       1.861   9.293  17.929  0.00  0.00    +0.000 A 
ATOM      8  C   UNL     1       2.181   7.933  17.839  0.00  0.00    +0.000 A 
ATOM      9  C   UNL     1       2.074   7.095  18.960  0.00  0.00    +0.000 A 
ATOM     10  C   UNL     1       1.625   7.651  20.165  0.00  0.00    +0.000 A 
ATOM     11  C   UNL     1       1.299   9.013  20.249  0.00  0.00    +0.000 A 
BRANCH   6  13
ATOM     12  C   UNL     1      -0.105  11.584  19.643  0.00  0.00    +0.000 C 
ATOM     13  O   UNL     1       1.148  11.178  19.103  0.00  0.00    +0.000 OA
ENDBRANCH   6  13
ENDBRANCH   2   9
ENDBRANCH   1   4
BRANCH   1  14
ATOM     14  C   UNL     1       4.632   3.363  19.711  0.00  0.00    +0.000 C 
BRANCH  14  15
ATOM     15  N   UNL     1       5.076   3.477  18.331  0.00  0.00    +0.000 N 
ATOM     16  C   UNL     1       5.924   4.484  17.917  0.00  0.00    +0.000 C 
ATOM     17  O   UNL     1       6.394   5.318  18.682  0.00  0.00    +0.000 OA
ATOM     18  H   UNL     1       4.869   2.706  17.713  0.00  0.00    +0.000 HD
BRANCH  16  19
ATOM     19  C   UNL     1       6.271   4.517  16.474  0.00  0.00    +0.000 A 
ATOM     20  C   UNL     1       5.576   3.800  15.498  0.00  0.00    +0.000 A 
ATOM     21  C   UNL     1       5.957   3.912  14.158  0.00  0.00    +0.000 A 
ATOM     22  C   UNL     1       7.020   4.747  13.824  0.00  0.00    +0.000 A 
ATOM     23  C   UNL     1       7.457   4.909  12.399  0.00  0.00    +0.000 C 
ATOM     24  N   UNL     1       7.701   5.458  14.754  0.00  0.00    +0.000 NA
ATOM     25  C   UNL     1       7.308   5.336  16.050  0.00  0.00    +0.000 A 
ENDBRANCH  16  19
ENDBRANCH  14  15
ENDBRANCH   1  14
TORSDOF 6
ENDMDL
MODEL 5
REMARK VINA RESULT:      -6.9      1.057      1.102
REMARK  Name = 
REMARK  8 active torsions:
REMARK  status: ('A' for Active; 'I' for Inactive)
REMARK    1  A    between atoms: C_1  and  O_2
REMARK    2  A    between atoms: O_2  and  C_3
REMARK    3  A    between atoms: C_6  and  C_7
REMARK    4  A    between atoms: N_9  and  C_10
REMARK    5  A    between atoms: C_10  and  C_11
REMARK    6  A    between atoms: C_11  and  N_12
REMARK    7  A    between atoms: C_13  and  C_15
REMARK    8  A    between atoms: C_18  and  C_19
REMARK                            x       y       z     vdW  Elec       q    Type
REMARK                         _______ _______ _______ _____ _____    ______ ____
ROOT
ATOM      1  C   UNL     1       2.945   3.261  19.903  0.00  0.00    +0.000 C 
ENDROOT
BRANCH   1   4
ATOM      2  C   UNL     1       2.223   5.616  20.180  0.00  0.00    +0.000 C 
ATOM      3  O   UNL     1       1.823   5.404  21.321  0.00  0.00    +0.000 OA
ATOM      4  N   UNL     1       2.796   4.623  19.411  0.00  0.00    +0.000 N 
ATOM      5  H   UNL     1       3.046   4.785  18.448  0.00  0.00    +0.000 HD
BRANCH   2   9
ATOM      6  C   UNL     1       1.721   9.596  18.559  0.00  0.00    +0.000 A 
ATOM      7  C   UNL     1       1.314   9.281  19.854  0.00  0.00    +0.000 A 
ATOM      8  C   UNL     1       1.499   7.991  20.364  0.00  0.00    +0.000 A 
ATOM      9  C   UNL     1       2.078   6.984  19.577  0.00  0.00    +0.000 A 
ATOM     10  C   UNL     1       2.480   7.308  18.273  0.00  0.00    +0.000 A 
ATOM     11  C   UNL     1       2.298   8.605  17.768  0.00  0.00    +0.000 A 
BRANCH   6  13
ATOM     12  C   UNL     1       0.503  11.594  18.929  0.00  0.00    +0.000 C 
ATOM     13  O   UNL     1       1.469  10.880  18.163  0.00  0.00    +0.000 OA
ENDBRANCH   6  13
ENDBRANCH   2   9
ENDBRANCH   1   4
BRANCH   1  14
ATOM     14  C   UNL     1       4.364   2.718  19.699  0.00  0.00    +0.000 C 
BRANCH  14  15
ATOM     15  N   UNL     1       4.905   3.012  18.381  0.00  0.00    +0.000 N 
ATOM     16  C   UNL     1       5.683   4.126  18.143  0.00  0.00    +0.000 C 
ATOM     17  O   UNL     1       6.007   4.916  19.022  0.00  0.00    +0.000 OA
ATOM     18  H   UNL     1       4.823   2.293  17.678  0.00  0.00    +0.000 HD
BRANCH  16  19
ATOM     19  C   UNL     1       6.141   4.337  16.746  0.00  0.00    +0.000 A 
ATOM     20  C   UNL     1       5.606   3.658  15.649  0.00  0.00    +0.000 A 
ATOM     21  C   UNL     1       6.081   3.940  14.366  0.00  0.00    +0.000 A 
ATOM     22  C   UNL     1       7.075   4.902  14.209  0.00  0.00    +0.000 A 
ATOM     23  C   UNL     1       7.608   5.247  12.849  0.00  0.00    +0.000 C 
ATOM     24  N   UNL     1       7.600   5.578  15.257  0.00  0.00    +0.000 NA
ATOM     25  C   UNL     1       7.118   5.290  16.496  0.00  0.00    +0.000 A 
ENDBRANCH  16  19
ENDBRANCH  14  15
ENDBRANCH   1  14
TORSDOF 6
ENDMDL
MODEL 6
REMARK VINA RESULT:      -6.9      5.653      7.147
REMARK  Name = 
REMARK  8 active torsions:
REMARK  status: ('A' for Active; 'I' for Inactive)
REMARK    1  A    between atoms: C_1  and  O_2
REMARK    2  A    between atoms: O_2  and  C_3
REMARK    3  A    between atoms: C_6  and  C_7
REMARK    4  A    between atoms: N_9  and  C_10
REMARK    5  A    between atoms: C_10  and  C_11
REMARK    6  A    between atoms: C_11  and  N_12
REMARK    7  A    between atoms: C_13  and  C_15
REMARK    8  A    between atoms: C_18  and  C_19
REMARK                            x       y       z     vdW  Elec       q    Type
REMARK                         _______ _______ _______ _____ _____    ______ ____
ROOT
ATOM      1  C   UNL     1       7.961   6.807  18.335  0.00  0.00    +0.000 C 
ENDROOT
BRANCH   1   4
ATOM      2  C   UNL     1       8.416   9.240  18.190  0.00  0.00    +0.000 C 
ATOM      3  O   UNL     1       7.682   9.362  17.214  0.00  0.00    +0.000 OA
ATOM      4  N   UNL     1       8.607   8.022  18.811  0.00  0.00    +0.000 N 
ATOM      5  H   UNL     1       9.275   7.915  19.559  0.00  0.00    +0.000 HD
BRANCH   2   9
ATOM      6  C   UNL     1      10.501  12.632  19.883  0.00  0.00    +0.000 A 
ATOM      7  C   UNL     1      10.043  11.586  20.683  0.00  0.00    +0.000 A 
ATOM      8  C   UNL     1       9.384  10.491  20.112  0.00  0.00    +0.000 A 
ATOM      9  C   UNL     1       9.153  10.433  18.729  0.00  0.00    +0.000 A 
ATOM     10  C   UNL     1       9.611  11.492  17.933  0.00  0.00    +0.000 A 
ATOM     11  C   UNL     1      10.277  12.585  18.509  0.00  0.00    +0.000 A 
BRANCH   6  13
ATOM     12  C   UNL     1      10.756  14.972  20.142  0.00  0.00    +0.000 C 
ATOM     13  O   UNL     1      11.110  13.656  20.554  0.00  0.00    +0.000 OA
ENDBRANCH   6  13
ENDBRANCH   2   9
ENDBRANCH   1   4
BRANCH   1  14
ATOM     14  C   UNL     1       7.716   5.797  19.461  0.00  0.00    +0.000 C 
BRANCH  14  15
ATOM     15  N   UNL     1       6.385   5.211  19.425  0.00  0.00    +0.000 N 
ATOM     16  C   UNL     1       5.928   4.503  18.333  0.00  0.00    +0.000 C 
ATOM     17  O   UNL     1       6.616   4.280  17.345  0.00  0.00    +0.000 OA
ATOM     18  H   UNL     1       5.859   5.206  20.287  0.00  0.00    +0.000 HD
BRANCH  16  19
ATOM     19  C   UNL     1       4.535   3.990  18.402  0.00  0.00    +0.000 A 
ATOM     20  C   UNL     1       3.569   4.251  17.429  0.00  0.00    +0.000 A 
ATOM     21  C   UNL     1       2.290   3.706  17.564  0.00  0.00    +0.000 A 
ATOM     22  C   UNL     1       2.009   2.903  18.666  0.00  0.00    +0.000 A 
ATOM     23  C   UNL     1       0.654   2.285  18.846  0.00  0.00    +0.000 C 
ATOM     24  N   UNL     1       2.934   2.630  19.616  0.00  0.00    +0.000 NA
ATOM     25  C   UNL     1       4.173   3.168  19.460  0.00  0.00    +0.000 A 
ENDBRANCH  16  19
ENDBRANCH  14  15
ENDBRANCH   1  14
TORSDOF 6
ENDMDL
MODEL 7
REMARK VINA RESULT:      -6.9      6.029      7.618
REMARK  Name = 
REMARK  8 active torsions:
REMARK  status: ('A' for Active; 'I' for Inactive)
REMARK    1  A    between atoms: C_1  and  O_2
REMARK    2  A    between atoms: O_2  and  C_3
REMARK    3  A    between atoms: C_6  and  C_7
REMARK    4  A    between atoms: N_9  and  C_10
REMARK    5  A    between atoms: C_10  and  C_11
REMARK    6  A    between atoms: C_11  and  N_12
REMARK    7  A    between atoms: C_13  and  C_15
REMARK    8  A    between atoms: C_18  and  C_19
REMARK                            x       y       z     vdW  Elec       q    Type
REMARK                         _______ _______ _______ _____ _____    ______ ____
ROOT
ATOM      1  C   UNL     1       7.731   7.646  17.160  0.00  0.00    +0.000 C 
ENDROOT
BRANCH   1   4
ATOM      2  C   UNL     1       6.219   5.741  17.639  0.00  0.00    +0.000 C 
ATOM      3  O   UNL     1       7.165   4.991  17.858  0.00  0.00    +0.000 OA
ATOM      4  N   UNL     1       6.403   7.066  17.298  0.00  0.00    +0.000 N 
ATOM      5  H   UNL     1       5.625   7.653  17.040  0.00  0.00    +0.000 HD
BRANCH   2   9
ATOM      6  C   UNL     1       2.213   4.116  17.811  0.00  0.00    +0.000 A 
ATOM      7  C   UNL     1       3.300   3.332  17.429  0.00  0.00    +0.000 A 
ATOM      8  C   UNL     1       4.590   3.874  17.395  0.00  0.00    +0.000 A 
ATOM      9  C   UNL     1       4.812   5.220  17.723  0.00  0.00    +0.000 A 
ATOM     10  C   UNL     1       3.712   6.003  18.100  0.00  0.00    +0.000 A 
ATOM     11  C   UNL     1       2.421   5.454  18.139  0.00  0.00    +0.000 A 
BRANCH   6  13
ATOM     12  C   UNL     1       0.834   2.409  18.703  0.00  0.00    +0.000 C 
ATOM     13  O   UNL     1       1.000   3.485  17.785  0.00  0.00    +0.000 OA
ENDBRANCH   6  13
ENDBRANCH   2   9
ENDBRANCH   1   4
BRANCH   1  14
ATOM     14  C   UNL     1       8.102   8.544  18.346  0.00  0.00    +0.000 C 
BRANCH  14  15
ATOM     15  N   UNL     1       8.735   9.791  17.945  0.00  0.00    +0.000 N 
ATOM     16  C   UNL     1       9.324  10.638  18.860  0.00  0.00    +0.000 C 
ATOM     17  O   UNL     1       9.396  10.385  20.056  0.00  0.00    +0.000 OA
ATOM     18  H   UNL     1       8.866   9.944  16.956  0.00  0.00    +0.000 HD
BRANCH  16  19
ATOM     19  C   UNL     1       9.900  11.901  18.329  0.00  0.00    +0.000 A 
ATOM     20  C   UNL     1      11.132  11.971  17.678  0.00  0.00    +0.000 A 
ATOM     21  C   UNL     1      11.583  13.199  17.188  0.00  0.00    +0.000 A 
ATOM     22  C   UNL     1      10.786  14.328  17.353  0.00  0.00    +0.000 A 
ATOM     23  C   UNL     1      11.223  15.666  16.833  0.00  0.00    +0.000 C 
ATOM     24  N   UNL     1       9.583  14.280  17.973  0.00  0.00    +0.000 NA
ATOM     25  C   UNL     1       9.164  13.072  18.436  0.00  0.00    +0.000 A 
ENDBRANCH  16  19
ENDBRANCH  14  15
ENDBRANCH   1  14
TORSDOF 6
ENDMDL
MODEL 8
REMARK VINA RESULT:      -6.9      6.412      8.031
REMARK  Name = 
REMARK  8 active torsions:
REMARK  status: ('A' for Active; 'I' for Inactive)
REMARK    1  A    between atoms: C_1  and  O_2
REMARK    2  A    between atoms: O_2  and  C_3
REMARK    3  A    between atoms: C_6  and  C_7
REMARK    4  A    between atoms: N_9  and  C_10
REMARK    5  A    between atoms: C_10  and  C_11
REMARK    6  A    between atoms: C_11  and  N_12
REMARK    7  A    between atoms: C_13  and  C_15
REMARK    8  A    between atoms: C_18  and  C_19
REMARK                            x       y       z     vdW  Elec       q    Type
REMARK                         _______ _______ _______ _____ _____    ______ ____
ROOT
ATOM      1  C   UNL     1       8.164   8.288  18.305  0.00  0.00    +0.000 C 
ENDROOT
BRANCH   1   4
ATOM      2  C   UNL     1       9.211  10.471  18.841  0.00  0.00    +0.000 C 
ATOM      3  O   UNL     1       9.250  10.205  20.038  0.00  0.00    +0.000 OA
ATOM      4  N   UNL     1       8.701   9.583  17.914  0.00  0.00    +0.000 N 
ATOM      5  H   UNL     1       8.597   9.842  16.945  0.00  0.00    +0.000 HD
BRANCH   2   9
ATOM      6  C   UNL     1      10.780  14.232  17.388  0.00  0.00    +0.000 A 
ATOM      7  C   UNL     1      11.445  13.029  17.159  0.00  0.00    +0.000 A 
ATOM      8  C   UNL     1      10.912  11.821  17.625  0.00  0.00    +0.000 A 
ATOM      9  C   UNL     1       9.710  11.799  18.350  0.00  0.00    +0.000 A 
ATOM     10  C   UNL     1       9.051  13.014  18.581  0.00  0.00    +0.000 A 
ATOM     11  C   UNL     1       9.586  14.222  18.106  0.00  0.00    +0.000 A 
BRANCH   6  13
ATOM     12  C   UNL     1      10.626  16.537  16.865  0.00  0.00    +0.000 C 
ATOM     13  O   UNL     1      11.407  15.347  16.906  0.00  0.00    +0.000 OA
ENDBRANCH   6  13
ENDBRANCH   2   9
ENDBRANCH   1   4
BRANCH   1  14
ATOM     14  C   UNL     1       7.547   7.531  17.123  0.00  0.00    +0.000 C 
BRANCH  14  15
ATOM     15  N   UNL     1       6.423   6.692  17.505  0.00  0.00    +0.000 N 
ATOM     16  C   UNL     1       5.523   6.209  16.577  0.00  0.00    +0.000 C 
ATOM     17  O   UNL     1       5.631   6.412  15.373  0.00  0.00    +0.000 OA
ATOM     18  H   UNL     1       6.406   6.345  18.452  0.00  0.00    +0.000 HD
BRANCH  16  19
ATOM     19  C   UNL     1       4.394   5.397  17.098  0.00  0.00    +0.000 A 
ATOM     20  C   UNL     1       4.216   4.045  16.800  0.00  0.00    +0.000 A 
ATOM     21  C   UNL     1       3.137   3.353  17.357  0.00  0.00    +0.000 A 
ATOM     22  C   UNL     1       2.266   4.029  18.207  0.00  0.00    +0.000 A 
ATOM     23  C   UNL     1       1.101   3.325  18.838  0.00  0.00    +0.000 C 
ATOM     24  N   UNL     1       2.426   5.337  18.516  0.00  0.00    +0.000 NA
ATOM     25  C   UNL     1       3.487   5.987  17.966  0.00  0.00    +0.000 A 
ENDBRANCH  16  19
ENDBRANCH  14  15
ENDBRANCH   1  14
TORSDOF 6
ENDMDL
MODEL 9
REMARK VINA RESULT:      -6.8      1.898      6.349
REMARK  Name = 
REMARK  8 active torsions:
REMARK  status: ('A' for Active; 'I' for Inactive)
REMARK    1  A    between atoms: C_1  and  O_2
REMARK    2  A    between atoms: O_2  and  C_3
REMARK    3  A    between atoms: C_6  and  C_7
REMARK    4  A    between atoms: N_9  and  C_10
REMARK    5  A    between atoms: C_10  and  C_11
REMARK    6  A    between atoms: C_11  and  N_12
REMARK    7  A    between atoms: C_13  and  C_15
REMARK    8  A    between atoms: C_18  and  C_19
REMARK                            x       y       z     vdW  Elec       q    Type
REMARK                         _______ _______ _______ _____ _____    ______ ____
ROOT
ATOM      1  C   UNL     1       2.977   2.051  19.132  0.00  0.00    +0.000 C 
ENDROOT
BRANCH   1   4
ATOM      2  C   UNL     1       3.814   3.425  17.245  0.00  0.00    +0.000 C 
ATOM      3  O   UNL     1       2.675   3.648  16.848  0.00  0.00    +0.000 OA
ATOM      4  N   UNL     1       4.057   2.656  18.367  0.00  0.00    +0.000 N 
ATOM      5  H   UNL     1       4.996   2.410  18.638  0.00  0.00    +0.000 HD
BRANCH   2   9
ATOM      6  C   UNL     1       7.141   4.986  14.963  0.00  0.00    +0.000 A 
ATOM      7  C   UNL     1       5.942   4.628  14.349  0.00  0.00    +0.000 A 
ATOM      8  C   UNL     1       4.872   4.140  15.109  0.00  0.00    +0.000 A 
ATOM      9  C   UNL     1       4.993   3.979  16.497  0.00  0.00    +0.000 A 
ATOM     10  C   UNL     1       6.205   4.335  17.106  0.00  0.00    +0.000 A 
ATOM     11  C   UNL     1       7.272   4.831  16.341  0.00  0.00    +0.000 A 
BRANCH   6  13
ATOM     12  C   UNL     1       7.875   5.251  12.726  0.00  0.00    +0.000 C 
ATOM     13  O   UNL     1       8.120   5.429  14.117  0.00  0.00    +0.000 OA
ENDBRANCH   6  13
ENDBRANCH   2   9
ENDBRANCH   1   4
BRANCH   1  14
ATOM     14  C   UNL     1       2.601   2.878  20.366  0.00  0.00    +0.000 C 
BRANCH  14  15
ATOM     15  N   UNL     1       2.144   4.220  20.039  0.00  0.00    +0.000 N 
ATOM     16  C   UNL     1       3.015   5.286  19.948  0.00  0.00    +0.000 C 
ATOM     17  O   UNL     1       4.226   5.174  20.090  0.00  0.00    +0.000 OA
ATOM     18  H   UNL     1       1.189   4.319  19.728  0.00  0.00    +0.000 HD
BRANCH  16  19
ATOM     19  C   UNL     1       2.419   6.613  19.648  0.00  0.00    +0.000 A 
ATOM     20  C   UNL     1       1.761   7.395  20.599  0.00  0.00    +0.000 A 
ATOM     21  C   UNL     1       1.253   8.644  20.233  0.00  0.00    +0.000 A 
ATOM     22  C   UNL     1       1.424   9.087  18.925  0.00  0.00    +0.000 A 
ATOM     23  C   UNL     1       0.908  10.426  18.489  0.00  0.00    +0.000 C 
ATOM     24  N   UNL     1       2.067   8.349  17.990  0.00  0.00    +0.000 NA
ATOM     25  C   UNL     1       2.557   7.140  18.371  0.00  0.00    +0.000 A 
ENDBRANCH  16  19
ENDBRANCH  14  15
ENDBRANCH   1  14
TORSDOF 6
ENDMDL
