MODEL 1
REMARK VINA RESULT:      -7.6      0.000      0.000
REMARK  Name = 
REMARK  6 active torsions:
REMARK  status: ('A' for Active; 'I' for Inactive)
REMARK    1  A    between atoms: C_1  and  N_2
REMARK    2  A    between atoms: N_2  and  C_14
REMARK    3  A    between atoms: C_3  and  C_5
REMARK    4  A    between atoms: C_14  and  C_15
REMARK    5  A    between atoms: C_14  and  C_16
REMARK    6  A    between atoms: C_14  and  C_17
REMARK                            x       y       z     vdW  Elec       q    Type
REMARK                         _______ _______ _______ _____ _____    ______ ____
ROOT
ATOM      1  C   UNL     1       5.331   4.034  18.379  0.00  0.00    +0.000 A 
ATOM      2  C   UNL     1       6.425   4.901  18.582  0.00  0.00    +0.000 A 
ATOM      3  C   UNL     1       7.151   5.514  17.557  0.00  0.00    +0.000 A 
ATOM      4  C   UNL     1       6.800   5.211  16.284  0.00  0.00    +0.000 A 
ATOM      5  C   UNL     1       5.757   4.346  16.003  0.00  0.00    +0.000 A 
ATOM      6  C   UNL     1       5.000   3.771  17.028  0.00  0.00    +0.000 A 
ATOM      7  C   UNL     1       5.638   4.239  14.532  0.00  0.00    +0.000 C 
ATOM      8  C   UNL     1       6.997   4.832  14.140  0.00  0.00    +0.000 C 
ATOM      9  O   UNL     1       7.438   5.718  15.185  0.00  0.00    +0.000 OA
ENDROOT
BRANCH   1  12
ATOM     10  C   UNL     1       2.588   2.999  20.960  0.00  0.00    +0.000 C 
ATOM     11  N   UNL     1       3.188   3.799  19.887  0.00  0.00    +0.000 N 
ATOM     12  C   UNL     1       4.485   3.379  19.454  0.00  0.00    +0.000 C 
ATOM     13  O   UNL     1       5.004   2.385  19.985  0.00  0.00    +0.000 OA
BRANCH  11  14
ATOM     14  C   UNL     1       2.372   4.951  19.384  0.00  0.00    +0.000 C 
ATOM     15  C   UNL     1       3.177   6.243  19.046  0.00  0.00    +0.000 C 
ATOM     16  C   UNL     1       1.764   4.562  18.008  0.00  0.00    +0.000 C 
ATOM     17  C   UNL     1       1.429   5.456  20.511  0.00  0.00    +0.000 C 
ENDBRANCH  11  14
ENDBRANCH   1  12
TORSDOF 2
ENDMDL
MODEL 2
REMARK VINA RESULT:      -7.5      0.296      1.143
REMARK  Name = 
REMARK  6 active torsions:
REMARK  status: ('A' for Active; 'I' for Inactive)
REMARK    1  A    between atoms: C_1  and  N_2
REMARK    2  A    between atoms: N_2  and  C_14
REMARK    3  A    between atoms: C_3  and  C_5
REMARK    4  A    between atoms: C_14  and  C_15
REMARK    5  A    between atoms: C_14  and  C_16
REMARK    6  A    between atoms: C_14  and  C_17
REMARK                            x       y       z     vdW  Elec       q    Type
REMARK                         _______ _______ _______ _____ _____    ______ ____
ROOT
ATOM      1  C   UNL     1       5.297   3.982  18.508  0.00  0.00    +0.000 A 
ATOM      2  C   UNL     1       6.329   4.918  18.727  0.00  0.00    +0.000 A 
ATOM      3  C   UNL     1       7.025   5.581  17.712  0.00  0.00    +0.000 A 
ATOM      4  C   UNL     1       6.709   5.260  16.434  0.00  0.00    +0.000 A 
ATOM      5  C   UNL     1       5.729   4.329  16.138  0.00  0.00    +0.000 A 
ATOM      6  C   UNL     1       4.999   3.703  17.153  0.00  0.00    +0.000 A 
ATOM      7  C   UNL     1       5.634   4.220  14.666  0.00  0.00    +0.000 C 
ATOM      8  C   UNL     1       6.956   4.902  14.291  0.00  0.00    +0.000 C 
ATOM      9  O   UNL     1       7.326   5.812  15.344  0.00  0.00    +0.000 OA
ENDROOT
BRANCH   1  12
ATOM     10  C   UNL     1       2.595   2.757  21.051  0.00  0.00    +0.000 C 
ATOM     11  N   UNL     1       3.153   3.598  19.986  0.00  0.00    +0.000 N 
ATOM     12  C   UNL     1       4.483   3.269  19.572  0.00  0.00    +0.000 C 
ATOM     13  O   UNL     1       5.062   2.313  20.111  0.00  0.00    +0.000 OA
BRANCH  11  14
ATOM     14  C   UNL     1       2.267   4.690  19.470  0.00  0.00    +0.000 C 
ATOM     15  C   UNL     1       0.973   4.949  20.302  0.00  0.00    +0.000 C 
ATOM     16  C   UNL     1       3.025   6.040  19.591  0.00  0.00    +0.000 C 
ATOM     17  C   UNL     1       1.674   4.276  18.093  0.00  0.00    +0.000 C 
ENDBRANCH  11  14
ENDBRANCH   1  12
TORSDOF 2
ENDMDL
MODEL 3
REMARK VINA RESULT:      -7.3      1.058      2.409
REMARK  Name = 
REMARK  6 active torsions:
REMARK  status: ('A' for Active; 'I' for Inactive)
REMARK    1  A    between atoms: C_1  and  N_2
REMARK    2  A    between atoms: N_2  and  C_14
REMARK    3  A    between atoms: C_3  and  C_5
REMARK    4  A    between atoms: C_14  and  C_15
REMARK    5  A    between atoms: C_14  and  C_16
REMARK    6  A    between atoms: C_14  and  C_17
REMARK                            x       y       z     vdW  Elec       q    Type
REMARK                         _______ _______ _______ _____ _____    ______ ____
ROOT
ATOM      1  C   UNL     1       5.162   4.072  18.659  0.00  0.00    +0.000 A 
ATOM      2  C   UNL     1       5.048   4.064  17.252  0.00  0.00    +0.000 A 
ATOM      3  C   UNL     1       5.807   4.862  16.391  0.00  0.00    +0.000 A 
ATOM      4  C   UNL     1       6.677   5.731  16.961  0.00  0.00    +0.000 A 
ATOM      5  C   UNL     1       6.824   5.820  18.333  0.00  0.00    +0.000 A 
ATOM      6  C   UNL     1       6.101   4.987  19.192  0.00  0.00    +0.000 A 
ATOM      7  C   UNL     1       7.845   6.853  18.616  0.00  0.00    +0.000 C 
ATOM      8  C   UNL     1       7.879   7.536  17.242  0.00  0.00    +0.000 C 
ATOM      9  O   UNL     1       7.464   6.589  16.241  0.00  0.00    +0.000 OA
ENDROOT
BRANCH   1  12
ATOM     10  C   UNL     1       2.529   2.384  21.000  0.00  0.00    +0.000 C 
ATOM     11  N   UNL     1       3.029   3.361  20.026  0.00  0.00    +0.000 N 
ATOM     12  C   UNL     1       4.395   3.197  19.632  0.00  0.00    +0.000 C 
ATOM     13  O   UNL     1       5.051   2.260  20.111  0.00  0.00    +0.000 OA
BRANCH  11  14
ATOM     14  C   UNL     1       2.053   4.403  19.572  0.00  0.00    +0.000 C 
ATOM     15  C   UNL     1       0.694   4.425  20.337  0.00  0.00    +0.000 C 
ATOM     16  C   UNL     1       2.643   5.804  19.888  0.00  0.00    +0.000 C 
ATOM     17  C   UNL     1       1.589   4.087  18.122  0.00  0.00    +0.000 C 
ENDBRANCH  11  14
ENDBRANCH   1  12
TORSDOF 2
ENDMDL
MODEL 4
REMARK VINA RESULT:      -7.3      1.013      2.121
REMARK  Name = 
REMARK  6 active torsions:
REMARK  status: ('A' for Active; 'I' for Inactive)
REMARK    1  A    between atoms: C_1  and  N_2
REMARK    2  A    between atoms: N_2  and  C_14
REMARK    3  A    between atoms: C_3  and  C_5
REMARK    4  A    between atoms: C_14  and  C_15
REMARK    5  A    between atoms: C_14  and  C_16
REMARK    6  A    between atoms: C_14  and  C_17
REMARK                            x       y       z     vdW  Elec       q    Type
REMARK                         _______ _______ _______ _____ _____    ______ ____
ROOT
ATOM      1  C   UNL     1       5.124   4.097  18.590  0.00  0.00    +0.000 A 
ATOM      2  C   UNL     1       5.054   4.100  17.181  0.00  0.00    +0.000 A 
ATOM      3  C   UNL     1       5.846   4.898  16.350  0.00  0.00    +0.000 A 
ATOM      4  C   UNL     1       6.704   5.757  16.953  0.00  0.00    +0.000 A 
ATOM      5  C   UNL     1       6.808   5.835  18.330  0.00  0.00    +0.000 A 
ATOM      6  C   UNL     1       6.053   5.001  19.160  0.00  0.00    +0.000 A 
ATOM      7  C   UNL     1       7.828   6.858  18.653  0.00  0.00    +0.000 C 
ATOM      8  C   UNL     1       7.910   7.550  17.286  0.00  0.00    +0.000 C 
ATOM      9  O   UNL     1       7.519   6.614  16.265  0.00  0.00    +0.000 OA
ENDROOT
BRANCH   1  12
ATOM     10  C   UNL     1       2.406   2.409  20.832  0.00  0.00    +0.000 C 
ATOM     11  N   UNL     1       2.943   3.389  19.881  0.00  0.00    +0.000 N 
ATOM     12  C   UNL     1       4.321   3.221  19.533  0.00  0.00    +0.000 C 
ATOM     13  O   UNL     1       4.956   2.277  20.028  0.00  0.00    +0.000 OA
BRANCH  11  14
ATOM     14  C   UNL     1       1.988   4.438  19.400  0.00  0.00    +0.000 C 
ATOM     15  C   UNL     1       2.567   5.884  19.322  0.00  0.00    +0.000 C 
ATOM     16  C   UNL     1       1.629   4.136  17.919  0.00  0.00    +0.000 C 
ATOM     17  C   UNL     1       0.842   4.616  20.435  0.00  0.00    +0.000 C 
ENDBRANCH  11  14
ENDBRANCH   1  12
TORSDOF 2
ENDMDL
MODEL 5
REMARK VINA RESULT:      -7.1      1.588      2.331
REMARK  Name = 
REMARK  6 active torsions:
REMARK  status: ('A' for Active; 'I' for Inactive)
REMARK    1  A    between atoms: C_1  and  N_2
REMARK    2  A    between atoms: N_2  and  C_14
REMARK    3  A    between atoms: C_3  and  C_5
REMARK    4  A    between atoms: C_14  and  C_15
REMARK    5  A    between atoms: C_14  and  C_16
REMARK    6  A    between atoms: C_14  and  C_17
REMARK                            x       y       z     vdW  Elec       q    Type
REMARK                         _______ _______ _______ _____ _____    ______ ____
ROOT
ATOM      1  C   UNL     1       4.519   5.356  18.465  0.00  0.00    +0.000 A 
ATOM      2  C   UNL     1       5.845   5.197  18.922  0.00  0.00    +0.000 A 
ATOM      3  C   UNL     1       6.957   5.046  18.088  0.00  0.00    +0.000 A 
ATOM      4  C   UNL     1       6.727   5.005  16.753  0.00  0.00    +0.000 A 
ATOM      5  C   UNL     1       5.452   5.124  16.230  0.00  0.00    +0.000 A 
ATOM      6  C   UNL     1       4.346   5.325  17.061  0.00  0.00    +0.000 A 
ATOM      7  C   UNL     1       5.556   5.043  14.756  0.00  0.00    +0.000 C 
ATOM      8  C   UNL     1       6.974   4.466  14.649  0.00  0.00    +0.000 C 
ATOM      9  O   UNL     1       7.717   4.837  15.824  0.00  0.00    +0.000 OA
ENDROOT
BRANCH   1  12
ATOM     10  C   UNL     1       1.307   5.018  20.663  0.00  0.00    +0.000 C 
ATOM     11  N   UNL     1       2.452   4.545  19.878  0.00  0.00    +0.000 N 
ATOM     12  C   UNL     1       3.287   5.568  19.324  0.00  0.00    +0.000 C 
ATOM     13  O   UNL     1       3.010   6.756  19.547  0.00  0.00    +0.000 OA
BRANCH  11  14
ATOM     14  C   UNL     1       2.601   3.060  19.752  0.00  0.00    +0.000 C 
ATOM     15  C   UNL     1       4.034   2.507  20.026  0.00  0.00    +0.000 C 
ATOM     16  C   UNL     1       1.758   2.383  20.867  0.00  0.00    +0.000 C 
ATOM     17  C   UNL     1       2.380   2.635  18.274  0.00  0.00    +0.000 C 
ENDBRANCH  11  14
ENDBRANCH   1  12
TORSDOF 2
ENDMDL
MODEL 6
REMARK VINA RESULT:      -7.1      2.013      3.013
REMARK  Name = 
REMARK  6 active torsions:
REMARK  status: ('A' for Active; 'I' for Inactive)
REMARK    1  A    between atoms: C_1  and  N_2
REMARK    2  A    between atoms: N_2  and  C_14
REMARK    3  A    between atoms: C_3  and  C_5
REMARK    4  A    between atoms: C_14  and  C_15
REMARK    5  A    between atoms: C_14  and  C_16
REMARK    6  A    between atoms: C_14  and  C_17
REMARK                            x       y       z     vdW  Elec       q    Type
REMARK                         _______ _______ _______ _____ _____    ______ ____
ROOT
ATOM      1  C   UNL     1       3.094   5.044  17.744  0.00  0.00    +0.000 A 
ATOM      2  C   UNL     1       3.051   6.451  17.837  0.00  0.00    +0.000 A 
ATOM      3  C   UNL     1       4.134   7.296  17.579  0.00  0.00    +0.000 A 
ATOM      4  C   UNL     1       5.314   6.709  17.264  0.00  0.00    +0.000 A 
ATOM      5  C   UNL     1       5.445   5.334  17.182  0.00  0.00    +0.000 A 
ATOM      6  C   UNL     1       4.349   4.491  17.391  0.00  0.00    +0.000 A 
ATOM      7  C   UNL     1       6.846   5.031  16.817  0.00  0.00    +0.000 C 
ATOM      8  C   UNL     1       7.474   6.395  17.128  0.00  0.00    +0.000 C 
ATOM      9  O   UNL     1       6.461   7.411  17.011  0.00  0.00    +0.000 OA
ENDROOT
BRANCH   1  12
ATOM     10  C   UNL     1       0.483   2.488  19.125  0.00  0.00    +0.000 C 
ATOM     11  N   UNL     1       1.658   3.365  19.173  0.00  0.00    +0.000 N 
ATOM     12  C   UNL     1       1.939   4.087  17.970  0.00  0.00    +0.000 C 
ATOM     13  O   UNL     1       1.187   3.946  16.993  0.00  0.00    +0.000 OA
BRANCH  11  14
ATOM     14  C   UNL     1       2.413   3.391  20.466  0.00  0.00    +0.000 C 
ATOM     15  C   UNL     1       1.743   2.623  21.647  0.00  0.00    +0.000 C 
ATOM     16  C   UNL     1       3.748   2.620  20.275  0.00  0.00    +0.000 C 
ATOM     17  C   UNL     1       2.451   4.843  21.021  0.00  0.00    +0.000 C 
ENDBRANCH  11  14
ENDBRANCH   1  12
TORSDOF 2
ENDMDL
MODEL 7
REMARK VINA RESULT:      -7.1      1.582      2.258
REMARK  Name = 
REMARK  6 active torsions:
REMARK  status: ('A' for Active; 'I' for Inactive)
REMARK    1  A    between atoms: C_1  and  N_2
REMARK    2  A    between atoms: N_2  and  C_14
REMARK    3  A    between atoms: C_3  and  C_5
REMARK    4  A    between atoms: C_14  and  C_15
REMARK    5  A    between atoms: C_14  and  C_16
REMARK    6  A    between atoms: C_14  and  C_17
REMARK                            x       y       z     vdW  Elec       q    Type
REMARK                         _______ _______ _______ _____ _____    ______ ____
ROOT
ATOM      1  C   UNL     1       4.603   5.346  18.393  0.00  0.00    +0.000 A 
ATOM      2  C   UNL     1       5.930   5.142  18.824  0.00  0.00    +0.000 A 
ATOM      3  C   UNL     1       7.026   4.988  17.969  0.00  0.00    +0.000 A 
ATOM      4  C   UNL     1       6.776   4.993  16.637  0.00  0.00    +0.000 A 
ATOM      5  C   UNL     1       5.497   5.158  16.137  0.00  0.00    +0.000 A 
ATOM      6  C   UNL     1       4.408   5.361  16.990  0.00  0.00    +0.000 A 
ATOM      7  C   UNL     1       5.576   5.118  14.660  0.00  0.00    +0.000 C 
ATOM      8  C   UNL     1       6.978   4.511  14.514  0.00  0.00    +0.000 C 
ATOM      9  O   UNL     1       7.748   4.829  15.687  0.00  0.00    +0.000 OA
ENDROOT
BRANCH   1  12
ATOM     10  C   UNL     1       1.392   5.025  20.595  0.00  0.00    +0.000 C 
ATOM     11  N   UNL     1       2.506   4.548  19.768  0.00  0.00    +0.000 N 
ATOM     12  C   UNL     1       3.389   5.561  19.277  0.00  0.00    +0.000 C 
ATOM     13  O   UNL     1       3.175   6.745  19.581  0.00  0.00    +0.000 OA
BRANCH  11  14
ATOM     14  C   UNL     1       2.577   3.069  19.541  0.00  0.00    +0.000 C 
ATOM     15  C   UNL     1       1.506   2.224  20.298  0.00  0.00    +0.000 C 
ATOM     16  C   UNL     1       2.245   2.781  18.051  0.00  0.00    +0.000 C 
ATOM     17  C   UNL     1       3.897   2.510  20.143  0.00  0.00    +0.000 C 
ENDBRANCH  11  14
ENDBRANCH   1  12
TORSDOF 2
ENDMDL
MODEL 8
REMARK VINA RESULT:      -7.1      3.280      5.573
REMARK  Name = 
REMARK  6 active torsions:
REMARK  status: ('A' for Active; 'I' for Inactive)
REMARK    1  A    between atoms: C_1  and  N_2
REMARK    2  A    between atoms: N_2  and  C_14
REMARK    3  A    between atoms: C_3  and  C_5
REMARK    4  A    between atoms: C_14  and  C_15
REMARK    5  A    between atoms: C_14  and  C_16
REMARK    6  A    between atoms: C_14  and  C_17
REMARK                            x       y       z     vdW  Elec       q    Type
REMARK                         _______ _______ _______ _____ _____    ______ ____
ROOT
ATOM      1  C   UNL     1       2.982   6.630  19.162  0.00  0.00    +0.000 A 
ATOM      2  C   UNL     1       2.977   7.383  17.969  0.00  0.00    +0.000 A 
ATOM      3  C   UNL     1       2.284   8.585  17.795  0.00  0.00    +0.000 A 
ATOM      4  C   UNL     1       1.534   9.023  18.834  0.00  0.00    +0.000 A 
ATOM      5  C   UNL     1       1.464   8.324  20.027  0.00  0.00    +0.000 A 
ATOM      6  C   UNL     1       2.195   7.148  20.219  0.00  0.00    +0.000 A 
ATOM      7  C   UNL     1       0.571   9.071  20.940  0.00  0.00    +0.000 C 
ATOM      8  C   UNL     1      -0.101   9.993  19.914  0.00  0.00    +0.000 C 
ATOM      9  O   UNL     1       0.786  10.168  18.794  0.00  0.00    +0.000 OA
ENDROOT
BRANCH   1  12
ATOM     10  C   UNL     1       4.174   2.945  19.675  0.00  0.00    +0.000 C 
ATOM     11  N   UNL     1       3.221   4.017  19.372  0.00  0.00    +0.000 N 
ATOM     12  C   UNL     1       3.750   5.346  19.417  0.00  0.00    +0.000 C 
ATOM     13  O   UNL     1       4.950   5.507  19.686  0.00  0.00    +0.000 OA
BRANCH  11  14
ATOM     14  C   UNL     1       1.820   3.589  19.058  0.00  0.00    +0.000 C 
ATOM     15  C   UNL     1       1.614   2.053  18.882  0.00  0.00    +0.000 C 
ATOM     16  C   UNL     1       0.918   3.913  20.281  0.00  0.00    +0.000 C 
ATOM     17  C   UNL     1       1.412   4.121  17.656  0.00  0.00    +0.000 C 
ENDBRANCH  11  14
ENDBRANCH   1  12
TORSDOF 2
ENDMDL
MODEL 9
REMARK VINA RESULT:      -7.1      1.432      2.342
REMARK  Name = 
REMARK  6 active torsions:
REMARK  status: ('A' for Active; 'I' for Inactive)
REMARK    1  A    between atoms: C_1  and  N_2
REMARK    2  A    between atoms: N_2  and  C_14
REMARK    3  A    between atoms: C_3  and  C_5
REMARK    4  A    between atoms: C_14  and  C_15
REMARK    5  A    between atoms: C_14  and  C_16
REMARK    6  A    between atoms: C_14  and  C_17
REMARK                            x       y       z     vdW  Elec       q    Type
REMARK                         _______ _______ _______ _____ _____    ______ ____
ROOT
ATOM      1  C   UNL     1       4.693   3.868  17.547  0.00  0.00    +0.000 A 
ATOM      2  C   UNL     1       4.776   4.359  16.227  0.00  0.00    +0.000 A 
ATOM      3  C   UNL     1       5.714   5.299  15.788  0.00  0.00    +0.000 A 
ATOM      4  C   UNL     1       6.568   5.798  16.715  0.00  0.00    +0.000 A 
ATOM      5  C   UNL     1       6.529   5.389  18.036  0.00  0.00    +0.000 A 
ATOM      6  C   UNL     1       5.624   4.413  18.463  0.00  0.00    +0.000 A 
ATOM      7  C   UNL     1       7.587   6.119  18.769  0.00  0.00    +0.000 C 
ATOM      8  C   UNL     1       7.870   7.222  17.741  0.00  0.00    +0.000 C 
ATOM      9  O   UNL     1       7.519   6.741  16.432  0.00  0.00    +0.000 OA
ENDROOT
BRANCH   1  12
ATOM     10  C   UNL     1       1.786   1.865  19.219  0.00  0.00    +0.000 C 
ATOM     11  N   UNL     1       2.543   3.060  18.830  0.00  0.00    +0.000 N 
ATOM     12  C   UNL     1       3.726   2.819  18.062  0.00  0.00    +0.000 C 
ATOM     13  O   UNL     1       4.024   1.652  17.766  0.00  0.00    +0.000 OA
BRANCH  11  14
ATOM     14  C   UNL     1       1.987   4.374  19.286  0.00  0.00    +0.000 C 
ATOM     15  C   UNL     1       2.953   5.247  20.144  0.00  0.00    +0.000 C 
ATOM     16  C   UNL     1       1.741   5.266  18.039  0.00  0.00    +0.000 C 
ATOM     17  C   UNL     1       0.819   4.131  20.283  0.00  0.00    +0.000 C 
ENDBRANCH  11  14
ENDBRANCH   1  12
TORSDOF 2
ENDMDL
