MODEL 1
REMARK VINA RESULT:      -8.0      0.000      0.000
REMARK  Name = 
REMARK  11 active torsions:
REMARK  status: ('A' for Active; 'I' for Inactive)
REMARK    1  A    between atoms: C_1  and  C_2
REMARK    2  A    between atoms: N_5  and  S_6
REMARK    3  A    between atoms: S_6  and  N_9
REMARK    4  A    between atoms: N_9  and  C_10
REMARK    5  A    between atoms: C_13  and  C_14
REMARK    6  A    between atoms: C_14  and  C_15
REMARK    7  A    between atoms: C_15  and  N_16
REMARK    8  A    between atoms: N_16  and  C_17
REMARK    9  A    between atoms: C_17  and  C_18
REMARK   10  A    between atoms: C_18  and  O_19
REMARK   11  A    between atoms: C_18  and  C_20
REMARK                            x       y       z     vdW  Elec       q    Type
REMARK                         _______ _______ _______ _____ _____    ______ ____
ROOT
ATOM      1  C   UNL     1       6.878   5.353  18.104  0.00  0.00    +0.000 A 
ATOM      2  C   UNL     1       6.458   6.185  17.072  0.00  0.00    +0.000 A 
ATOM      3  C   UNL     1       6.953   7.482  16.981  0.00  0.00    +0.000 A 
ATOM      4  C   UNL     1       7.863   7.970  17.928  0.00  0.00    +0.000 A 
ATOM      5  C   UNL     1       8.308   7.113  18.945  0.00  0.00    +0.000 A 
ATOM      6  C   UNL     1       7.825   5.802  19.027  0.00  0.00    +0.000 A 
ENDROOT
BRANCH   1   7
ATOM      7  N   UNL     1       6.410   3.997  18.131  0.00  0.00    +0.000 N 
ATOM      8  H   UNL     1       7.099   3.378  18.557  0.00  0.00    +0.000 HD
BRANCH   7   9
ATOM      9  S   UNL     1       4.986   3.810  19.015  0.00  0.00    +0.000 S 
ATOM     10  O   UNL     1       4.472   5.113  19.357  0.00  0.00    +0.000 OA
ATOM     11  O   UNL     1       5.216   2.794  20.020  0.00  0.00    +0.000 OA
BRANCH   9  16
ATOM     12  C   UNL     1       0.187   3.245  19.771  0.00  0.00    +0.000 C 
ATOM     13  C   UNL     1       1.183   2.909  18.661  0.00  0.00    +0.000 C 
ATOM     14  C   UNL     1       2.253   1.928  19.173  0.00  0.00    +0.000 C 
ATOM     15  C   UNL     1       3.436   1.782  18.215  0.00  0.00    +0.000 C 
ATOM     16  N   UNL     1       3.986   3.115  17.836  0.00  0.00    +0.000 NA
ATOM     17  C   UNL     1       2.952   3.936  17.175  0.00  0.00    +0.000 C 
ATOM     18  C   UNL     1       1.784   4.207  18.103  0.00  0.00    +0.000 C 
ENDBRANCH   9  16
ENDBRANCH   7   9
ENDBRANCH   1   7
BRANCH   4  19
ATOM     19  C   UNL     1       8.326   9.408  17.858  0.00  0.00    +0.000 C 
BRANCH  19  20
ATOM     20  C   UNL     1       9.126   9.766  19.118  0.00  0.00    +0.000 C 
BRANCH  20  21
ATOM     21  N   UNL     1       9.447  11.191  19.183  0.00  0.00    +0.000 NA
ATOM     22  H   UNL     1       9.993  11.379  20.027  0.00  0.00    +0.000 HD
BRANCH  21  23
ATOM     23  C   UNL     1      10.212  11.628  18.003  0.00  0.00    +0.000 C 
BRANCH  23  24
ATOM     24  C   UNL     1       9.951  13.086  17.527  0.00  0.00    +0.000 C 
BRANCH  24  25
ATOM     25  C   UNL     1       9.974  14.073  18.669  0.00  0.00    +0.000 A 
ATOM     26  C   UNL     1      11.117  14.314  19.440  0.00  0.00    +0.000 A 
ATOM     27  C   UNL     1      11.047  15.159  20.541  0.00  0.00    +0.000 A 
ATOM     28  C   UNL     1       9.832  15.748  20.842  0.00  0.00    +0.000 A 
ATOM     29  N   UNL     1       8.707  15.556  20.122  0.00  0.00    +0.000 NA
ATOM     30  C   UNL     1       8.805  14.724  19.060  0.00  0.00    +0.000 A 
ENDBRANCH  24  25
BRANCH  24  31
ATOM     31  O   UNL     1      10.906  13.447  16.525  0.00  0.00    +0.000 OA
ATOM     32  H   UNL     1      10.797  14.391  16.334  0.00  0.00    +0.000 HD
ENDBRANCH  24  31
ENDBRANCH  23  24
ENDBRANCH  21  23
ENDBRANCH  20  21
ENDBRANCH  19  20
ENDBRANCH   4  19
TORSDOF 10
ENDMDL
MODEL 2
REMARK VINA RESULT:      -7.8      1.879      2.334
REMARK  Name = 
REMARK  11 active torsions:
REMARK  status: ('A' for Active; 'I' for Inactive)
REMARK    1  A    between atoms: C_1  and  C_2
REMARK    2  A    between atoms: N_5  and  S_6
REMARK    3  A    between atoms: S_6  and  N_9
REMARK    4  A    between atoms: N_9  and  C_10
REMARK    5  A    between atoms: C_13  and  C_14
REMARK    6  A    between atoms: C_14  and  C_15
REMARK    7  A    between atoms: C_15  and  N_16
REMARK    8  A    between atoms: N_16  and  C_17
REMARK    9  A    between atoms: C_17  and  C_18
REMARK   10  A    between atoms: C_18  and  O_19
REMARK   11  A    between atoms: C_18  and  C_20
REMARK                            x       y       z     vdW  Elec       q    Type
REMARK                         _______ _______ _______ _____ _____    ______ ____
ROOT
ATOM      1  C   UNL     1       5.616   5.030  17.236  0.00  0.00    +0.000 A 
ATOM      2  C   UNL     1       5.359   6.376  16.997  0.00  0.00    +0.000 A 
ATOM      3  C   UNL     1       6.287   7.339  17.380  0.00  0.00    +0.000 A 
ATOM      4  C   UNL     1       7.478   6.971  18.019  0.00  0.00    +0.000 A 
ATOM      5  C   UNL     1       7.747   5.610  18.224  0.00  0.00    +0.000 A 
ATOM      6  C   UNL     1       6.822   4.640  17.822  0.00  0.00    +0.000 A 
ENDROOT
BRANCH   1   7
ATOM      7  N   UNL     1       4.677   4.055  16.764  0.00  0.00    +0.000 N 
ATOM      8  H   UNL     1       5.133   3.361  16.172  0.00  0.00    +0.000 HD
BRANCH   7   9
ATOM      9  S   UNL     1       3.930   3.202  18.013  0.00  0.00    +0.000 S 
ATOM     10  O   UNL     1       4.796   3.206  19.166  0.00  0.00    +0.000 OA
ATOM     11  O   UNL     1       3.405   1.972  17.459  0.00  0.00    +0.000 OA
BRANCH   9  16
ATOM     12  C   UNL     1       1.252   2.712  22.075  0.00  0.00    +0.000 C 
ATOM     13  C   UNL     1       1.224   3.593  20.826  0.00  0.00    +0.000 C 
ATOM     14  C   UNL     1       1.030   2.735  19.564  0.00  0.00    +0.000 C 
ATOM     15  C   UNL     1       1.286   3.510  18.271  0.00  0.00    +0.000 C 
ATOM     16  N   UNL     1       2.602   4.209  18.317  0.00  0.00    +0.000 NA
ATOM     17  C   UNL     1       2.646   5.161  19.445  0.00  0.00    +0.000 C 
ATOM     18  C   UNL     1       2.497   4.449  20.775  0.00  0.00    +0.000 C 
ENDBRANCH   9  16
ENDBRANCH   7   9
ENDBRANCH   1   7
BRANCH   4  19
ATOM     19  C   UNL     1       8.437   8.038  18.499  0.00  0.00    +0.000 C 
BRANCH  19  20
ATOM     20  C   UNL     1       8.101   9.384  17.843  0.00  0.00    +0.000 C 
BRANCH  20  21
ATOM     21  N   UNL     1       9.127  10.395  18.095  0.00  0.00    +0.000 NA
ATOM     22  H   UNL     1       8.928  11.229  17.539  0.00  0.00    +0.000 HD
BRANCH  21  23
ATOM     23  C   UNL     1       9.184  10.764  19.520  0.00  0.00    +0.000 C 
BRANCH  23  24
ATOM     24  C   UNL     1      10.483  11.485  19.982  0.00  0.00    +0.000 C 
BRANCH  24  25
ATOM     25  C   UNL     1      10.814  12.678  19.118  0.00  0.00    +0.000 A 
ATOM     26  C   UNL     1      12.038  12.817  18.453  0.00  0.00    +0.000 A 
ATOM     27  C   UNL     1      12.320  13.985  17.755  0.00  0.00    +0.000 A 
ATOM     28  C   UNL     1      11.366  14.987  17.736  0.00  0.00    +0.000 A 
ATOM     29  N   UNL     1      10.169  14.895  18.352  0.00  0.00    +0.000 NA
ATOM     30  C   UNL     1       9.925  13.748  19.028  0.00  0.00    +0.000 A 
ENDBRANCH  24  25
BRANCH  24  31
ATOM     31  O   UNL     1      10.362  11.869  21.355  0.00  0.00    +0.000 OA
ATOM     32  H   UNL     1       9.490  12.276  21.475  0.00  0.00    +0.000 HD
ENDBRANCH  24  31
ENDBRANCH  23  24
ENDBRANCH  21  23
ENDBRANCH  20  21
ENDBRANCH  19  20
ENDBRANCH   4  19
TORSDOF 10
ENDMDL
MODEL 3
REMARK VINA RESULT:      -7.8      6.781      9.690
REMARK  Name = 
REMARK  11 active torsions:
REMARK  status: ('A' for Active; 'I' for Inactive)
REMARK    1  A    between atoms: C_1  and  C_2
REMARK    2  A    between atoms: N_5  and  S_6
REMARK    3  A    between atoms: S_6  and  N_9
REMARK    4  A    between atoms: N_9  and  C_10
REMARK    5  A    between atoms: C_13  and  C_14
REMARK    6  A    between atoms: C_14  and  C_15
REMARK    7  A    between atoms: C_15  and  N_16
REMARK    8  A    between atoms: N_16  and  C_17
REMARK    9  A    between atoms: C_17  and  C_18
REMARK   10  A    between atoms: C_18  and  O_19
REMARK   11  A    between atoms: C_18  and  C_20
REMARK                            x       y       z     vdW  Elec       q    Type
REMARK                         _______ _______ _______ _____ _____    ______ ____
ROOT
ATOM      1  C   UNL     1       2.631   6.538  19.676  0.00  0.00    +0.000 A 
ATOM      2  C   UNL     1       2.905   6.931  18.370  0.00  0.00    +0.000 A 
ATOM      3  C   UNL     1       2.385   8.125  17.881  0.00  0.00    +0.000 A 
ATOM      4  C   UNL     1       1.574   8.937  18.686  0.00  0.00    +0.000 A 
ATOM      5  C   UNL     1       1.333   8.552  20.012  0.00  0.00    +0.000 A 
ATOM      6  C   UNL     1       1.870   7.360  20.511  0.00  0.00    +0.000 A 
ENDROOT
BRANCH   1   7
ATOM      7  N   UNL     1       3.240   5.341  20.177  0.00  0.00    +0.000 N 
ATOM      8  H   UNL     1       3.674   5.501  21.086  0.00  0.00    +0.000 HD
BRANCH   7   9
ATOM      9  S   UNL     1       2.139   4.081  20.388  0.00  0.00    +0.000 S 
ATOM     10  O   UNL     1       0.962   4.350  19.600  0.00  0.00    +0.000 OA
ATOM     11  O   UNL     1       2.057   3.794  21.805  0.00  0.00    +0.000 OA
BRANCH   9  16
ATOM     12  C   UNL     1       4.757   4.744  16.311  0.00  0.00    +0.000 C 
ATOM     13  C   UNL     1       4.415   3.573  17.232  0.00  0.00    +0.000 C 
ATOM     14  C   UNL     1       2.897   3.321  17.244  0.00  0.00    +0.000 C 
ATOM     15  C   UNL     1       2.459   2.369  18.358  0.00  0.00    +0.000 C 
ATOM     16  N   UNL     1       2.998   2.804  19.678  0.00  0.00    +0.000 NA
ATOM     17  C   UNL     1       4.475   2.840  19.651  0.00  0.00    +0.000 C 
ATOM     18  C   UNL     1       4.985   3.840  18.632  0.00  0.00    +0.000 C 
ENDBRANCH   9  16
ENDBRANCH   7   9
ENDBRANCH   1   7
BRANCH   4  19
ATOM     19  C   UNL     1       0.954  10.190  18.110  0.00  0.00    +0.000 C 
BRANCH  19  20
ATOM     20  C   UNL     1      -0.527  10.273  18.502  0.00  0.00    +0.000 C 
BRANCH  20  21
ATOM     21  N   UNL     1      -1.411  10.234  17.337  0.00  0.00    +0.000 NA
ATOM     22  H   UNL     1      -1.046   9.567  16.654  0.00  0.00    +0.000 HD
BRANCH  21  23
ATOM     23  C   UNL     1      -2.782   9.846  17.710  0.00  0.00    +0.000 C 
BRANCH  23  24
ATOM     24  C   UNL     1      -3.919  10.751  17.156  0.00  0.00    +0.000 C 
BRANCH  24  25
ATOM     25  C   UNL     1      -4.865  11.210  18.239  0.00  0.00    +0.000 A 
ATOM     26  C   UNL     1      -6.220  10.861  18.259  0.00  0.00    +0.000 A 
ATOM     27  C   UNL     1      -7.060  11.398  19.227  0.00  0.00    +0.000 A 
ATOM     28  C   UNL     1      -6.521  12.270  20.157  0.00  0.00    +0.000 A 
ATOM     29  N   UNL     1      -5.221  12.626  20.184  0.00  0.00    +0.000 NA
ATOM     30  C   UNL     1      -4.428  12.092  19.226  0.00  0.00    +0.000 A 
ENDBRANCH  24  25
BRANCH  24  31
ATOM     31  O   UNL     1      -3.354  11.870  16.466  0.00  0.00    +0.000 OA
ATOM     32  H   UNL     1      -3.533  12.666  16.991  0.00  0.00    +0.000 HD
ENDBRANCH  24  31
ENDBRANCH  23  24
ENDBRANCH  21  23
ENDBRANCH  20  21
ENDBRANCH  19  20
ENDBRANCH   4  19
TORSDOF 10
ENDMDL
MODEL 4
REMARK VINA RESULT:      -7.8      5.447      8.933
REMARK  Name = 
REMARK  11 active torsions:
REMARK  status: ('A' for Active; 'I' for Inactive)
REMARK    1  A    between atoms: C_1  and  C_2
REMARK    2  A    between atoms: N_5  and  S_6
REMARK    3  A    between atoms: S_6  and  N_9
REMARK    4  A    between atoms: N_9  and  C_10
REMARK    5  A    between atoms: C_13  and  C_14
REMARK    6  A    between atoms: C_14  and  C_15
REMARK    7  A    between atoms: C_15  and  N_16
REMARK    8  A    between atoms: N_16  and  C_17
REMARK    9  A    between atoms: C_17  and  C_18
REMARK   10  A    between atoms: C_18  and  O_19
REMARK   11  A    between atoms: C_18  and  C_20
REMARK                            x       y       z     vdW  Elec       q    Type
REMARK                         _______ _______ _______ _____ _____    ______ ____
ROOT
ATOM      1  C   UNL     1       2.399   5.765  18.606  0.00  0.00    +0.000 A 
ATOM      2  C   UNL     1       2.486   7.144  18.444  0.00  0.00    +0.000 A 
ATOM      3  C   UNL     1       2.127   7.989  19.489  0.00  0.00    +0.000 A 
ATOM      4  C   UNL     1       1.664   7.470  20.705  0.00  0.00    +0.000 A 
ATOM      5  C   UNL     1       1.613   6.079  20.873  0.00  0.00    +0.000 A 
ATOM      6  C   UNL     1       1.991   5.227  19.828  0.00  0.00    +0.000 A 
ENDROOT
BRANCH   1   7
ATOM      7  N   UNL     1       2.845   4.917  17.540  0.00  0.00    +0.000 N 
ATOM      8  H   UNL     1       3.036   5.456  16.696  0.00  0.00    +0.000 HD
BRANCH   7   9
ATOM      9  S   UNL     1       4.267   4.088  17.910  0.00  0.00    +0.000 S 
ATOM     10  O   UNL     1       4.004   2.671  17.884  0.00  0.00    +0.000 OA
ATOM     11  O   UNL     1       4.869   4.730  19.060  0.00  0.00    +0.000 OA
BRANCH   9  16
ATOM     12  C   UNL     1       7.971   7.259  18.295  0.00  0.00    +0.000 C 
ATOM     13  C   UNL     1       7.312   6.452  17.176  0.00  0.00    +0.000 C 
ATOM     14  C   UNL     1       5.841   6.869  17.002  0.00  0.00    +0.000 C 
ATOM     15  C   UNL     1       5.049   5.909  16.114  0.00  0.00    +0.000 C 
ATOM     16  N   UNL     1       5.216   4.499  16.567  0.00  0.00    +0.000 NA
ATOM     17  C   UNL     1       6.638   4.103  16.526  0.00  0.00    +0.000 C 
ATOM     18  C   UNL     1       7.476   4.953  17.462  0.00  0.00    +0.000 C 
ENDBRANCH   9  16
ENDBRANCH   7   9
ENDBRANCH   1   7
BRANCH   4  19
ATOM     19  C   UNL     1       1.203   8.407  21.799  0.00  0.00    +0.000 C 
BRANCH  19  20
ATOM     20  C   UNL     1       0.917   9.798  21.217  0.00  0.00    +0.000 C 
BRANCH  20  21
ATOM     21  N   UNL     1      -0.505  10.003  20.946  0.00  0.00    +0.000 NA
ATOM     22  H   UNL     1      -0.947  10.442  21.756  0.00  0.00    +0.000 HD
BRANCH  21  23
ATOM     23  C   UNL     1      -0.713  10.852  19.760  0.00  0.00    +0.000 C 
BRANCH  23  24
ATOM     24  C   UNL     1      -0.878  10.100  18.408  0.00  0.00    +0.000 C 
BRANCH  24  25
ATOM     25  C   UNL     1      -2.104  10.549  17.650  0.00  0.00    +0.000 A 
ATOM     26  C   UNL     1      -3.117  11.318  18.234  0.00  0.00    +0.000 A 
ATOM     27  C   UNL     1      -4.267  11.614  17.513  0.00  0.00    +0.000 A 
ATOM     28  C   UNL     1      -4.375  11.135  16.219  0.00  0.00    +0.000 A 
ATOM     29  N   UNL     1      -3.421  10.401  15.610  0.00  0.00    +0.000 NA
ATOM     30  C   UNL     1      -2.315  10.124  16.339  0.00  0.00    +0.000 A 
ENDBRANCH  24  25
BRANCH  24  31
ATOM     31  O   UNL     1       0.300  10.267  17.614  0.00  0.00    +0.000 OA
ATOM     32  H   UNL     1       0.063  10.794  16.835  0.00  0.00    +0.000 HD
ENDBRANCH  24  31
ENDBRANCH  23  24
ENDBRANCH  21  23
ENDBRANCH  20  21
ENDBRANCH  19  20
ENDBRANCH   4  19
TORSDOF 10
ENDMDL
MODEL 5
REMARK VINA RESULT:      -7.6      5.738      8.793
REMARK  Name = 
REMARK  11 active torsions:
REMARK  status: ('A' for Active; 'I' for Inactive)
REMARK    1  A    between atoms: C_1  and  C_2
REMARK    2  A    between atoms: N_5  and  S_6
REMARK    3  A    between atoms: S_6  and  N_9
REMARK    4  A    between atoms: N_9  and  C_10
REMARK    5  A    between atoms: C_13  and  C_14
REMARK    6  A    between atoms: C_14  and  C_15
REMARK    7  A    between atoms: C_15  and  N_16
REMARK    8  A    between atoms: N_16  and  C_17
REMARK    9  A    between atoms: C_17  and  C_18
REMARK   10  A    between atoms: C_18  and  O_19
REMARK   11  A    between atoms: C_18  and  C_20
REMARK                            x       y       z     vdW  Elec       q    Type
REMARK                         _______ _______ _______ _____ _____    ______ ____
ROOT
ATOM      1  C   UNL     1       2.469   6.012  18.696  0.00  0.00    +0.000 A 
ATOM      2  C   UNL     1       2.080   5.544  19.947  0.00  0.00    +0.000 A 
ATOM      3  C   UNL     1       1.633   6.439  20.913  0.00  0.00    +0.000 A 
ATOM      4  C   UNL     1       1.581   7.814  20.649  0.00  0.00    +0.000 A 
ATOM      5  C   UNL     1       1.941   8.273  19.374  0.00  0.00    +0.000 A 
ATOM      6  C   UNL     1       2.373   7.372  18.394  0.00  0.00    +0.000 A 
ENDROOT
BRANCH   1   7
ATOM      7  N   UNL     1       2.854   5.060  17.694  0.00  0.00    +0.000 N 
ATOM      8  H   UNL     1       2.988   5.512  16.790  0.00  0.00    +0.000 HD
BRANCH   7   9
ATOM      9  S   UNL     1       4.302   4.275  18.056  0.00  0.00    +0.000 S 
ATOM     10  O   UNL     1       4.073   2.852  18.068  0.00  0.00    +0.000 OA
ATOM     11  O   UNL     1       4.911   4.958  19.177  0.00  0.00    +0.000 OA
BRANCH   9  16
ATOM     12  C   UNL     1       8.073   7.377  18.334  0.00  0.00    +0.000 C 
ATOM     13  C   UNL     1       7.364   6.587  17.234  0.00  0.00    +0.000 C 
ATOM     14  C   UNL     1       5.896   7.032  17.109  0.00  0.00    +0.000 C 
ATOM     15  C   UNL     1       5.059   6.090  16.243  0.00  0.00    +0.000 C 
ATOM     16  N   UNL     1       5.215   4.675  16.685  0.00  0.00    +0.000 NA
ATOM     17  C   UNL     1       6.628   4.254  16.596  0.00  0.00    +0.000 C 
ATOM     18  C   UNL     1       7.510   5.084  17.508  0.00  0.00    +0.000 C 
ENDBRANCH   9  16
ENDBRANCH   7   9
ENDBRANCH   1   7
BRANCH   4  19
ATOM     19  C   UNL     1       1.168   8.777  21.739  0.00  0.00    +0.000 C 
BRANCH  19  20
ATOM     20  C   UNL     1       0.013   9.662  21.252  0.00  0.00    +0.000 C 
BRANCH  20  21
ATOM     21  N   UNL     1       0.281  11.085  21.456  0.00  0.00    +0.000 NA
ATOM     22  H   UNL     1       1.079  11.368  20.883  0.00  0.00    +0.000 HD
BRANCH  21  23
ATOM     23  C   UNL     1      -0.886  11.912  21.106  0.00  0.00    +0.000 C 
BRANCH  23  24
ATOM     24  C   UNL     1      -0.938  12.424  19.637  0.00  0.00    +0.000 C 
BRANCH  24  25
ATOM     25  C   UNL     1      -1.755  11.521  18.745  0.00  0.00    +0.000 A 
ATOM     26  C   UNL     1      -1.176  10.584  17.882  0.00  0.00    +0.000 A 
ATOM     27  C   UNL     1      -1.977   9.853  17.013  0.00  0.00    +0.000 A 
ATOM     28  C   UNL     1      -3.343  10.076  17.032  0.00  0.00    +0.000 A 
ATOM     29  N   UNL     1      -3.946  10.959  17.853  0.00  0.00    +0.000 NA
ATOM     30  C   UNL     1      -3.141  11.660  18.684  0.00  0.00    +0.000 A 
ENDBRANCH  24  25
BRANCH  24  31
ATOM     31  O   UNL     1      -1.445  13.762  19.609  0.00  0.00    +0.000 OA
ATOM     32  H   UNL     1      -0.691  14.368  19.664  0.00  0.00    +0.000 HD
ENDBRANCH  24  31
ENDBRANCH  23  24
ENDBRANCH  21  23
ENDBRANCH  20  21
ENDBRANCH  19  20
ENDBRANCH   4  19
TORSDOF 10
ENDMDL
MODEL 6
REMARK VINA RESULT:      -7.6      1.759      2.180
REMARK  Name = 
REMARK  11 active torsions:
REMARK  status: ('A' for Active; 'I' for Inactive)
REMARK    1  A    between atoms: C_1  and  C_2
REMARK    2  A    between atoms: N_5  and  S_6
REMARK    3  A    between atoms: S_6  and  N_9
REMARK    4  A    between atoms: N_9  and  C_10
REMARK    5  A    between atoms: C_13  and  C_14
REMARK    6  A    between atoms: C_14  and  C_15
REMARK    7  A    between atoms: C_15  and  N_16
REMARK    8  A    between atoms: N_16  and  C_17
REMARK    9  A    between atoms: C_17  and  C_18
REMARK   10  A    between atoms: C_18  and  O_19
REMARK   11  A    between atoms: C_18  and  C_20
REMARK                            x       y       z     vdW  Elec       q    Type
REMARK                         _______ _______ _______ _____ _____    ______ ____
ROOT
ATOM      1  C   UNL     1       5.826   4.911  17.161  0.00  0.00    +0.000 A 
ATOM      2  C   UNL     1       5.242   6.048  16.612  0.00  0.00    +0.000 A 
ATOM      3  C   UNL     1       5.866   7.284  16.751  0.00  0.00    +0.000 A 
ATOM      4  C   UNL     1       7.074   7.403  17.449  0.00  0.00    +0.000 A 
ATOM      5  C   UNL     1       7.675   6.246  17.968  0.00  0.00    +0.000 A 
ATOM      6  C   UNL     1       7.057   5.000  17.814  0.00  0.00    +0.000 A 
ENDROOT
BRANCH   1   7
ATOM      7  N   UNL     1       5.200   3.640  16.939  0.00  0.00    +0.000 N 
ATOM      8  H   UNL     1       5.886   2.933  16.676  0.00  0.00    +0.000 HD
BRANCH   7   9
ATOM      9  S   UNL     1       4.406   3.051  18.306  0.00  0.00    +0.000 S 
ATOM     10  O   UNL     1       5.215   3.317  19.469  0.00  0.00    +0.000 OA
ATOM     11  O   UNL     1       3.925   1.719  18.002  0.00  0.00    +0.000 OA
BRANCH   9  16
ATOM     12  C   UNL     1       1.094   2.773  21.893  0.00  0.00    +0.000 C 
ATOM     13  C   UNL     1       1.276   3.584  20.610  0.00  0.00    +0.000 C 
ATOM     14  C   UNL     1       1.288   2.657  19.382  0.00  0.00    +0.000 C 
ATOM     15  C   UNL     1       1.757   3.360  18.108  0.00  0.00    +0.000 C 
ATOM     16  N   UNL     1       3.051   4.067  18.331  0.00  0.00    +0.000 NA
ATOM     17  C   UNL     1       2.913   5.080  19.397  0.00  0.00    +0.000 C 
ATOM     18  C   UNL     1       2.544   4.441  20.722  0.00  0.00    +0.000 C 
ENDBRANCH   9  16
ENDBRANCH   7   9
ENDBRANCH   1   7
BRANCH   4  19
ATOM     19  C   UNL     1       7.694   8.766  17.657  0.00  0.00    +0.000 C 
BRANCH  19  20
ATOM     20  C   UNL     1       8.775   8.694  18.744  0.00  0.00    +0.000 C 
BRANCH  20  21
ATOM     21  N   UNL     1       8.982   9.981  19.405  0.00  0.00    +0.000 NA
ATOM     22  H   UNL     1       9.496   9.838  20.277  0.00  0.00    +0.000 HD
BRANCH  21  23
ATOM     23  C   UNL     1       9.733  10.916  18.549  0.00  0.00    +0.000 C 
BRANCH  23  24
ATOM     24  C   UNL     1      10.980  11.580  19.199  0.00  0.00    +0.000 C 
BRANCH  24  25
ATOM     25  C   UNL     1      11.072  13.054  18.886  0.00  0.00    +0.000 A 
ATOM     26  C   UNL     1      10.463  13.630  17.766  0.00  0.00    +0.000 A 
ATOM     27  C   UNL     1      10.668  14.974  17.479  0.00  0.00    +0.000 A 
ATOM     28  C   UNL     1      11.478  15.712  18.324  0.00  0.00    +0.000 A 
ATOM     29  N   UNL     1      12.076  15.204  19.421  0.00  0.00    +0.000 NA
ATOM     30  C   UNL     1      11.863  13.891  19.672  0.00  0.00    +0.000 A 
ENDBRANCH  24  25
BRANCH  24  31
ATOM     31  O   UNL     1      10.965  11.360  20.613  0.00  0.00    +0.000 OA
ATOM     32  H   UNL     1      11.869  11.476  20.943  0.00  0.00    +0.000 HD
ENDBRANCH  24  31
ENDBRANCH  23  24
ENDBRANCH  21  23
ENDBRANCH  20  21
ENDBRANCH  19  20
ENDBRANCH   4  19
TORSDOF 10
ENDMDL
MODEL 7
REMARK VINA RESULT:      -7.5      1.847      2.231
REMARK  Name = 
REMARK  11 active torsions:
REMARK  status: ('A' for Active; 'I' for Inactive)
REMARK    1  A    between atoms: C_1  and  C_2
REMARK    2  A    between atoms: N_5  and  S_6
REMARK    3  A    between atoms: S_6  and  N_9
REMARK    4  A    between atoms: N_9  and  C_10
REMARK    5  A    between atoms: C_13  and  C_14
REMARK    6  A    between atoms: C_14  and  C_15
REMARK    7  A    between atoms: C_15  and  N_16
REMARK    8  A    between atoms: N_16  and  C_17
REMARK    9  A    between atoms: C_17  and  C_18
REMARK   10  A    between atoms: C_18  and  O_19
REMARK   11  A    between atoms: C_18  and  C_20
REMARK                            x       y       z     vdW  Elec       q    Type
REMARK                         _______ _______ _______ _____ _____    ______ ____
ROOT
ATOM      1  C   UNL     1       6.026   5.335  17.336  0.00  0.00    +0.000 A 
ATOM      2  C   UNL     1       5.800   6.651  16.948  0.00  0.00    +0.000 A 
ATOM      3  C   UNL     1       6.682   7.652  17.344  0.00  0.00    +0.000 A 
ATOM      4  C   UNL     1       7.792   7.354  18.144  0.00  0.00    +0.000 A 
ATOM      5  C   UNL     1       8.033   6.019  18.501  0.00  0.00    +0.000 A 
ATOM      6  C   UNL     1       7.157   5.009  18.088  0.00  0.00    +0.000 A 
ENDROOT
BRANCH   1   7
ATOM      7  N   UNL     1       5.144   4.313  16.852  0.00  0.00    +0.000 N 
ATOM      8  H   UNL     1       5.655   3.603  16.329  0.00  0.00    +0.000 HD
BRANCH   7   9
ATOM      9  S   UNL     1       4.333   3.503  18.090  0.00  0.00    +0.000 S 
ATOM     10  O   UNL     1       5.141   3.540  19.283  0.00  0.00    +0.000 OA
ATOM     11  O   UNL     1       3.827   2.258  17.551  0.00  0.00    +0.000 OA
BRANCH   9  16
ATOM     12  C   UNL     1       1.138   2.798  21.725  0.00  0.00    +0.000 C 
ATOM     13  C   UNL     1       1.291   3.769  20.554  0.00  0.00    +0.000 C 
ATOM     14  C   UNL     1       1.246   3.012  19.215  0.00  0.00    +0.000 C 
ATOM     15  C   UNL     1       1.684   3.872  18.029  0.00  0.00    +0.000 C 
ATOM     16  N   UNL     1       2.997   4.526  18.297  0.00  0.00    +0.000 NA
ATOM     17  C   UNL     1       2.914   5.390  19.492  0.00  0.00    +0.000 C 
ATOM     18  C   UNL     1       2.577   4.587  20.733  0.00  0.00    +0.000 C 
ENDBRANCH   9  16
ENDBRANCH   7   9
ENDBRANCH   1   7
BRANCH   4  19
ATOM     19  C   UNL     1       8.693   8.468  18.630  0.00  0.00    +0.000 C 
BRANCH  19  20
ATOM     20  C   UNL     1       8.242   9.808  18.034  0.00  0.00    +0.000 C 
BRANCH  20  21
ATOM     21  N   UNL     1       9.360  10.730  17.838  0.00  0.00    +0.000 NA
ATOM     22  H   UNL     1       9.357  11.069  16.873  0.00  0.00    +0.000 HD
BRANCH  21  23
ATOM     23  C   UNL     1       9.282  11.879  18.755  0.00  0.00    +0.000 C 
BRANCH  23  24
ATOM     24  C   UNL     1       8.711  13.194  18.150  0.00  0.00    +0.000 C 
BRANCH  24  25
ATOM     25  C   UNL     1       9.792  14.202  17.848  0.00  0.00    +0.000 A 
ATOM     26  C   UNL     1       9.550  15.580  17.792  0.00  0.00    +0.000 A 
ATOM     27  C   UNL     1      10.566  16.448  17.410  0.00  0.00    +0.000 A 
ATOM     28  C   UNL     1      11.804  15.915  17.096  0.00  0.00    +0.000 A 
ATOM     29  N   UNL     1      12.087  14.598  17.146  0.00  0.00    +0.000 NA
ATOM     30  C   UNL     1      11.078  13.776  17.516  0.00  0.00    +0.000 A 
ENDBRANCH  24  25
BRANCH  24  31
ATOM     31  O   UNL     1       7.951  12.896  16.975  0.00  0.00    +0.000 OA
ATOM     32  H   UNL     1       7.642  11.979  17.044  0.00  0.00    +0.000 HD
ENDBRANCH  24  31
ENDBRANCH  23  24
ENDBRANCH  21  23
ENDBRANCH  20  21
ENDBRANCH  19  20
ENDBRANCH   4  19
TORSDOF 10
ENDMDL
MODEL 8
REMARK VINA RESULT:      -7.5      6.161      8.249
REMARK  Name = 
REMARK  11 active torsions:
REMARK  status: ('A' for Active; 'I' for Inactive)
REMARK    1  A    between atoms: C_1  and  C_2
REMARK    2  A    between atoms: N_5  and  S_6
REMARK    3  A    between atoms: S_6  and  N_9
REMARK    4  A    between atoms: N_9  and  C_10
REMARK    5  A    between atoms: C_13  and  C_14
REMARK    6  A    between atoms: C_14  and  C_15
REMARK    7  A    between atoms: C_15  and  N_16
REMARK    8  A    between atoms: N_16  and  C_17
REMARK    9  A    between atoms: C_17  and  C_18
REMARK   10  A    between atoms: C_18  and  O_19
REMARK   11  A    between atoms: C_18  and  C_20
REMARK                            x       y       z     vdW  Elec       q    Type
REMARK                         _______ _______ _______ _____ _____    ______ ____
ROOT
ATOM      1  C   UNL     1       2.611   6.176  19.945  0.00  0.00    +0.000 A 
ATOM      2  C   UNL     1       2.892   6.577  18.643  0.00  0.00    +0.000 A 
ATOM      3  C   UNL     1       2.393   7.785  18.166  0.00  0.00    +0.000 A 
ATOM      4  C   UNL     1       1.596   8.602  18.978  0.00  0.00    +0.000 A 
ATOM      5  C   UNL     1       1.348   8.209  20.301  0.00  0.00    +0.000 A 
ATOM      6  C   UNL     1       1.864   7.002  20.788  0.00  0.00    +0.000 A 
ENDROOT
BRANCH   1   7
ATOM      7  N   UNL     1       3.199   4.963  20.435  0.00  0.00    +0.000 N 
ATOM      8  H   UNL     1       3.679   5.119  21.321  0.00  0.00    +0.000 HD
BRANCH   7   9
ATOM      9  S   UNL     1       2.065   3.747  20.712  0.00  0.00    +0.000 S 
ATOM     10  O   UNL     1       0.847   4.073  20.013  0.00  0.00    +0.000 OA
ATOM     11  O   UNL     1       2.072   3.445  22.128  0.00  0.00    +0.000 OA
BRANCH   9  16
ATOM     12  C   UNL     1       4.513   4.377  16.525  0.00  0.00    +0.000 C 
ATOM     13  C   UNL     1       4.153   3.203  17.434  0.00  0.00    +0.000 C 
ATOM     14  C   UNL     1       2.626   3.031  17.516  0.00  0.00    +0.000 C 
ATOM     15  C   UNL     1       2.192   2.075  18.628  0.00  0.00    +0.000 C 
ATOM     16  N   UNL     1       2.818   2.446  19.929  0.00  0.00    +0.000 NA
ATOM     17  C   UNL     1       4.291   2.403  19.829  0.00  0.00    +0.000 C 
ATOM     18  C   UNL     1       4.804   3.402  18.810  0.00  0.00    +0.000 C 
ENDBRANCH   9  16
ENDBRANCH   7   9
ENDBRANCH   1   7
BRANCH   4  19
ATOM     19  C   UNL     1       0.998   9.872  18.415  0.00  0.00    +0.000 C 
BRANCH  19  20
ATOM     20  C   UNL     1       2.113  10.825  17.964  0.00  0.00    +0.000 C 
BRANCH  20  21
ATOM     21  N   UNL     1       1.717  12.229  18.070  0.00  0.00    +0.000 NA
ATOM     22  H   UNL     1       1.507  12.595  17.139  0.00  0.00    +0.000 HD
BRANCH  21  23
ATOM     23  C   UNL     1       0.536  12.395  18.934  0.00  0.00    +0.000 C 
BRANCH  23  24
ATOM     24  C   UNL     1      -0.697  13.077  18.275  0.00  0.00    +0.000 C 
BRANCH  24  25
ATOM     25  C   UNL     1      -1.846  12.117  18.082  0.00  0.00    +0.000 A 
ATOM     26  C   UNL     1      -1.932  11.249  16.988  0.00  0.00    +0.000 A 
ATOM     27  C   UNL     1      -3.064  10.462  16.814  0.00  0.00    +0.000 A 
ATOM     28  C   UNL     1      -4.084  10.560  17.743  0.00  0.00    +0.000 A 
ATOM     29  N   UNL     1      -4.041  11.374  18.819  0.00  0.00    +0.000 NA
ATOM     30  C   UNL     1      -2.930  12.132  18.959  0.00  0.00    +0.000 A 
ENDBRANCH  24  25
BRANCH  24  31
ATOM     31  O   UNL     1      -1.102  14.204  19.057  0.00  0.00    +0.000 OA
ATOM     32  H   UNL     1      -0.314  14.565  19.491  0.00  0.00    +0.000 HD
ENDBRANCH  24  31
ENDBRANCH  23  24
ENDBRANCH  21  23
ENDBRANCH  20  21
ENDBRANCH  19  20
ENDBRANCH   4  19
TORSDOF 10
ENDMDL
MODEL 9
REMARK VINA RESULT:      -7.5      5.425      7.489
REMARK  Name = 
REMARK  11 active torsions:
REMARK  status: ('A' for Active; 'I' for Inactive)
REMARK    1  A    between atoms: C_1  and  C_2
REMARK    2  A    between atoms: N_5  and  S_6
REMARK    3  A    between atoms: S_6  and  N_9
REMARK    4  A    between atoms: N_9  and  C_10
REMARK    5  A    between atoms: C_13  and  C_14
REMARK    6  A    between atoms: C_14  and  C_15
REMARK    7  A    between atoms: C_15  and  N_16
REMARK    8  A    between atoms: N_16  and  C_17
REMARK    9  A    between atoms: C_17  and  C_18
REMARK   10  A    between atoms: C_18  and  O_19
REMARK   11  A    between atoms: C_18  and  C_20
REMARK                            x       y       z     vdW  Elec       q    Type
REMARK                         _______ _______ _______ _____ _____    ______ ____
ROOT
ATOM      1  C   UNL     1       2.449   6.010  18.812  0.00  0.00    +0.000 A 
ATOM      2  C   UNL     1       2.460   7.346  18.426  0.00  0.00    +0.000 A 
ATOM      3  C   UNL     1       1.973   8.322  19.291  0.00  0.00    +0.000 A 
ATOM      4  C   UNL     1       1.457   7.975  20.546  0.00  0.00    +0.000 A 
ATOM      5  C   UNL     1       1.483   6.630  20.942  0.00  0.00    +0.000 A 
ATOM      6  C   UNL     1       1.989   5.649  20.080  0.00  0.00    +0.000 A 
ENDROOT
BRANCH   1   7
ATOM      7  N   UNL     1       3.024   5.035  17.932  0.00  0.00    +0.000 N 
ATOM      8  H   UNL     1       3.198   5.429  17.008  0.00  0.00    +0.000 HD
BRANCH   7   9
ATOM      9  S   UNL     1       4.503   4.442  18.485  0.00  0.00    +0.000 S 
ATOM     10  O   UNL     1       4.351   3.051  18.830  0.00  0.00    +0.000 OA
ATOM     11  O   UNL     1       5.046   5.404  19.421  0.00  0.00    +0.000 OA
BRANCH   9  16
ATOM     12  C   UNL     1       7.860   7.956  17.935  0.00  0.00    +0.000 C 
ATOM     13  C   UNL     1       7.304   6.809  17.090  0.00  0.00    +0.000 C 
ATOM     14  C   UNL     1       5.801   7.011  16.827  0.00  0.00    +0.000 C 
ATOM     15  C   UNL     1       5.125   5.768  16.247  0.00  0.00    +0.000 C 
ATOM     16  N   UNL     1       5.427   4.561  17.069  0.00  0.00    +0.000 NA
ATOM     17  C   UNL     1       6.882   4.317  17.120  0.00  0.00    +0.000 C 
ATOM     18  C   UNL     1       7.614   5.472  17.776  0.00  0.00    +0.000 C 
ENDBRANCH   9  16
ENDBRANCH   7   9
ENDBRANCH   1   7
BRANCH   4  19
ATOM     19  C   UNL     1       0.860   9.040  21.437  0.00  0.00    +0.000 C 
BRANCH  19  20
ATOM     20  C   UNL     1       0.843  10.390  20.707  0.00  0.00    +0.000 C 
BRANCH  20  21
ATOM     21  N   UNL     1      -0.485  10.727  20.197  0.00  0.00    +0.000 NA
ATOM     22  H   UNL     1      -0.858  11.525  20.715  0.00  0.00    +0.000 HD
BRANCH  21  23
ATOM     23  C   UNL     1      -0.446  11.057  18.762  0.00  0.00    +0.000 C 
BRANCH  23  24
ATOM     24  C   UNL     1      -0.978  12.467  18.375  0.00  0.00    +0.000 C 
BRANCH  24  25
ATOM     25  C   UNL     1       0.059  13.545  18.578  0.00  0.00    +0.000 A 
ATOM     26  C   UNL     1      -0.276  14.875  18.856  0.00  0.00    +0.000 A 
ATOM     27  C   UNL     1       0.722  15.840  18.933  0.00  0.00    +0.000 A 
ATOM     28  C   UNL     1       2.033  15.448  18.732  0.00  0.00    +0.000 A 
ATOM     29  N   UNL     1       2.405  14.178  18.473  0.00  0.00    +0.000 NA
ATOM     30  C   UNL     1       1.412  13.261  18.399  0.00  0.00    +0.000 A 
ENDBRANCH  24  25
BRANCH  24  31
ATOM     31  O   UNL     1      -1.441  12.455  17.021  0.00  0.00    +0.000 OA
ATOM     32  H   UNL     1      -2.032  11.694  16.915  0.00  0.00    +0.000 HD
ENDBRANCH  24  31
ENDBRANCH  23  24
ENDBRANCH  21  23
ENDBRANCH  20  21
ENDBRANCH  19  20
ENDBRANCH   4  19
TORSDOF 10
ENDMDL
