MODEL 1
REMARK VINA RESULT:      -8.9      0.000      0.000
REMARK  Name = 
REMARK  5 active torsions:
REMARK  status: ('A' for Active; 'I' for Inactive)
REMARK    1  A    between atoms: C_1  and  C_2
REMARK    2  A    between atoms: C_7  and  C_8
REMARK    3  A    between atoms: C_8  and  N_9
REMARK    4  A    between atoms: N_12  and  C_13
REMARK    5  A    between atoms: C_13  and  C_14
REMARK                            x       y       z     vdW  Elec       q    Type
REMARK                         _______ _______ _______ _____ _____    ______ ____
ROOT
ATOM      1  N   UNL     1       2.700   6.531  19.623  0.00  0.00    +0.000 N 
ATOM      2  C   UNL     1       1.821   7.525  20.100  0.00  0.00    +0.000 A 
ATOM      3  O   UNL     1       1.199   7.368  21.151  0.00  0.00    +0.000 OA
ATOM      4  N   UNL     1       1.719   8.710  19.365  0.00  0.00    +0.000 N 
ATOM      5  C   UNL     1       2.320   8.943  18.119  0.00  0.00    +0.000 A 
ATOM      6  O   UNL     1       2.200   9.990  17.488  0.00  0.00    +0.000 OA
ATOM      7  C   UNL     1       3.127   7.842  17.685  0.00  0.00    +0.000 A 
ATOM      8  O   UNL     1       3.806   7.829  16.506  0.00  0.00    +0.000 OA
ATOM      9  C   UNL     1       4.500   6.647  16.482  0.00  0.00    +0.000 A 
ATOM     10  C   UNL     1       5.336   6.226  15.449  0.00  0.00    +0.000 A 
ATOM     11  C   UNL     1       5.980   5.001  15.614  0.00  0.00    +0.000 A 
ATOM     12  C   UNL     1       5.801   4.243  16.769  0.00  0.00    +0.000 A 
ATOM     13  C   UNL     1       4.956   4.690  17.798  0.00  0.00    +0.000 A 
ATOM     14  C   UNL     1       4.270   5.915  17.648  0.00  0.00    +0.000 A 
ATOM     15  C   UNL     1       3.341   6.699  18.399  0.00  0.00    +0.000 A 
ENDROOT
BRANCH   1  16
ATOM     16  C   UNL     1       2.854   5.347  20.446  0.00  0.00    +0.000 C 
BRANCH  16  23
ATOM     17  C   UNL     1       4.362   2.463  20.381  0.00  0.00    +0.000 C 
ATOM     18  C   UNL     1       2.982   2.764  19.865  0.00  0.00    +0.000 A 
ATOM     19  C   UNL     1       2.321   1.680  19.245  0.00  0.00    +0.000 A 
ATOM     20  C   UNL     1       1.030   1.795  18.738  0.00  0.00    +0.000 A 
ATOM     21  C   UNL     1       0.363   3.003  18.841  0.00  0.00    +0.000 A 
ATOM     22  C   UNL     1       1.005   4.094  19.420  0.00  0.00    +0.000 A 
ATOM     23  C   UNL     1       2.329   4.016  19.921  0.00  0.00    +0.000 A 
ENDBRANCH  16  23
ENDBRANCH   1  16
BRANCH   4  24
ATOM     24  C   UNL     1       0.949   9.791  19.979  0.00  0.00    +0.000 C 
BRANCH  24  25
ATOM     25  C   UNL     1      -0.085  10.368  19.039  0.00  0.00    +0.000 A 
ATOM     26  C   UNL     1      -0.147  11.755  18.745  0.00  0.00    +0.000 A 
ATOM     27  C   UNL     1      -1.268  12.302  18.106  0.00  0.00    +0.000 A 
ATOM     28  C   UNL     1      -2.296  11.438  17.800  0.00  0.00    +0.000 A 
ATOM     29  C   UNL     1      -2.178  10.076  17.972  0.00  0.00    +0.000 A 
ATOM     30  C   UNL     1      -1.084   9.509  18.567  0.00  0.00    +0.000 A 
ATOM     31  O   UNL     1      -3.331   9.414  17.679  0.00  0.00    +0.000 OA
ATOM     32  C   UNL     1      -4.227  10.530  17.796  0.00  0.00    +0.000 C 
ATOM     33  O   UNL     1      -3.574  11.776  17.456  0.00  0.00    +0.000 OA
ENDBRANCH  24  25
ENDBRANCH   4  24
TORSDOF 4
ENDMDL
MODEL 2
REMARK VINA RESULT:      -8.8      1.346      4.149
REMARK  Name = 
REMARK  5 active torsions:
REMARK  status: ('A' for Active; 'I' for Inactive)
REMARK    1  A    between atoms: C_1  and  C_2
REMARK    2  A    between atoms: C_7  and  C_8
REMARK    3  A    between atoms: C_8  and  N_9
REMARK    4  A    between atoms: N_12  and  C_13
REMARK    5  A    between atoms: C_13  and  C_14
REMARK                            x       y       z     vdW  Elec       q    Type
REMARK                         _______ _______ _______ _____ _____    ______ ____
ROOT
ATOM      1  N   UNL     1       2.912   6.728  18.124  0.00  0.00    +0.000 N 
ATOM      2  C   UNL     1       2.620   8.105  18.052  0.00  0.00    +0.000 A 
ATOM      3  O   UNL     1       2.972   8.776  17.081  0.00  0.00    +0.000 OA
ATOM      4  N   UNL     1       1.879   8.668  19.095  0.00  0.00    +0.000 N 
ATOM      5  C   UNL     1       1.511   8.005  20.275  0.00  0.00    +0.000 A 
ATOM      6  O   UNL     1       0.871   8.531  21.183  0.00  0.00    +0.000 OA
ATOM      7  C   UNL     1       1.923   6.633  20.286  0.00  0.00    +0.000 A 
ATOM      8  O   UNL     1       1.686   5.787  21.324  0.00  0.00    +0.000 OA
ATOM      9  C   UNL     1       2.170   4.565  20.934  0.00  0.00    +0.000 A 
ATOM     10  C   UNL     1       2.128   3.402  21.700  0.00  0.00    +0.000 A 
ATOM     11  C   UNL     1       2.650   2.244  21.125  0.00  0.00    +0.000 A 
ATOM     12  C   UNL     1       3.174   2.255  19.834  0.00  0.00    +0.000 A 
ATOM     13  C   UNL     1       3.202   3.439  19.080  0.00  0.00    +0.000 A 
ATOM     14  C   UNL     1       2.705   4.633  19.647  0.00  0.00    +0.000 A 
ATOM     15  C   UNL     1       2.566   6.002  19.261  0.00  0.00    +0.000 A 
ENDROOT
BRANCH   1  16
ATOM     16  C   UNL     1       3.608   6.148  16.992  0.00  0.00    +0.000 C 
BRANCH  16  23
ATOM     17  C   UNL     1       5.432   4.361  14.973  0.00  0.00    +0.000 C 
ATOM     18  C   UNL     1       5.846   4.898  16.316  0.00  0.00    +0.000 A 
ATOM     19  C   UNL     1       7.141   4.527  16.740  0.00  0.00    +0.000 A 
ATOM     20  C   UNL     1       7.675   4.965  17.949  0.00  0.00    +0.000 A 
ATOM     21  C   UNL     1       6.924   5.791  18.767  0.00  0.00    +0.000 A 
ATOM     22  C   UNL     1       5.633   6.145  18.383  0.00  0.00    +0.000 A 
ATOM     23  C   UNL     1       5.051   5.694  17.172  0.00  0.00    +0.000 A 
ENDBRANCH  16  23
ENDBRANCH   1  16
BRANCH   4  24
ATOM     24  C   UNL     1       1.432  10.047  18.904  0.00  0.00    +0.000 C 
BRANCH  24  25
ATOM     25  C   UNL     1      -0.064  10.148  18.715  0.00  0.00    +0.000 A 
ATOM     26  C   UNL     1      -0.713   9.653  17.555  0.00  0.00    +0.000 A 
ATOM     27  C   UNL     1      -2.041  10.003  17.272  0.00  0.00    +0.000 A 
ATOM     28  C   UNL     1      -2.664  10.852  18.158  0.00  0.00    +0.000 A 
ATOM     29  C   UNL     1      -2.074  11.227  19.345  0.00  0.00    +0.000 A 
ATOM     30  C   UNL     1      -0.790  10.879  19.663  0.00  0.00    +0.000 A 
ATOM     31  O   UNL     1      -2.827  12.127  20.038  0.00  0.00    +0.000 OA
ATOM     32  C   UNL     1      -3.634  12.585  18.942  0.00  0.00    +0.000 C 
ATOM     33  O   UNL     1      -3.820  11.550  17.948  0.00  0.00    +0.000 OA
ENDBRANCH  24  25
ENDBRANCH   4  24
TORSDOF 4
ENDMDL
MODEL 3
REMARK VINA RESULT:      -8.6      3.319      9.253
REMARK  Name = 
REMARK  5 active torsions:
REMARK  status: ('A' for Active; 'I' for Inactive)
REMARK    1  A    between atoms: C_1  and  C_2
REMARK    2  A    between atoms: C_7  and  C_8
REMARK    3  A    between atoms: C_8  and  N_9
REMARK    4  A    between atoms: N_12  and  C_13
REMARK    5  A    between atoms: C_13  and  C_14
REMARK                            x       y       z     vdW  Elec       q    Type
REMARK                         _______ _______ _______ _____ _____    ______ ____
ROOT
ATOM      1  N   UNL     1      -1.784  12.656  19.843  0.00  0.00    +0.000 N 
ATOM      2  C   UNL     1      -0.453  12.313  19.529  0.00  0.00    +0.000 A 
ATOM      3  O   UNL     1       0.493  12.902  20.054  0.00  0.00    +0.000 OA
ATOM      4  N   UNL     1      -0.247  11.254  18.640  0.00  0.00    +0.000 N 
ATOM      5  C   UNL     1      -1.256  10.585  17.931  0.00  0.00    +0.000 A 
ATOM      6  O   UNL     1      -1.044   9.666  17.144  0.00  0.00    +0.000 OA
ATOM      7  C   UNL     1      -2.567  11.061  18.261  0.00  0.00    +0.000 A 
ATOM      8  O   UNL     1      -3.705  10.572  17.700  0.00  0.00    +0.000 OA
ATOM      9  C   UNL     1      -4.740  11.229  18.312  0.00  0.00    +0.000 A 
ATOM     10  C   UNL     1      -6.093  11.029  18.039  0.00  0.00    +0.000 A 
ATOM     11  C   UNL     1      -7.007  11.774  18.783  0.00  0.00    +0.000 A 
ATOM     12  C   UNL     1      -6.579  12.667  19.764  0.00  0.00    +0.000 A 
ATOM     13  C   UNL     1      -5.211  12.848  20.022  0.00  0.00    +0.000 A 
ATOM     14  C   UNL     1      -4.261  12.127  19.267  0.00  0.00    +0.000 A 
ATOM     15  C   UNL     1      -2.838  12.026  19.187  0.00  0.00    +0.000 A 
ENDROOT
BRANCH   1  16
ATOM     16  C   UNL     1      -1.973  13.701  20.830  0.00  0.00    +0.000 C 
BRANCH  16  23
ATOM     17  C   UNL     1      -1.419  11.221  22.866  0.00  0.00    +0.000 C 
ATOM     18  C   UNL     1      -2.483  12.275  23.007  0.00  0.00    +0.000 A 
ATOM     19  C   UNL     1      -3.347  12.115  24.113  0.00  0.00    +0.000 A 
ATOM     20  C   UNL     1      -4.366  13.022  24.390  0.00  0.00    +0.000 A 
ATOM     21  C   UNL     1      -4.546  14.119  23.566  0.00  0.00    +0.000 A 
ATOM     22  C   UNL     1      -3.725  14.281  22.452  0.00  0.00    +0.000 A 
ATOM     23  C   UNL     1      -2.697  13.362  22.128  0.00  0.00    +0.000 A 
ENDBRANCH  16  23
ENDBRANCH   1  16
BRANCH   4  24
ATOM     24  C   UNL     1       1.134  10.800  18.479  0.00  0.00    +0.000 C 
BRANCH  24  25
ATOM     25  C   UNL     1       1.326   9.369  18.926  0.00  0.00    +0.000 A 
ATOM     26  C   UNL     1       1.044   8.948  20.250  0.00  0.00    +0.000 A 
ATOM     27  C   UNL     1       1.489   7.703  20.717  0.00  0.00    +0.000 A 
ATOM     28  C   UNL     1       2.218   6.932  19.839  0.00  0.00    +0.000 A 
ATOM     29  C   UNL     1       2.381   7.289  18.519  0.00  0.00    +0.000 A 
ATOM     30  C   UNL     1       1.934   8.485  18.026  0.00  0.00    +0.000 A 
ATOM     31  O   UNL     1       3.195   6.430  17.845  0.00  0.00    +0.000 OA
ATOM     32  C   UNL     1       3.850   5.854  18.986  0.00  0.00    +0.000 C 
ATOM     33  O   UNL     1       2.989   5.848  20.149  0.00  0.00    +0.000 OA
ENDBRANCH  24  25
ENDBRANCH   4  24
TORSDOF 4
ENDMDL
MODEL 4
REMARK VINA RESULT:      -8.3      1.306      4.024
REMARK  Name = 
REMARK  5 active torsions:
REMARK  status: ('A' for Active; 'I' for Inactive)
REMARK    1  A    between atoms: C_1  and  C_2
REMARK    2  A    between atoms: C_7  and  C_8
REMARK    3  A    between atoms: C_8  and  N_9
REMARK    4  A    between atoms: N_12  and  C_13
REMARK    5  A    between atoms: C_13  and  C_14
REMARK                            x       y       z     vdW  Elec       q    Type
REMARK                         _______ _______ _______ _____ _____    ______ ____
ROOT
ATOM      1  N   UNL     1       2.903   6.951  18.082  0.00  0.00    +0.000 N 
ATOM      2  C   UNL     1       2.810   8.318  18.415  0.00  0.00    +0.000 A 
ATOM      3  O   UNL     1       3.381   9.175  17.739  0.00  0.00    +0.000 OA
ATOM      4  N   UNL     1       2.010   8.668  19.506  0.00  0.00    +0.000 N 
ATOM      5  C   UNL     1       1.394   7.761  20.381  0.00  0.00    +0.000 A 
ATOM      6  O   UNL     1       0.707   8.098  21.343  0.00  0.00    +0.000 OA
ATOM      7  C   UNL     1       1.615   6.397  20.003  0.00  0.00    +0.000 A 
ATOM      8  O   UNL     1       1.124   5.337  20.700  0.00  0.00    +0.000 OA
ATOM      9  C   UNL     1       1.492   4.219  19.997  0.00  0.00    +0.000 A 
ATOM     10  C   UNL     1       1.188   2.907  20.356  0.00  0.00    +0.000 A 
ATOM     11  C   UNL     1       1.628   1.897  19.501  0.00  0.00    +0.000 A 
ATOM     12  C   UNL     1       2.326   2.197  18.333  0.00  0.00    +0.000 A 
ATOM     13  C   UNL     1       2.617   3.528  17.991  0.00  0.00    +0.000 A 
ATOM     14  C   UNL     1       2.208   4.569  18.851  0.00  0.00    +0.000 A 
ATOM     15  C   UNL     1       2.307   5.994  18.899  0.00  0.00    +0.000 A 
ENDROOT
BRANCH   1  16
ATOM     16  C   UNL     1       3.670   6.620  16.897  0.00  0.00    +0.000 C 
BRANCH  16  23
ATOM     17  C   UNL     1       5.348   4.864  14.729  0.00  0.00    +0.000 C 
ATOM     18  C   UNL     1       5.760   5.175  16.142  0.00  0.00    +0.000 A 
ATOM     19  C   UNL     1       6.976   4.587  16.558  0.00  0.00    +0.000 A 
ATOM     20  C   UNL     1       7.501   4.800  17.829  0.00  0.00    +0.000 A 
ATOM     21  C   UNL     1       6.822   5.613  18.720  0.00  0.00    +0.000 A 
ATOM     22  C   UNL     1       5.607   6.179  18.342  0.00  0.00    +0.000 A 
ATOM     23  C   UNL     1       5.033   5.960  17.065  0.00  0.00    +0.000 A 
ENDBRANCH  16  23
ENDBRANCH   1  16
BRANCH   4  24
ATOM     24  C   UNL     1       1.781  10.098  19.713  0.00  0.00    +0.000 C 
BRANCH  24  25
ATOM     25  C   UNL     1       0.436  10.548  19.190  0.00  0.00    +0.000 A 
ATOM     26  C   UNL     1      -0.425  11.386  19.945  0.00  0.00    +0.000 A 
ATOM     27  C   UNL     1      -1.765  11.559  19.571  0.00  0.00    +0.000 A 
ATOM     28  C   UNL     1      -2.197  10.869  18.461  0.00  0.00    +0.000 A 
ATOM     29  C   UNL     1      -1.329  10.159  17.661  0.00  0.00    +0.000 A 
ATOM     30  C   UNL     1      -0.009   9.995  17.983  0.00  0.00    +0.000 A 
ATOM     31  O   UNL     1      -1.970   9.492  16.661  0.00  0.00    +0.000 OA
ATOM     32  C   UNL     1      -3.283   9.492  17.244  0.00  0.00    +0.000 C 
ATOM     33  O   UNL     1      -3.493  10.649  18.087  0.00  0.00    +0.000 OA
ENDBRANCH  24  25
ENDBRANCH   4  24
TORSDOF 4
ENDMDL
MODEL 5
REMARK VINA RESULT:      -8.2      3.407      9.519
REMARK  Name = 
REMARK  5 active torsions:
REMARK  status: ('A' for Active; 'I' for Inactive)
REMARK    1  A    between atoms: C_1  and  C_2
REMARK    2  A    between atoms: C_7  and  C_8
REMARK    3  A    between atoms: C_8  and  N_9
REMARK    4  A    between atoms: N_12  and  C_13
REMARK    5  A    between atoms: C_13  and  C_14
REMARK                            x       y       z     vdW  Elec       q    Type
REMARK                         _______ _______ _______ _____ _____    ______ ____
ROOT
ATOM      1  N   UNL     1      -1.847  12.791  19.781  0.00  0.00    +0.000 N 
ATOM      2  C   UNL     1      -0.512  12.446  19.485  0.00  0.00    +0.000 A 
ATOM      3  O   UNL     1       0.428  13.067  19.982  0.00  0.00    +0.000 OA
ATOM      4  N   UNL     1      -0.295  11.347  18.648  0.00  0.00    +0.000 N 
ATOM      5  C   UNL     1      -1.297  10.636  17.971  0.00  0.00    +0.000 A 
ATOM      6  O   UNL     1      -1.075   9.682  17.229  0.00  0.00    +0.000 OA
ATOM      7  C   UNL     1      -2.612  11.115  18.276  0.00  0.00    +0.000 A 
ATOM      8  O   UNL     1      -3.746  10.590  17.738  0.00  0.00    +0.000 OA
ATOM      9  C   UNL     1      -4.788  11.266  18.317  0.00  0.00    +0.000 A 
ATOM     10  C   UNL     1      -6.138  11.041  18.053  0.00  0.00    +0.000 A 
ATOM     11  C   UNL     1      -7.060  11.812  18.759  0.00  0.00    +0.000 A 
ATOM     12  C   UNL     1      -6.641  12.754  19.696  0.00  0.00    +0.000 A 
ATOM     13  C   UNL     1      -5.275  12.961  19.947  0.00  0.00    +0.000 A 
ATOM     14  C   UNL     1      -4.318  12.213  19.228  0.00  0.00    +0.000 A 
ATOM     15  C   UNL     1      -2.894  12.121  19.154  0.00  0.00    +0.000 A 
ENDROOT
BRANCH   1  16
ATOM     16  C   UNL     1      -2.046  13.880  20.717  0.00  0.00    +0.000 C 
BRANCH  16  23
ATOM     17  C   UNL     1      -4.247  15.773  22.190  0.00  0.00    +0.000 C 
ATOM     18  C   UNL     1      -3.756  14.434  22.666  0.00  0.00    +0.000 A 
ATOM     19  C   UNL     1      -4.279  14.006  23.906  0.00  0.00    +0.000 A 
ATOM     20  C   UNL     1      -3.938  12.779  24.467  0.00  0.00    +0.000 A 
ATOM     21  C   UNL     1      -3.063  11.942  23.797  0.00  0.00    +0.000 A 
ATOM     22  C   UNL     1      -2.511  12.356  22.587  0.00  0.00    +0.000 A 
ATOM     23  C   UNL     1      -2.817  13.610  22.003  0.00  0.00    +0.000 A 
ENDBRANCH  16  23
ENDBRANCH   1  16
BRANCH   4  24
ATOM     24  C   UNL     1       1.090  10.898  18.510  0.00  0.00    +0.000 C 
BRANCH  24  25
ATOM     25  C   UNL     1       1.279   9.465  18.952  0.00  0.00    +0.000 A 
ATOM     26  C   UNL     1       0.989   9.039  20.274  0.00  0.00    +0.000 A 
ATOM     27  C   UNL     1       1.430   7.792  20.738  0.00  0.00    +0.000 A 
ATOM     28  C   UNL     1       2.163   7.024  19.861  0.00  0.00    +0.000 A 
ATOM     29  C   UNL     1       2.334   7.386  18.543  0.00  0.00    +0.000 A 
ATOM     30  C   UNL     1       1.890   8.584  18.053  0.00  0.00    +0.000 A 
ATOM     31  O   UNL     1       3.151   6.529  17.870  0.00  0.00    +0.000 OA
ATOM     32  C   UNL     1       3.799   5.948  19.012  0.00  0.00    +0.000 C 
ATOM     33  O   UNL     1       2.931   5.938  20.170  0.00  0.00    +0.000 OA
ENDBRANCH  24  25
ENDBRANCH   4  24
TORSDOF 4
ENDMDL
MODEL 6
REMARK VINA RESULT:      -8.1      2.597      8.299
REMARK  Name = 
REMARK  5 active torsions:
REMARK  status: ('A' for Active; 'I' for Inactive)
REMARK    1  A    between atoms: C_1  and  C_2
REMARK    2  A    between atoms: C_7  and  C_8
REMARK    3  A    between atoms: C_8  and  N_9
REMARK    4  A    between atoms: N_12  and  C_13
REMARK    5  A    between atoms: C_13  and  C_14
REMARK                            x       y       z     vdW  Elec       q    Type
REMARK                         _______ _______ _______ _____ _____    ______ ____
ROOT
ATOM      1  N   UNL     1       1.852   8.850  18.669  0.00  0.00    +0.000 N 
ATOM      2  C   UNL     1       2.440   7.804  17.929  0.00  0.00    +0.000 A 
ATOM      3  O   UNL     1       2.811   7.981  16.768  0.00  0.00    +0.000 OA
ATOM      4  N   UNL     1       2.628   6.578  18.572  0.00  0.00    +0.000 N 
ATOM      5  C   UNL     1       2.162   6.259  19.857  0.00  0.00    +0.000 A 
ATOM      6  O   UNL     1       2.329   5.166  20.393  0.00  0.00    +0.000 OA
ATOM      7  C   UNL     1       1.508   7.363  20.494  0.00  0.00    +0.000 A 
ATOM      8  O   UNL     1       0.967   7.297  21.740  0.00  0.00    +0.000 OA
ATOM      9  C   UNL     1       0.499   8.555  22.016  0.00  0.00    +0.000 A 
ATOM     10  C   UNL     1      -0.131   8.937  23.200  0.00  0.00    +0.000 A 
ATOM     11  C   UNL     1      -0.518  10.272  23.310  0.00  0.00    +0.000 A 
ATOM     12  C   UNL     1      -0.269  11.181  22.284  0.00  0.00    +0.000 A 
ATOM     13  C   UNL     1       0.371  10.773  21.102  0.00  0.00    +0.000 A 
ATOM     14  C   UNL     1       0.751   9.422  20.951  0.00  0.00    +0.000 A 
ATOM     15  C   UNL     1       1.376   8.610  19.955  0.00  0.00    +0.000 A 
ENDROOT
BRANCH   1  16
ATOM     16  C   UNL     1       1.744  10.136  18.008  0.00  0.00    +0.000 C 
BRANCH  16  23
ATOM     17  C   UNL     1       1.054  13.272  18.545  0.00  0.00    +0.000 C 
ATOM     18  C   UNL     1       0.071  12.181  18.221  0.00  0.00    +0.000 A 
ATOM     19  C   UNL     1      -1.286  12.577  18.210  0.00  0.00    +0.000 A 
ATOM     20  C   UNL     1      -2.311  11.686  17.904  0.00  0.00    +0.000 A 
ATOM     21  C   UNL     1      -2.005  10.372  17.598  0.00  0.00    +0.000 A 
ATOM     22  C   UNL     1      -0.678   9.952  17.632  0.00  0.00    +0.000 A 
ATOM     23  C   UNL     1       0.386  10.827  17.965  0.00  0.00    +0.000 A 
ENDBRANCH  16  23
ENDBRANCH   1  16
BRANCH   4  24
ATOM     24  C   UNL     1       3.406   5.575  17.846  0.00  0.00    +0.000 C 
BRANCH  24  25
ATOM     25  C   UNL     1       4.895   5.760  18.023  0.00  0.00    +0.000 A 
ATOM     26  C   UNL     1       5.602   5.195  19.116  0.00  0.00    +0.000 A 
ATOM     27  C   UNL     1       6.908   5.606  19.415  0.00  0.00    +0.000 A 
ATOM     28  C   UNL     1       7.452   6.585  18.614  0.00  0.00    +0.000 A 
ATOM     29  C   UNL     1       6.812   7.039  17.482  0.00  0.00    +0.000 A 
ATOM     30  C   UNL     1       5.548   6.636  17.148  0.00  0.00    +0.000 A 
ATOM     31  O   UNL     1       7.485   8.057  16.878  0.00  0.00    +0.000 OA
ATOM     32  C   UNL     1       8.283   8.454  18.004  0.00  0.00    +0.000 C 
ATOM     33  O   UNL     1       8.561   7.337  18.880  0.00  0.00    +0.000 OA
ENDBRANCH  24  25
ENDBRANCH   4  24
TORSDOF 4
ENDMDL
MODEL 7
REMARK VINA RESULT:      -8.0      1.094      1.354
REMARK  Name = 
REMARK  5 active torsions:
REMARK  status: ('A' for Active; 'I' for Inactive)
REMARK    1  A    between atoms: C_1  and  C_2
REMARK    2  A    between atoms: C_7  and  C_8
REMARK    3  A    between atoms: C_8  and  N_9
REMARK    4  A    between atoms: N_12  and  C_13
REMARK    5  A    between atoms: C_13  and  C_14
REMARK                            x       y       z     vdW  Elec       q    Type
REMARK                         _______ _______ _______ _____ _____    ______ ____
ROOT
ATOM      1  N   UNL     1       2.208   7.029  19.690  0.00  0.00    +0.000 N 
ATOM      2  C   UNL     1       1.317   8.095  19.927  0.00  0.00    +0.000 A 
ATOM      3  O   UNL     1       0.515   8.054  20.861  0.00  0.00    +0.000 OA
ATOM      4  N   UNL     1       1.408   9.216  19.097  0.00  0.00    +0.000 N 
ATOM      5  C   UNL     1       2.226   9.317  17.961  0.00  0.00    +0.000 A 
ATOM      6  O   UNL     1       2.275  10.311  17.240  0.00  0.00    +0.000 OA
ATOM      7  C   UNL     1       3.035   8.151  17.762  0.00  0.00    +0.000 A 
ATOM      8  O   UNL     1       3.904   8.010  16.725  0.00  0.00    +0.000 OA
ATOM      9  C   UNL     1       4.526   6.803  16.915  0.00  0.00    +0.000 A 
ATOM     10  C   UNL     1       5.503   6.262  16.082  0.00  0.00    +0.000 A 
ATOM     11  C   UNL     1       6.041   5.030  16.450  0.00  0.00    +0.000 A 
ATOM     12  C   UNL     1       5.624   4.381  17.611  0.00  0.00    +0.000 A 
ATOM     13  C   UNL     1       4.640   4.948  18.437  0.00  0.00    +0.000 A 
ATOM     14  C   UNL     1       4.059   6.183  18.075  0.00  0.00    +0.000 A 
ATOM     15  C   UNL     1       3.058   7.065  18.588  0.00  0.00    +0.000 A 
ENDROOT
BRANCH   1  16
ATOM     16  C   UNL     1       2.153   5.914  20.616  0.00  0.00    +0.000 C 
BRANCH  16  23
ATOM     17  C   UNL     1       2.164   3.062  22.184  0.00  0.00    +0.000 C 
ATOM     18  C   UNL     1       1.774   3.294  20.750  0.00  0.00    +0.000 A 
ATOM     19  C   UNL     1       1.438   2.131  20.022  0.00  0.00    +0.000 A 
ATOM     20  C   UNL     1       1.034   2.186  18.691  0.00  0.00    +0.000 A 
ATOM     21  C   UNL     1       0.954   3.410  18.052  0.00  0.00    +0.000 A 
ATOM     22  C   UNL     1       1.310   4.567  18.741  0.00  0.00    +0.000 A 
ATOM     23  C   UNL     1       1.750   4.543  20.088  0.00  0.00    +0.000 A 
ENDBRANCH  16  23
ENDBRANCH   1  16
BRANCH   4  24
ATOM     24  C   UNL     1       0.605  10.376  19.479  0.00  0.00    +0.000 C 
BRANCH  24  25
ATOM     25  C   UNL     1      -0.796  10.321  18.913  0.00  0.00    +0.000 A 
ATOM     26  C   UNL     1      -1.078   9.734  17.653  0.00  0.00    +0.000 A 
ATOM     27  C   UNL     1      -2.314   9.940  17.027  0.00  0.00    +0.000 A 
ATOM     28  C   UNL     1      -3.219  10.745  17.682  0.00  0.00    +0.000 A 
ATOM     29  C   UNL     1      -2.990  11.209  18.959  0.00  0.00    +0.000 A 
ATOM     30  C   UNL     1      -1.804  11.000  19.608  0.00  0.00    +0.000 A 
ATOM     31  O   UNL     1      -3.973  12.046  19.392  0.00  0.00    +0.000 OA
ATOM     32  C   UNL     1      -4.509  12.392  18.106  0.00  0.00    +0.000 C 
ATOM     33  O   UNL     1      -4.340  11.317  17.151  0.00  0.00    +0.000 OA
ENDBRANCH  24  25
ENDBRANCH   4  24
TORSDOF 4
ENDMDL
MODEL 8
REMARK VINA RESULT:      -8.0      4.378      8.068
REMARK  Name = 
REMARK  5 active torsions:
REMARK  status: ('A' for Active; 'I' for Inactive)
REMARK    1  A    between atoms: C_1  and  C_2
REMARK    2  A    between atoms: C_7  and  C_8
REMARK    3  A    between atoms: C_8  and  N_9
REMARK    4  A    between atoms: N_12  and  C_13
REMARK    5  A    between atoms: C_13  and  C_14
REMARK                            x       y       z     vdW  Elec       q    Type
REMARK                         _______ _______ _______ _____ _____    ______ ____
ROOT
ATOM      1  N   UNL     1       0.089  12.512  19.843  0.00  0.00    +0.000 N 
ATOM      2  C   UNL     1      -0.571  13.279  20.824  0.00  0.00    +0.000 A 
ATOM      3  O   UNL     1      -0.850  14.462  20.620  0.00  0.00    +0.000 OA
ATOM      4  N   UNL     1      -0.939  12.640  22.011  0.00  0.00    +0.000 N 
ATOM      5  C   UNL     1      -0.590  11.328  22.364  0.00  0.00    +0.000 A 
ATOM      6  O   UNL     1      -0.916  10.796  23.423  0.00  0.00    +0.000 OA
ATOM      7  C   UNL     1       0.149  10.660  21.334  0.00  0.00    +0.000 A 
ATOM      8  O   UNL     1       0.604   9.383  21.446  0.00  0.00    +0.000 OA
ATOM      9  C   UNL     1       1.198   9.087  20.247  0.00  0.00    +0.000 A 
ATOM     10  C   UNL     1       1.797   7.871  19.925  0.00  0.00    +0.000 A 
ATOM     11  C   UNL     1       2.330   7.746  18.643  0.00  0.00    +0.000 A 
ATOM     12  C   UNL     1       2.250   8.791  17.725  0.00  0.00    +0.000 A 
ATOM     13  C   UNL     1       1.638  10.006  18.072  0.00  0.00    +0.000 A 
ATOM     14  C   UNL     1       1.113  10.171  19.372  0.00  0.00    +0.000 A 
ATOM     15  C   UNL     1       0.457  11.198  20.119  0.00  0.00    +0.000 A 
ENDROOT
BRANCH   1  16
ATOM     16  C   UNL     1       0.386  13.174  18.587  0.00  0.00    +0.000 C 
BRANCH  16  23
ATOM     17  C   UNL     1       0.413  16.428  18.505  0.00  0.00    +0.000 C 
ATOM     18  C   UNL     1       1.612  15.521  18.455  0.00  0.00    +0.000 A 
ATOM     19  C   UNL     1       2.855  16.173  18.302  0.00  0.00    +0.000 A 
ATOM     20  C   UNL     1       4.056  15.471  18.262  0.00  0.00    +0.000 A 
ATOM     21  C   UNL     1       4.045  14.093  18.378  0.00  0.00    +0.000 A 
ATOM     22  C   UNL     1       2.829  13.425  18.500  0.00  0.00    +0.000 A 
ATOM     23  C   UNL     1       1.587  14.109  18.517  0.00  0.00    +0.000 A 
ENDBRANCH  16  23
ENDBRANCH   1  16
BRANCH   4  24
ATOM     24  C   UNL     1      -1.784  13.405  22.927  0.00  0.00    +0.000 C 
BRANCH  24  25
ATOM     25  C   UNL     1      -3.258  13.208  22.652  0.00  0.00    +0.000 A 
ATOM     26  C   UNL     1      -3.899  13.785  21.527  0.00  0.00    +0.000 A 
ATOM     27  C   UNL     1      -5.298  13.828  21.442  0.00  0.00    +0.000 A 
ATOM     28  C   UNL     1      -6.003  13.304  22.502  0.00  0.00    +0.000 A 
ATOM     29  C   UNL     1      -5.379  12.633  23.532  0.00  0.00    +0.000 A 
ATOM     30  C   UNL     1      -4.017  12.550  23.627  0.00  0.00    +0.000 A 
ATOM     31  O   UNL     1      -6.249  12.261  24.512  0.00  0.00    +0.000 OA
ATOM     32  C   UNL     1      -7.303  13.182  24.191  0.00  0.00    +0.000 C 
ATOM     33  O   UNL     1      -7.327  13.493  22.778  0.00  0.00    +0.000 OA
ENDBRANCH  24  25
ENDBRANCH   4  24
TORSDOF 4
ENDMDL
MODEL 9
REMARK VINA RESULT:      -8.0      0.627      1.339
REMARK  Name = 
REMARK  5 active torsions:
REMARK  status: ('A' for Active; 'I' for Inactive)
REMARK    1  A    between atoms: C_1  and  C_2
REMARK    2  A    between atoms: C_7  and  C_8
REMARK    3  A    between atoms: C_8  and  N_9
REMARK    4  A    between atoms: N_12  and  C_13
REMARK    5  A    between atoms: C_13  and  C_14
REMARK                            x       y       z     vdW  Elec       q    Type
REMARK                         _______ _______ _______ _____ _____    ______ ____
ROOT
ATOM      1  N   UNL     1       2.752   6.487  19.486  0.00  0.00    +0.000 N 
ATOM      2  C   UNL     1       1.849   7.443  19.994  0.00  0.00    +0.000 A 
ATOM      3  O   UNL     1       1.212   7.227  21.026  0.00  0.00    +0.000 OA
ATOM      4  N   UNL     1       1.738   8.659  19.313  0.00  0.00    +0.000 N 
ATOM      5  C   UNL     1       2.356   8.960  18.090  0.00  0.00    +0.000 A 
ATOM      6  O   UNL     1       2.229  10.034  17.506  0.00  0.00    +0.000 OA
ATOM      7  C   UNL     1       3.188   7.894  17.618  0.00  0.00    +0.000 A 
ATOM      8  O   UNL     1       3.886   7.947  16.451  0.00  0.00    +0.000 OA
ATOM      9  C   UNL     1       4.600   6.779  16.384  0.00  0.00    +0.000 A 
ATOM     10  C   UNL     1       5.460   6.420  15.347  0.00  0.00    +0.000 A 
ATOM     11  C   UNL     1       6.121   5.199  15.465  0.00  0.00    +0.000 A 
ATOM     12  C   UNL     1       5.936   4.385  16.581  0.00  0.00    +0.000 A 
ATOM     13  C   UNL     1       5.067   4.770  17.615  0.00  0.00    +0.000 A 
ATOM     14  C   UNL     1       4.364   5.989  17.511  0.00  0.00    +0.000 A 
ATOM     15  C   UNL     1       3.409   6.722  18.282  0.00  0.00    +0.000 A 
ENDROOT
BRANCH   1  16
ATOM     16  C   UNL     1       2.912   5.268  20.255  0.00  0.00    +0.000 C 
BRANCH  16  23
ATOM     17  C   UNL     1       1.084   4.261  17.757  0.00  0.00    +0.000 C 
ATOM     18  C   UNL     1       2.167   3.478  18.448  0.00  0.00    +0.000 A 
ATOM     19  C   UNL     1       2.348   2.157  17.979  0.00  0.00    +0.000 A 
ATOM     20  C   UNL     1       3.327   1.317  18.502  0.00  0.00    +0.000 A 
ATOM     21  C   UNL     1       4.155   1.779  19.510  0.00  0.00    +0.000 A 
ATOM     22  C   UNL     1       3.975   3.067  20.009  0.00  0.00    +0.000 A 
ATOM     23  C   UNL     1       2.971   3.937  19.516  0.00  0.00    +0.000 A 
ENDBRANCH  16  23
ENDBRANCH   1  16
BRANCH   4  24
ATOM     24  C   UNL     1       0.941   9.698  19.963  0.00  0.00    +0.000 C 
BRANCH  24  25
ATOM     25  C   UNL     1      -0.081  10.309  19.031  0.00  0.00    +0.000 A 
ATOM     26  C   UNL     1      -0.133  11.703  18.778  0.00  0.00    +0.000 A 
ATOM     27  C   UNL     1      -1.245  12.276  18.145  0.00  0.00    +0.000 A 
ATOM     28  C   UNL     1      -2.274  11.427  17.805  0.00  0.00    +0.000 A 
ATOM     29  C   UNL     1      -2.166  10.060  17.938  0.00  0.00    +0.000 A 
ATOM     30  C   UNL     1      -1.081   9.469  18.526  0.00  0.00    +0.000 A 
ATOM     31  O   UNL     1      -3.320   9.414  17.616  0.00  0.00    +0.000 OA
ATOM     32  C   UNL     1      -4.211  10.531  17.757  0.00  0.00    +0.000 C 
ATOM     33  O   UNL     1      -3.548  11.782  17.460  0.00  0.00    +0.000 OA
ENDBRANCH  24  25
ENDBRANCH   4  24
TORSDOF 4
ENDMDL
