MODEL 1
REMARK VINA RESULT:      -7.5      0.000      0.000
REMARK  Name = 
REMARK  6 active torsions:
REMARK  status: ('A' for Active; 'I' for Inactive)
REMARK    1  A    between atoms: C_1  and  O_2
REMARK    2  A    between atoms: O_2  and  C_3
REMARK    3  A    between atoms: C_5  and  O_6
REMARK    4  A    between atoms: O_6  and  C_7
REMARK    5  A    between atoms: C_9  and  N_10
REMARK    6  A    between atoms: C_12  and  C_13
REMARK                            x       y       z     vdW  Elec       q    Type
REMARK                         _______ _______ _______ _____ _____    ______ ____
ROOT
ATOM      1  N   UNL     1       0.358  12.772  19.275  0.00  0.00    +0.000 N 
ATOM      2  N   UNL     1      -0.688  13.382  19.927  0.00  0.00    +0.000 NA
ATOM      3  C   UNL     1      -1.735  12.632  20.130  0.00  0.00    +0.000 A 
ATOM      4  C   UNL     1      -2.173  11.717  19.086  0.00  0.00    +0.000 A 
ATOM      5  C   UNL     1      -3.505  11.525  18.726  0.00  0.00    +0.000 A 
ATOM      6  C   UNL     1      -3.785  10.606  17.711  0.00  0.00    +0.000 A 
ATOM      7  C   UNL     1      -2.742   9.895  17.113  0.00  0.00    +0.000 A 
ATOM      8  C   UNL     1      -1.404  10.108  17.494  0.00  0.00    +0.000 A 
ATOM      9  C   UNL     1      -1.126  11.059  18.471  0.00  0.00    +0.000 A 
ATOM     10  C   UNL     1       0.256  11.443  18.824  0.00  0.00    +0.000 A 
ATOM     11  O   UNL     1       1.168  10.647  18.657  0.00  0.00    +0.000 OA
ENDROOT
BRANCH   3  12
ATOM     12  C   UNL     1      -2.139  12.295  21.564  0.00  0.00    +0.000 C 
ATOM     13  O   UNL     1      -1.389  11.551  22.198  0.00  0.00    +0.000 OA
ATOM     14  N   UNL     1      -3.189  12.995  22.154  0.00  0.00    +0.000 N 
ATOM     15  C   UNL     1      -3.243  13.106  23.607  0.00  0.00    +0.000 C 
ATOM     16  C   UNL     1      -4.590  12.602  24.112  0.00  0.00    +0.000 C 
ATOM     17  C   UNL     1      -5.732  13.318  23.406  0.00  0.00    +0.000 C 
ATOM     18  C   UNL     1      -5.596  13.255  21.889  0.00  0.00    +0.000 C 
ATOM     19  C   UNL     1      -4.233  13.730  21.446  0.00  0.00    +0.000 C 
ATOM     20  O   UNL     1      -5.764  14.691  23.827  0.00  0.00    +0.000 OA
ATOM     21  C   UNL     1      -7.152  15.002  23.912  0.00  0.00    +0.000 C 
ATOM     22  C   UNL     1      -7.777  13.699  24.329  0.00  0.00    +0.000 C 
ATOM     23  O   UNL     1      -6.978  12.688  23.727  0.00  0.00    +0.000 OA
ENDBRANCH   3  12
BRANCH   1  28
ATOM     24  C   UNL     1       3.238  15.119  18.813  0.00  0.00    +0.000 A 
ATOM     25  C   UNL     1       3.870  14.949  20.046  0.00  0.00    +0.000 A 
ATOM     26  C   UNL     1       3.423  14.002  20.968  0.00  0.00    +0.000 A 
ATOM     27  C   UNL     1       2.309  13.226  20.654  0.00  0.00    +0.000 A 
ATOM     28  C   UNL     1       1.591  13.462  19.463  0.00  0.00    +0.000 A 
ATOM     29  C   UNL     1       2.085  14.386  18.529  0.00  0.00    +0.000 A 
BRANCH  24  31
ATOM     30  C   UNL     1       3.024  16.785  17.122  0.00  0.00    +0.000 C 
ATOM     31  O   UNL     1       3.849  16.034  18.001  0.00  0.00    +0.000 OA
ENDBRANCH  24  31
BRANCH  26  32
ATOM     32  O   UNL     1       4.155  13.954  22.119  0.00  0.00    +0.000 OA
ATOM     33  C   UNL     1       4.334  15.161  22.845  0.00  0.00    +0.000 C 
ENDBRANCH  26  32
ENDBRANCH   1  28
TORSDOF 4
ENDMDL
MODEL 2
REMARK VINA RESULT:      -7.5      0.616      1.938
REMARK  Name = 
REMARK  6 active torsions:
REMARK  status: ('A' for Active; 'I' for Inactive)
REMARK    1  A    between atoms: C_1  and  O_2
REMARK    2  A    between atoms: O_2  and  C_3
REMARK    3  A    between atoms: C_5  and  O_6
REMARK    4  A    between atoms: O_6  and  C_7
REMARK    5  A    between atoms: C_9  and  N_10
REMARK    6  A    between atoms: C_12  and  C_13
REMARK                            x       y       z     vdW  Elec       q    Type
REMARK                         _______ _______ _______ _____ _____    ______ ____
ROOT
ATOM      1  N   UNL     1       0.280  12.730  19.358  0.00  0.00    +0.000 N 
ATOM      2  N   UNL     1      -0.780  13.336  19.991  0.00  0.00    +0.000 NA
ATOM      3  C   UNL     1      -1.838  12.590  20.150  0.00  0.00    +0.000 A 
ATOM      4  C   UNL     1      -2.252  11.698  19.078  0.00  0.00    +0.000 A 
ATOM      5  C   UNL     1      -3.576  11.523  18.677  0.00  0.00    +0.000 A 
ATOM      6  C   UNL     1      -3.833  10.625  17.638  0.00  0.00    +0.000 A 
ATOM      7  C   UNL     1      -2.780   9.918  17.056  0.00  0.00    +0.000 A 
ATOM      8  C   UNL     1      -1.451  10.113  17.478  0.00  0.00    +0.000 A 
ATOM      9  C   UNL     1      -1.193  11.043  18.480  0.00  0.00    +0.000 A 
ATOM     10  C   UNL     1       0.181  11.410  18.879  0.00  0.00    +0.000 A 
ATOM     11  O   UNL     1       1.092  10.611  18.723  0.00  0.00    +0.000 OA
ENDROOT
BRANCH   3  12
ATOM     12  C   UNL     1      -2.284  12.229  21.567  0.00  0.00    +0.000 C 
ATOM     13  O   UNL     1      -1.587  11.425  22.187  0.00  0.00    +0.000 OA
ATOM     14  N   UNL     1      -3.304  12.968  22.163  0.00  0.00    +0.000 N 
ATOM     15  C   UNL     1      -3.377  13.034  23.619  0.00  0.00    +0.000 C 
ATOM     16  C   UNL     1      -4.758  12.590  24.085  0.00  0.00    +0.000 C 
ATOM     17  C   UNL     1      -5.847  13.391  23.386  0.00  0.00    +0.000 C 
ATOM     18  C   UNL     1      -5.688  13.369  21.870  0.00  0.00    +0.000 C 
ATOM     19  C   UNL     1      -4.294  13.782  21.464  0.00  0.00    +0.000 C 
ATOM     20  O   UNL     1      -5.810  14.748  23.852  0.00  0.00    +0.000 OA
ATOM     21  C   UNL     1      -7.181  15.134  23.926  0.00  0.00    +0.000 C 
ATOM     22  C   UNL     1      -7.882  13.854  24.290  0.00  0.00    +0.000 C 
ATOM     23  O   UNL     1      -7.130  12.821  23.667  0.00  0.00    +0.000 OA
ENDBRANCH   3  12
BRANCH   1  28
ATOM     24  C   UNL     1       3.323  14.115  21.042  0.00  0.00    +0.000 A 
ATOM     25  C   UNL     1       4.048  14.508  19.914  0.00  0.00    +0.000 A 
ATOM     26  C   UNL     1       3.503  14.421  18.634  0.00  0.00    +0.000 A 
ATOM     27  C   UNL     1       2.215  13.912  18.479  0.00  0.00    +0.000 A 
ATOM     28  C   UNL     1       1.512  13.407  19.593  0.00  0.00    +0.000 A 
ATOM     29  C   UNL     1       2.060  13.547  20.878  0.00  0.00    +0.000 A 
BRANCH  24  31
ATOM     30  C   UNL     1       4.899  15.416  22.269  0.00  0.00    +0.000 C 
ATOM     31  O   UNL     1       3.976  14.337  22.222  0.00  0.00    +0.000 OA
ENDBRANCH  24  31
BRANCH  26  32
ATOM     32  O   UNL     1       4.335  14.855  17.641  0.00  0.00    +0.000 OA
ATOM     33  C   UNL     1       5.734  14.797  17.875  0.00  0.00    +0.000 C 
ENDBRANCH  26  32
ENDBRANCH   1  28
TORSDOF 4
ENDMDL
MODEL 3
REMARK VINA RESULT:      -7.4      7.466     11.447
REMARK  Name = 
REMARK  6 active torsions:
REMARK  status: ('A' for Active; 'I' for Inactive)
REMARK    1  A    between atoms: C_1  and  O_2
REMARK    2  A    between atoms: O_2  and  C_3
REMARK    3  A    between atoms: C_5  and  O_6
REMARK    4  A    between atoms: O_6  and  C_7
REMARK    5  A    between atoms: C_9  and  N_10
REMARK    6  A    between atoms: C_12  and  C_13
REMARK                            x       y       z     vdW  Elec       q    Type
REMARK                         _______ _______ _______ _____ _____    ______ ____
ROOT
ATOM      1  N   UNL     1       2.441   6.366  19.263  0.00  0.00    +0.000 N 
ATOM      2  N   UNL     1       3.593   6.115  19.970  0.00  0.00    +0.000 NA
ATOM      3  C   UNL     1       4.212   5.009  19.659  0.00  0.00    +0.000 A 
ATOM      4  C   UNL     1       3.437   3.808  19.391  0.00  0.00    +0.000 A 
ATOM      5  C   UNL     1       3.777   2.539  19.858  0.00  0.00    +0.000 A 
ATOM      6  C   UNL     1       2.946   1.470  19.517  0.00  0.00    +0.000 A 
ATOM      7  C   UNL     1       1.831   1.689  18.706  0.00  0.00    +0.000 A 
ATOM      8  C   UNL     1       1.507   2.979  18.248  0.00  0.00    +0.000 A 
ATOM      9  C   UNL     1       2.309   4.050  18.630  0.00  0.00    +0.000 A 
ATOM     10  C   UNL     1       1.959   5.449  18.310  0.00  0.00    +0.000 A 
ATOM     11  O   UNL     1       1.269   5.694  17.332  0.00  0.00    +0.000 OA
ENDROOT
BRANCH   3  12
ATOM     12  C   UNL     1       5.607   5.089  19.042  0.00  0.00    +0.000 C 
ATOM     13  O   UNL     1       6.537   5.385  19.794  0.00  0.00    +0.000 OA
ATOM     14  N   UNL     1       5.801   4.622  17.743  0.00  0.00    +0.000 N 
ATOM     15  C   UNL     1       7.130   4.177  17.338  0.00  0.00    +0.000 C 
ATOM     16  C   UNL     1       7.563   4.930  16.085  0.00  0.00    +0.000 C 
ATOM     17  C   UNL     1       6.518   4.797  14.988  0.00  0.00    +0.000 C 
ATOM     18  C   UNL     1       5.127   5.188  15.473  0.00  0.00    +0.000 C 
ATOM     19  C   UNL     1       4.761   4.441  16.734  0.00  0.00    +0.000 C 
ATOM     20  O   UNL     1       6.496   3.441  14.515  0.00  0.00    +0.000 OA
ATOM     21  C   UNL     1       6.283   3.560  13.110  0.00  0.00    +0.000 C 
ATOM     22  C   UNL     1       6.979   4.847  12.760  0.00  0.00    +0.000 C 
ATOM     23  O   UNL     1       6.831   5.679  13.904  0.00  0.00    +0.000 OA
ENDBRANCH   3  12
BRANCH   1  28
ATOM     24  C   UNL     1       1.888   9.956  18.352  0.00  0.00    +0.000 A 
ATOM     25  C   UNL     1       1.036  10.326  19.394  0.00  0.00    +0.000 A 
ATOM     26  C   UNL     1       0.737   9.447  20.435  0.00  0.00    +0.000 A 
ATOM     27  C   UNL     1       1.286   8.167  20.420  0.00  0.00    +0.000 A 
ATOM     28  C   UNL     1       2.058   7.738  19.319  0.00  0.00    +0.000 A 
ATOM     29  C   UNL     1       2.385   8.652  18.306  0.00  0.00    +0.000 A 
BRANCH  24  31
ATOM     30  C   UNL     1       2.577  12.206  17.974  0.00  0.00    +0.000 C 
ATOM     31  O   UNL     1       2.135  10.959  17.457  0.00  0.00    +0.000 OA
ENDBRANCH  24  31
BRANCH  26  32
ATOM     32  O   UNL     1      -0.102   9.966  21.380  0.00  0.00    +0.000 OA
ATOM     33  C   UNL     1      -0.238   9.263  22.606  0.00  0.00    +0.000 C 
ENDBRANCH  26  32
ENDBRANCH   1  28
TORSDOF 4
ENDMDL
MODEL 4
REMARK VINA RESULT:      -7.4      3.915      9.474
REMARK  Name = 
REMARK  6 active torsions:
REMARK  status: ('A' for Active; 'I' for Inactive)
REMARK    1  A    between atoms: C_1  and  O_2
REMARK    2  A    between atoms: O_2  and  C_3
REMARK    3  A    between atoms: C_5  and  O_6
REMARK    4  A    between atoms: O_6  and  C_7
REMARK    5  A    between atoms: C_9  and  N_10
REMARK    6  A    between atoms: C_12  and  C_13
REMARK                            x       y       z     vdW  Elec       q    Type
REMARK                         _______ _______ _______ _____ _____    ______ ____
ROOT
ATOM      1  N   UNL     1       0.762  13.918  19.003  0.00  0.00    +0.000 N 
ATOM      2  N   UNL     1       2.091  14.042  18.670  0.00  0.00    +0.000 NA
ATOM      3  C   UNL     1       2.552  15.262  18.650  0.00  0.00    +0.000 A 
ATOM      4  C   UNL     1       1.728  16.329  18.104  0.00  0.00    +0.000 A 
ATOM      5  C   UNL     1       2.209  17.337  17.270  0.00  0.00    +0.000 A 
ATOM      6  C   UNL     1       1.308  18.306  16.825  0.00  0.00    +0.000 A 
ATOM      7  C   UNL     1      -0.023  18.259  17.243  0.00  0.00    +0.000 A 
ATOM      8  C   UNL     1      -0.486  17.231  18.085  0.00  0.00    +0.000 A 
ATOM      9  C   UNL     1       0.404  16.240  18.487  0.00  0.00    +0.000 A 
ATOM     10  C   UNL     1      -0.033  15.053  19.251  0.00  0.00    +0.000 A 
ATOM     11  O   UNL     1      -1.027  15.119  19.958  0.00  0.00    +0.000 OA
ENDROOT
BRANCH   3  12
ATOM     12  C   UNL     1       3.634  15.661  19.653  0.00  0.00    +0.000 C 
ATOM     13  O   UNL     1       3.263  16.231  20.680  0.00  0.00    +0.000 OA
ATOM     14  N   UNL     1       4.930  15.183  19.476  0.00  0.00    +0.000 N 
ATOM     15  C   UNL     1       5.812  15.073  20.633  0.00  0.00    +0.000 C 
ATOM     16  C   UNL     1       7.105  15.836  20.368  0.00  0.00    +0.000 C 
ATOM     17  C   UNL     1       7.747  15.373  19.069  0.00  0.00    +0.000 C 
ATOM     18  C   UNL     1       6.770  15.420  17.900  0.00  0.00    +0.000 C 
ATOM     19  C   UNL     1       5.495  14.682  18.227  0.00  0.00    +0.000 C 
ATOM     20  O   UNL     1       8.234  14.031  19.232  0.00  0.00    +0.000 OA
ATOM     21  C   UNL     1       9.457  14.007  18.499  0.00  0.00    +0.000 C 
ATOM     22  C   UNL     1       9.985  15.407  18.658  0.00  0.00    +0.000 C 
ATOM     23  O   UNL     1       8.834  16.239  18.724  0.00  0.00    +0.000 OA
ENDBRANCH   3  12
BRANCH   1  28
ATOM     24  C   UNL     1       0.443  10.809  21.065  0.00  0.00    +0.000 A 
ATOM     25  C   UNL     1      -0.492  10.118  20.291  0.00  0.00    +0.000 A 
ATOM     26  C   UNL     1      -0.925  10.614  19.061  0.00  0.00    +0.000 A 
ATOM     27  C   UNL     1      -0.428  11.834  18.610  0.00  0.00    +0.000 A 
ATOM     28  C   UNL     1       0.429  12.599  19.428  0.00  0.00    +0.000 A 
ATOM     29  C   UNL     1       0.890  12.061  20.640  0.00  0.00    +0.000 A 
BRANCH  24  31
ATOM     30  C   UNL     1      -0.209   9.810  23.128  0.00  0.00    +0.000 C 
ATOM     31  O   UNL     1       0.814  10.148  22.203  0.00  0.00    +0.000 OA
ENDBRANCH  24  31
BRANCH  26  32
ATOM     32  O   UNL     1      -1.831   9.814  18.425  0.00  0.00    +0.000 OA
ATOM     33  C   UNL     1      -1.984   9.968  17.022  0.00  0.00    +0.000 C 
ENDBRANCH  26  32
ENDBRANCH   1  28
TORSDOF 4
ENDMDL
MODEL 5
REMARK VINA RESULT:      -7.3      3.973      9.179
REMARK  Name = 
REMARK  6 active torsions:
REMARK  status: ('A' for Active; 'I' for Inactive)
REMARK    1  A    between atoms: C_1  and  O_2
REMARK    2  A    between atoms: O_2  and  C_3
REMARK    3  A    between atoms: C_5  and  O_6
REMARK    4  A    between atoms: O_6  and  C_7
REMARK    5  A    between atoms: C_9  and  N_10
REMARK    6  A    between atoms: C_12  and  C_13
REMARK                            x       y       z     vdW  Elec       q    Type
REMARK                         _______ _______ _______ _____ _____    ______ ____
ROOT
ATOM      1  N   UNL     1       0.426  14.168  18.969  0.00  0.00    +0.000 N 
ATOM      2  N   UNL     1       1.754  14.243  18.622  0.00  0.00    +0.000 NA
ATOM      3  C   UNL     1       2.260  15.445  18.600  0.00  0.00    +0.000 A 
ATOM      4  C   UNL     1       1.472  16.543  18.064  0.00  0.00    +0.000 A 
ATOM      5  C   UNL     1       1.982  17.533  17.226  0.00  0.00    +0.000 A 
ATOM      6  C   UNL     1       1.112  18.536  16.791  0.00  0.00    +0.000 A 
ATOM      7  C   UNL     1      -0.216  18.538  17.222  0.00  0.00    +0.000 A 
ATOM      8  C   UNL     1      -0.707  17.526  18.068  0.00  0.00    +0.000 A 
ATOM      9  C   UNL     1       0.149  16.502  18.459  0.00  0.00    +0.000 A 
ATOM     10  C   UNL     1      -0.324  15.331  19.226  0.00  0.00    +0.000 A 
ATOM     11  O   UNL     1      -1.308  15.432  19.943  0.00  0.00    +0.000 OA
ENDROOT
BRANCH   3  12
ATOM     12  C   UNL     1       3.366  15.802  19.593  0.00  0.00    +0.000 C 
ATOM     13  O   UNL     1       3.027  16.388  20.622  0.00  0.00    +0.000 OA
ATOM     14  N   UNL     1       4.641  15.273  19.405  0.00  0.00    +0.000 N 
ATOM     15  C   UNL     1       5.528  15.129  20.555  0.00  0.00    +0.000 C 
ATOM     16  C   UNL     1       6.848  15.840  20.277  0.00  0.00    +0.000 C 
ATOM     17  C   UNL     1       7.460  15.349  18.974  0.00  0.00    +0.000 C 
ATOM     18  C   UNL     1       6.475  15.434  17.813  0.00  0.00    +0.000 C 
ATOM     19  C   UNL     1       5.175  14.747  18.152  0.00  0.00    +0.000 C 
ATOM     20  O   UNL     1       7.894  13.990  19.135  0.00  0.00    +0.000 OA
ATOM     21  C   UNL     1       9.108  13.917  18.391  0.00  0.00    +0.000 C 
ATOM     22  C   UNL     1       9.693  15.294  18.543  0.00  0.00    +0.000 C 
ATOM     23  O   UNL     1       8.577  16.172  18.618  0.00  0.00    +0.000 OA
ENDBRANCH   3  12
BRANCH   1  28
ATOM     24  C   UNL     1      -1.050  10.728  19.043  0.00  0.00    +0.000 A 
ATOM     25  C   UNL     1      -0.414  10.232  20.183  0.00  0.00    +0.000 A 
ATOM     26  C   UNL     1       0.398  11.045  20.974  0.00  0.00    +0.000 A 
ATOM     27  C   UNL     1       0.592  12.374  20.603  0.00  0.00    +0.000 A 
ATOM     28  C   UNL     1       0.048  12.861  19.396  0.00  0.00    +0.000 A 
ATOM     29  C   UNL     1      -0.803  12.041  18.640  0.00  0.00    +0.000 A 
BRANCH  24  31
ATOM     30  C   UNL     1      -2.071   9.963  17.030  0.00  0.00    +0.000 C 
ATOM     31  O   UNL     1      -1.867   9.821  18.428  0.00  0.00    +0.000 OA
ENDBRANCH  24  31
BRANCH  26  32
ATOM     32  O   UNL     1       0.937  10.412  22.057  0.00  0.00    +0.000 OA
ATOM     33  C   UNL     1       1.219   9.025  21.944  0.00  0.00    +0.000 C 
ENDBRANCH  26  32
ENDBRANCH   1  28
TORSDOF 4
ENDMDL
MODEL 6
REMARK VINA RESULT:      -7.2      7.578     11.685
REMARK  Name = 
REMARK  6 active torsions:
REMARK  status: ('A' for Active; 'I' for Inactive)
REMARK    1  A    between atoms: C_1  and  O_2
REMARK    2  A    between atoms: O_2  and  C_3
REMARK    3  A    between atoms: C_5  and  O_6
REMARK    4  A    between atoms: O_6  and  C_7
REMARK    5  A    between atoms: C_9  and  N_10
REMARK    6  A    between atoms: C_12  and  C_13
REMARK                            x       y       z     vdW  Elec       q    Type
REMARK                         _______ _______ _______ _____ _____    ______ ____
ROOT
ATOM      1  N   UNL     1       2.452   6.174  19.264  0.00  0.00    +0.000 N 
ATOM      2  N   UNL     1       3.632   5.984  19.944  0.00  0.00    +0.000 NA
ATOM      3  C   UNL     1       4.307   4.920  19.607  0.00  0.00    +0.000 A 
ATOM      4  C   UNL     1       3.599   3.678  19.340  0.00  0.00    +0.000 A 
ATOM      5  C   UNL     1       4.024   2.427  19.785  0.00  0.00    +0.000 A 
ATOM      6  C   UNL     1       3.251   1.314  19.448  0.00  0.00    +0.000 A 
ATOM      7  C   UNL     1       2.108   1.475  18.663  0.00  0.00    +0.000 A 
ATOM      8  C   UNL     1       1.699   2.749  18.227  0.00  0.00    +0.000 A 
ATOM      9  C   UNL     1       2.444   3.861  18.606  0.00  0.00    +0.000 A 
ATOM     10  C   UNL     1       2.005   5.240  18.310  0.00  0.00    +0.000 A 
ATOM     11  O   UNL     1       1.281   5.454  17.350  0.00  0.00    +0.000 OA
ENDROOT
BRANCH   3  12
ATOM     12  C   UNL     1       5.683   5.089  18.962  0.00  0.00    +0.000 C 
ATOM     13  O   UNL     1       6.603   5.458  19.693  0.00  0.00    +0.000 OA
ATOM     14  N   UNL     1       5.883   4.622  17.665  0.00  0.00    +0.000 N 
ATOM     15  C   UNL     1       7.233   4.267  17.238  0.00  0.00    +0.000 C 
ATOM     16  C   UNL     1       7.589   5.033  15.970  0.00  0.00    +0.000 C 
ATOM     17  C   UNL     1       6.535   4.816  14.894  0.00  0.00    +0.000 C 
ATOM     18  C   UNL     1       5.130   5.115  15.403  0.00  0.00    +0.000 C 
ATOM     19  C   UNL     1       4.841   4.360  16.677  0.00  0.00    +0.000 C 
ATOM     20  O   UNL     1       6.599   3.457  14.435  0.00  0.00    +0.000 OA
ATOM     21  C   UNL     1       6.352   3.545  13.034  0.00  0.00    +0.000 C 
ATOM     22  C   UNL     1       6.950   4.873  12.658  0.00  0.00    +0.000 C 
ATOM     23  O   UNL     1       6.767   5.706  13.796  0.00  0.00    +0.000 OA
ENDBRANCH   3  12
BRANCH   1  28
ATOM     24  C   UNL     1       0.964   9.363  20.543  0.00  0.00    +0.000 A 
ATOM     25  C   UNL     1       1.363  10.226  19.520  0.00  0.00    +0.000 A 
ATOM     26  C   UNL     1       2.012   9.751  18.380  0.00  0.00    +0.000 A 
ATOM     27  C   UNL     1       2.283   8.389  18.274  0.00  0.00    +0.000 A 
ATOM     28  C   UNL     1       1.989   7.520  19.345  0.00  0.00    +0.000 A 
ATOM     29  C   UNL     1       1.295   8.010  20.462  0.00  0.00    +0.000 A 
BRANCH  24  31
ATOM     30  C   UNL     1       0.261   9.346  22.820  0.00  0.00    +0.000 C 
ATOM     31  O   UNL     1       0.276   9.981  21.549  0.00  0.00    +0.000 OA
ENDBRANCH  24  31
BRANCH  26  32
ATOM     32  O   UNL     1       2.325  10.721  17.471  0.00  0.00    +0.000 OA
ATOM     33  C   UNL     1       2.463  12.054  17.940  0.00  0.00    +0.000 C 
ENDBRANCH  26  32
ENDBRANCH   1  28
TORSDOF 4
ENDMDL
MODEL 7
REMARK VINA RESULT:      -7.1      3.209      7.462
REMARK  Name = 
REMARK  6 active torsions:
REMARK  status: ('A' for Active; 'I' for Inactive)
REMARK    1  A    between atoms: C_1  and  O_2
REMARK    2  A    between atoms: O_2  and  C_3
REMARK    3  A    between atoms: C_5  and  O_6
REMARK    4  A    between atoms: O_6  and  C_7
REMARK    5  A    between atoms: C_9  and  N_10
REMARK    6  A    between atoms: C_12  and  C_13
REMARK                            x       y       z     vdW  Elec       q    Type
REMARK                         _______ _______ _______ _____ _____    ______ ____
ROOT
ATOM      1  N   UNL     1       0.133   9.772  20.480  0.00  0.00    +0.000 N 
ATOM      2  N   UNL     1      -0.424  10.383  19.381  0.00  0.00    +0.000 NA
ATOM      3  C   UNL     1      -0.913  11.574  19.590  0.00  0.00    +0.000 A 
ATOM      4  C   UNL     1      -1.645  11.841  20.818  0.00  0.00    +0.000 A 
ATOM      5  C   UNL     1      -2.828  12.576  20.877  0.00  0.00    +0.000 A 
ATOM      6  C   UNL     1      -3.422  12.764  22.128  0.00  0.00    +0.000 A 
ATOM      7  C   UNL     1      -2.812  12.243  23.270  0.00  0.00    +0.000 A 
ATOM      8  C   UNL     1      -1.618  11.503  23.185  0.00  0.00    +0.000 A 
ATOM      9  C   UNL     1      -1.055  11.276  21.933  0.00  0.00    +0.000 A 
ATOM     10  C   UNL     1       0.114  10.393  21.743  0.00  0.00    +0.000 A 
ATOM     11  O   UNL     1       0.904  10.228  22.660  0.00  0.00    +0.000 OA
ENDROOT
BRANCH   3  12
ATOM     12  C   UNL     1      -0.276  12.771  18.886  0.00  0.00    +0.000 C 
ATOM     13  O   UNL     1      -0.705  13.057  17.767  0.00  0.00    +0.000 OA
ATOM     14  N   UNL     1       0.582  13.601  19.604  0.00  0.00    +0.000 N 
ATOM     15  C   UNL     1       0.757  14.985  19.176  0.00  0.00    +0.000 C 
ATOM     16  C   UNL     1       2.239  15.273  18.965  0.00  0.00    +0.000 C 
ATOM     17  C   UNL     1       3.040  14.916  20.208  0.00  0.00    +0.000 C 
ATOM     18  C   UNL     1       2.765  13.492  20.676  0.00  0.00    +0.000 C 
ATOM     19  C   UNL     1       1.284  13.248  20.835  0.00  0.00    +0.000 C 
ATOM     20  O   UNL     1       2.716  15.837  21.262  0.00  0.00    +0.000 OA
ATOM     21  C   UNL     1       3.955  16.056  21.933  0.00  0.00    +0.000 C 
ATOM     22  C   UNL     1       4.972  15.944  20.831  0.00  0.00    +0.000 C 
ATOM     23  O   UNL     1       4.442  14.986  19.924  0.00  0.00    +0.000 OA
ENDBRANCH   3  12
BRANCH   1  28
ATOM     24  C   UNL     1       1.891   6.467  20.415  0.00  0.00    +0.000 A 
ATOM     25  C   UNL     1       2.563   6.591  19.197  0.00  0.00    +0.000 A 
ATOM     26  C   UNL     1       2.527   7.777  18.465  0.00  0.00    +0.000 A 
ATOM     27  C   UNL     1       1.787   8.853  18.953  0.00  0.00    +0.000 A 
ATOM     28  C   UNL     1       1.013   8.709  20.123  0.00  0.00    +0.000 A 
ATOM     29  C   UNL     1       1.100   7.523  20.870  0.00  0.00    +0.000 A 
BRANCH  24  31
ATOM     30  C   UNL     1       1.382   4.142  20.539  0.00  0.00    +0.000 C 
ATOM     31  O   UNL     1       2.093   5.267  21.037  0.00  0.00    +0.000 OA
ENDBRANCH  24  31
BRANCH  26  32
ATOM     32  O   UNL     1       3.243   7.738  17.302  0.00  0.00    +0.000 OA
ATOM     33  C   UNL     1       4.370   6.876  17.244  0.00  0.00    +0.000 C 
ENDBRANCH  26  32
ENDBRANCH   1  28
TORSDOF 4
ENDMDL
MODEL 8
REMARK VINA RESULT:      -7.1      3.093      7.608
REMARK  Name = 
REMARK  6 active torsions:
REMARK  status: ('A' for Active; 'I' for Inactive)
REMARK    1  A    between atoms: C_1  and  O_2
REMARK    2  A    between atoms: O_2  and  C_3
REMARK    3  A    between atoms: C_5  and  O_6
REMARK    4  A    between atoms: O_6  and  C_7
REMARK    5  A    between atoms: C_9  and  N_10
REMARK    6  A    between atoms: C_12  and  C_13
REMARK                            x       y       z     vdW  Elec       q    Type
REMARK                         _______ _______ _______ _____ _____    ______ ____
ROOT
ATOM      1  N   UNL     1      -1.681  10.769  18.981  0.00  0.00    +0.000 N 
ATOM      2  N   UNL     1      -2.118  11.557  20.020  0.00  0.00    +0.000 NA
ATOM      3  C   UNL     1      -1.252  11.756  20.974  0.00  0.00    +0.000 A 
ATOM      4  C   UNL     1      -0.406  10.657  21.413  0.00  0.00    +0.000 A 
ATOM      5  C   UNL     1      -0.120  10.377  22.748  0.00  0.00    +0.000 A 
ATOM      6  C   UNL     1       0.717   9.294  23.027  0.00  0.00    +0.000 A 
ATOM      7  C   UNL     1       1.259   8.549  21.979  0.00  0.00    +0.000 A 
ATOM      8  C   UNL     1       0.955   8.851  20.638  0.00  0.00    +0.000 A 
ATOM      9  C   UNL     1       0.082   9.899  20.366  0.00  0.00    +0.000 A 
ATOM     10  C   UNL     1      -0.399  10.189  19.000  0.00  0.00    +0.000 A 
ATOM     11  O   UNL     1       0.283   9.871  18.037  0.00  0.00    +0.000 OA
ENDROOT
BRANCH   3  12
ATOM     12  C   UNL     1      -0.737  13.173  21.225  0.00  0.00    +0.000 C 
ATOM     13  O   UNL     1      -1.353  13.856  22.044  0.00  0.00    +0.000 OA
ATOM     14  N   UNL     1       0.498  13.546  20.700  0.00  0.00    +0.000 N 
ATOM     15  C   UNL     1       1.247  14.622  21.341  0.00  0.00    +0.000 C 
ATOM     16  C   UNL     1       1.585  15.696  20.314  0.00  0.00    +0.000 C 
ATOM     17  C   UNL     1       2.300  15.089  19.116  0.00  0.00    +0.000 C 
ATOM     18  C   UNL     1       1.529  13.913  18.526  0.00  0.00    +0.000 C 
ATOM     19  C   UNL     1       1.189  12.898  19.590  0.00  0.00    +0.000 C 
ATOM     20  O   UNL     1       3.608  14.652  19.515  0.00  0.00    +0.000 OA
ATOM     21  C   UNL     1       4.439  14.956  18.397  0.00  0.00    +0.000 C 
ATOM     22  C   UNL     1       3.811  16.196  17.824  0.00  0.00    +0.000 C 
ATOM     23  O   UNL     1       2.417  16.062  18.071  0.00  0.00    +0.000 OA
ENDBRANCH   3  12
BRANCH   1  28
ATOM     24  C   UNL     1      -2.940  10.501  15.465  0.00  0.00    +0.000 A 
ATOM     25  C   UNL     1      -4.195  11.091  15.627  0.00  0.00    +0.000 A 
ATOM     26  C   UNL     1      -4.577  11.665  16.840  0.00  0.00    +0.000 A 
ATOM     27  C   UNL     1      -3.692  11.627  17.915  0.00  0.00    +0.000 A 
ATOM     28  C   UNL     1      -2.467  10.937  17.803  0.00  0.00    +0.000 A 
ATOM     29  C   UNL     1      -2.082  10.408  16.561  0.00  0.00    +0.000 A 
BRANCH  24  31
ATOM     30  C   UNL     1      -3.810   9.949  13.316  0.00  0.00    +0.000 C 
ATOM     31  O   UNL     1      -2.699  10.056  14.195  0.00  0.00    +0.000 OA
ENDBRANCH  24  31
BRANCH  26  32
ATOM     32  O   UNL     1      -5.830  12.209  16.831  0.00  0.00    +0.000 OA
ATOM     33  C   UNL     1      -6.730  11.823  17.859  0.00  0.00    +0.000 C 
ENDBRANCH  26  32
ENDBRANCH   1  28
TORSDOF 4
ENDMDL
MODEL 9
REMARK VINA RESULT:      -7.0      0.977      1.046
REMARK  Name = 
REMARK  6 active torsions:
REMARK  status: ('A' for Active; 'I' for Inactive)
REMARK    1  A    between atoms: C_1  and  O_2
REMARK    2  A    between atoms: O_2  and  C_3
REMARK    3  A    between atoms: C_5  and  O_6
REMARK    4  A    between atoms: O_6  and  C_7
REMARK    5  A    between atoms: C_9  and  N_10
REMARK    6  A    between atoms: C_12  and  C_13
REMARK                            x       y       z     vdW  Elec       q    Type
REMARK                         _______ _______ _______ _____ _____    ______ ____
ROOT
ATOM      1  N   UNL     1       0.325  12.891  19.136  0.00  0.00    +0.000 N 
ATOM      2  N   UNL     1      -0.734  13.476  19.789  0.00  0.00    +0.000 NA
ATOM      3  C   UNL     1      -1.745  12.689  20.035  0.00  0.00    +0.000 A 
ATOM      4  C   UNL     1      -2.163  11.727  19.028  0.00  0.00    +0.000 A 
ATOM      5  C   UNL     1      -3.493  11.468  18.700  0.00  0.00    +0.000 A 
ATOM      6  C   UNL     1      -3.752  10.509  17.718  0.00  0.00    +0.000 A 
ATOM      7  C   UNL     1      -2.692   9.825  17.120  0.00  0.00    +0.000 A 
ATOM      8  C   UNL     1      -1.357  10.104  17.468  0.00  0.00    +0.000 A 
ATOM      9  C   UNL     1      -1.101  11.094  18.411  0.00  0.00    +0.000 A 
ATOM     10  C   UNL     1       0.271  11.545  18.726  0.00  0.00    +0.000 A 
ATOM     11  O   UNL     1       1.212  10.784  18.564  0.00  0.00    +0.000 OA
ENDROOT
BRANCH   3  12
ATOM     12  C   UNL     1      -2.107  12.379  21.487  0.00  0.00    +0.000 C 
ATOM     13  O   UNL     1      -1.319  11.680  22.125  0.00  0.00    +0.000 OA
ATOM     14  N   UNL     1      -3.169  13.059  22.079  0.00  0.00    +0.000 N 
ATOM     15  C   UNL     1      -3.197  13.209  23.530  0.00  0.00    +0.000 C 
ATOM     16  C   UNL     1      -4.516  12.673  24.077  0.00  0.00    +0.000 C 
ATOM     17  C   UNL     1      -5.696  13.329  23.376  0.00  0.00    +0.000 C 
ATOM     18  C   UNL     1      -5.588  13.228  21.858  0.00  0.00    +0.000 C 
ATOM     19  C   UNL     1      -4.253  13.738  21.373  0.00  0.00    +0.000 C 
ATOM     20  O   UNL     1      -5.767  14.711  23.759  0.00  0.00    +0.000 OA
ATOM     21  C   UNL     1      -7.164  14.977  23.865  0.00  0.00    +0.000 C 
ATOM     22  C   UNL     1      -7.733  13.665  24.331  0.00  0.00    +0.000 C 
ATOM     23  O   UNL     1      -6.912  12.666  23.741  0.00  0.00    +0.000 OA
ENDBRANCH   3  12
BRANCH   1  28
ATOM     24  C   UNL     1       3.722  14.333  18.506  0.00  0.00    +0.000 A 
ATOM     25  C   UNL     1       3.733  15.326  19.487  0.00  0.00    +0.000 A 
ATOM     26  C   UNL     1       2.693  15.449  20.409  0.00  0.00    +0.000 A 
ATOM     27  C   UNL     1       1.613  14.572  20.331  0.00  0.00    +0.000 A 
ATOM     28  C   UNL     1       1.531  13.637  19.279  0.00  0.00    +0.000 A 
ATOM     29  C   UNL     1       2.610  13.498  18.391  0.00  0.00    +0.000 A 
BRANCH  24  31
ATOM     30  C   UNL     1       5.963  15.074  18.173  0.00  0.00    +0.000 C 
ATOM     31  O   UNL     1       4.851  14.306  17.735  0.00  0.00    +0.000 OA
ENDBRANCH  24  31
BRANCH  26  32
ATOM     32  O   UNL     1       2.860  16.462  21.309  0.00  0.00    +0.000 OA
ATOM     33  C   UNL     1       3.051  16.116  22.673  0.00  0.00    +0.000 C 
ENDBRANCH  26  32
ENDBRANCH   1  28
TORSDOF 4
ENDMDL
