MODEL 1
REMARK VINA RESULT:      -7.6      0.000      0.000
REMARK  Name = 
REMARK  11 active torsions:
REMARK  status: ('A' for Active; 'I' for Inactive)
REMARK    1  A    between atoms: C_1  and  N_2
REMARK    2  A    between atoms: N_2  and  C_3
REMARK    3  A    between atoms: C_3  and  C_4
REMARK    4  A    between atoms: C_3  and  C_8
REMARK    5  A    between atoms: C_4  and  C_5
REMARK    6  A    between atoms: C_5  and  C_6
REMARK    7  A    between atoms: C_5  and  C_7
REMARK    8  A    between atoms: N_10  and  C_11
REMARK    9  A    between atoms: N_16  and  C_17
REMARK   10  A    between atoms: C_17  and  C_18
REMARK   11  A    between atoms: C_22  and  C_23
REMARK                            x       y       z     vdW  Elec       q    Type
REMARK                         _______ _______ _______ _____ _____    ______ ____
ROOT
ATOM      1  C   UNL     1       2.525   6.195  17.925  0.00  0.00    +0.000 C 
ATOM      2  C   UNL     1       1.524   5.040  17.980  0.00  0.00    +0.000 C 
ATOM      3  C   UNL     1       2.373   3.824  17.654  0.00  0.00    +0.000 C 
ATOM      4  C   UNL     1       3.684   4.075  18.400  0.00  0.00    +0.000 C 
ATOM      5  C   UNL     1       4.919   3.580  17.664  0.00  0.00    +0.000 C 
ATOM      6  N   UNL     1       5.265   4.708  16.786  0.00  0.00    +0.000 NA
ATOM      7  C   UNL     1       5.086   5.904  17.623  0.00  0.00    +0.000 C 
ATOM      8  C   UNL     1       3.843   5.605  18.471  0.00  0.00    +0.000 C 
ENDROOT
BRANCH   1  11
ATOM      9  C   UNL     1       2.094   8.680  18.104  0.00  0.00    +0.000 C 
ATOM     10  O   UNL     1       2.602   8.972  17.028  0.00  0.00    +0.000 OA
ATOM     11  N   UNL     1       2.070   7.392  18.618  0.00  0.00    +0.000 N 
ATOM     12  H   UNL     1       1.569   7.297  19.501  0.00  0.00    +0.000 HD
BRANCH   9  13
ATOM     13  C   UNL     1       1.405   9.741  19.006  0.00  0.00    +0.000 C 
BRANCH  13  15
ATOM     14  C   UNL     1      -0.828  10.153  18.035  0.00  0.00    +0.000 C 
ATOM     15  N   UNL     1       0.557  10.604  18.118  0.00  0.00    +0.000 NA
ATOM     16  H   UNL     1       0.559  11.541  18.526  0.00  0.00    +0.000 HD
ENDBRANCH  13  15
BRANCH  13  17
ATOM     17  C   UNL     1       0.586   9.102  20.144  0.00  0.00    +0.000 C 
BRANCH  17  18
ATOM     18  C   UNL     1       0.608   9.806  21.522  0.00  0.00    +0.000 C 
ATOM     19  C   UNL     1       0.145  11.265  21.483  0.00  0.00    +0.000 C 
ATOM     20  C   UNL     1      -0.288   9.023  22.492  0.00  0.00    +0.000 C 
ENDBRANCH  17  18
ENDBRANCH  13  17
ENDBRANCH   9  13
ENDBRANCH   1  11
BRANCH   6  21
ATOM     21  C   UNL     1       6.634   4.562  16.271  0.00  0.00    +0.000 C 
BRANCH  21  22
ATOM     22  C   UNL     1       6.724   4.579  14.758  0.00  0.00    +0.000 A 
ATOM     23  C   UNL     1       7.798   5.212  14.117  0.00  0.00    +0.000 A 
ATOM     24  C   UNL     1       7.898   5.201  12.725  0.00  0.00    +0.000 A 
ATOM     25  C   UNL     1       6.933   4.548  11.959  0.00  0.00    +0.000 A 
ATOM     26  C   UNL     1       5.853   3.900  12.577  0.00  0.00    +0.000 A 
ATOM     27  C   UNL     1       5.754   3.931  13.979  0.00  0.00    +0.000 A 
BRANCH  26  28
ATOM     28  C   UNL     1       4.817   3.164  11.766  0.00  0.00    +0.000 C 
ATOM     29  F   UNL     1       5.223   1.931  11.352  0.00  0.00    +0.000 F 
ATOM     30  F   UNL     1       3.662   2.959  12.459  0.00  0.00    +0.000 F 
ATOM     31  F   UNL     1       4.460   3.835  10.636  0.00  0.00    +0.000 F 
ENDBRANCH  26  28
ENDBRANCH  21  22
ENDBRANCH   6  21
TORSDOF 8
ENDMDL
MODEL 2
REMARK VINA RESULT:      -7.3      1.054      1.793
REMARK  Name = 
REMARK  11 active torsions:
REMARK  status: ('A' for Active; 'I' for Inactive)
REMARK    1  A    between atoms: C_1  and  N_2
REMARK    2  A    between atoms: N_2  and  C_3
REMARK    3  A    between atoms: C_3  and  C_4
REMARK    4  A    between atoms: C_3  and  C_8
REMARK    5  A    between atoms: C_4  and  C_5
REMARK    6  A    between atoms: C_5  and  C_6
REMARK    7  A    between atoms: C_5  and  C_7
REMARK    8  A    between atoms: N_10  and  C_11
REMARK    9  A    between atoms: N_16  and  C_17
REMARK   10  A    between atoms: C_17  and  C_18
REMARK   11  A    between atoms: C_22  and  C_23
REMARK                            x       y       z     vdW  Elec       q    Type
REMARK                         _______ _______ _______ _____ _____    ______ ____
ROOT
ATOM      1  C   UNL     1       2.536   6.339  17.929  0.00  0.00    +0.000 C 
ATOM      2  C   UNL     1       1.563   5.161  17.994  0.00  0.00    +0.000 C 
ATOM      3  C   UNL     1       2.444   3.962  17.688  0.00  0.00    +0.000 C 
ATOM      4  C   UNL     1       3.744   4.255  18.438  0.00  0.00    +0.000 C 
ATOM      5  C   UNL     1       4.996   3.781  17.714  0.00  0.00    +0.000 C 
ATOM      6  N   UNL     1       5.318   4.906  16.823  0.00  0.00    +0.000 NA
ATOM      7  C   UNL     1       5.105   6.107  17.644  0.00  0.00    +0.000 C 
ATOM      8  C   UNL     1       3.866   5.790  18.490  0.00  0.00    +0.000 C 
ENDROOT
BRANCH   1  11
ATOM      9  C   UNL     1       2.052   8.817  18.076  0.00  0.00    +0.000 C 
ATOM     10  O   UNL     1       2.567   9.109  17.004  0.00  0.00    +0.000 OA
ATOM     11  N   UNL     1       2.048   7.534  18.604  0.00  0.00    +0.000 N 
ATOM     12  H   UNL     1       1.539   7.438  19.482  0.00  0.00    +0.000 HD
BRANCH   9  13
ATOM     13  C   UNL     1       1.330   9.873  18.959  0.00  0.00    +0.000 C 
BRANCH  13  15
ATOM     14  C   UNL     1       1.747  12.252  19.469  0.00  0.00    +0.000 C 
ATOM     15  N   UNL     1       1.701  11.228  18.432  0.00  0.00    +0.000 NA
ATOM     16  H   UNL     1       2.638  11.143  18.031  0.00  0.00    +0.000 HD
ENDBRANCH  13  15
BRANCH  13  17
ATOM     17  C   UNL     1      -0.195   9.663  18.996  0.00  0.00    +0.000 C 
BRANCH  17  18
ATOM     18  C   UNL     1      -1.066  10.600  18.126  0.00  0.00    +0.000 C 
ATOM     19  C   UNL     1      -1.959   9.865  17.121  0.00  0.00    +0.000 C 
ATOM     20  C   UNL     1      -1.949  11.453  19.047  0.00  0.00    +0.000 C 
ENDBRANCH  17  18
ENDBRANCH  13  17
ENDBRANCH   9  13
ENDBRANCH   1  11
BRANCH   6  21
ATOM     21  C   UNL     1       6.693   4.786  16.317  0.00  0.00    +0.000 C 
BRANCH  21  22
ATOM     22  C   UNL     1       6.786   4.724  14.806  0.00  0.00    +0.000 A 
ATOM     23  C   UNL     1       7.864   5.317  14.135  0.00  0.00    +0.000 A 
ATOM     24  C   UNL     1       7.967   5.233  12.746  0.00  0.00    +0.000 A 
ATOM     25  C   UNL     1       7.000   4.547  12.013  0.00  0.00    +0.000 A 
ATOM     26  C   UNL     1       5.915   3.938  12.661  0.00  0.00    +0.000 A 
ATOM     27  C   UNL     1       5.814   4.042  14.060  0.00  0.00    +0.000 A 
BRANCH  26  28
ATOM     28  C   UNL     1       4.876   3.167  11.887  0.00  0.00    +0.000 C 
ATOM     29  F   UNL     1       3.705   3.000  12.564  0.00  0.00    +0.000 F 
ATOM     30  F   UNL     1       4.543   3.775  10.715  0.00  0.00    +0.000 F 
ATOM     31  F   UNL     1       5.293   1.914  11.553  0.00  0.00    +0.000 F 
ENDBRANCH  26  28
ENDBRANCH  21  22
ENDBRANCH   6  21
TORSDOF 8
ENDMDL
MODEL 3
REMARK VINA RESULT:      -7.1      1.060      1.862
REMARK  Name = 
REMARK  11 active torsions:
REMARK  status: ('A' for Active; 'I' for Inactive)
REMARK    1  A    between atoms: C_1  and  N_2
REMARK    2  A    between atoms: N_2  and  C_3
REMARK    3  A    between atoms: C_3  and  C_4
REMARK    4  A    between atoms: C_3  and  C_8
REMARK    5  A    between atoms: C_4  and  C_5
REMARK    6  A    between atoms: C_5  and  C_6
REMARK    7  A    between atoms: C_5  and  C_7
REMARK    8  A    between atoms: N_10  and  C_11
REMARK    9  A    between atoms: N_16  and  C_17
REMARK   10  A    between atoms: C_17  and  C_18
REMARK   11  A    between atoms: C_22  and  C_23
REMARK                            x       y       z     vdW  Elec       q    Type
REMARK                         _______ _______ _______ _____ _____    ______ ____
ROOT
ATOM      1  C   UNL     1       2.512   5.720  18.058  0.00  0.00    +0.000 C 
ATOM      2  C   UNL     1       1.630   4.486  17.865  0.00  0.00    +0.000 C 
ATOM      3  C   UNL     1       2.585   3.461  17.279  0.00  0.00    +0.000 C 
ATOM      4  C   UNL     1       3.884   3.677  18.057  0.00  0.00    +0.000 C 
ATOM      5  C   UNL     1       5.143   3.479  17.225  0.00  0.00    +0.000 C 
ATOM      6  N   UNL     1       5.354   4.799  16.611  0.00  0.00    +0.000 NA
ATOM      7  C   UNL     1       5.081   5.761  17.689  0.00  0.00    +0.000 C 
ATOM      8  C   UNL     1       3.896   5.163  18.457  0.00  0.00    +0.000 C 
ENDROOT
BRANCH   1  11
ATOM      9  C   UNL     1       1.950   8.064  18.823  0.00  0.00    +0.000 C 
ATOM     10  O   UNL     1       2.502   8.636  17.890  0.00  0.00    +0.000 OA
ATOM     11  N   UNL     1       1.961   6.688  18.997  0.00  0.00    +0.000 N 
ATOM     12  H   UNL     1       1.417   6.356  19.792  0.00  0.00    +0.000 HD
BRANCH   9  13
ATOM     13  C   UNL     1       1.160   8.839  19.914  0.00  0.00    +0.000 C 
BRANCH  13  15
ATOM     14  C   UNL     1       1.232   9.189  22.357  0.00  0.00    +0.000 C 
ATOM     15  N   UNL     1       1.609   8.320  21.248  0.00  0.00    +0.000 NA
ATOM     16  H   UNL     1       1.149   7.417  21.384  0.00  0.00    +0.000 HD
ENDBRANCH  13  15
BRANCH  13  17
ATOM     17  C   UNL     1       1.339  10.365  19.796  0.00  0.00    +0.000 C 
BRANCH  17  18
ATOM     18  C   UNL     1       0.169  11.177  19.192  0.00  0.00    +0.000 C 
ATOM     19  C   UNL     1      -0.998  11.401  20.160  0.00  0.00    +0.000 C 
ATOM     20  C   UNL     1       0.700  12.540  18.726  0.00  0.00    +0.000 C 
ENDBRANCH  17  18
ENDBRANCH  13  17
ENDBRANCH   9  13
ENDBRANCH   1  11
BRANCH   6  21
ATOM     21  C   UNL     1       6.716   4.905  16.071  0.00  0.00    +0.000 C 
BRANCH  21  22
ATOM     22  C   UNL     1       6.789   4.776  14.563  0.00  0.00    +0.000 A 
ATOM     23  C   UNL     1       7.882   5.296  13.856  0.00  0.00    +0.000 A 
ATOM     24  C   UNL     1       7.965   5.150  12.470  0.00  0.00    +0.000 A 
ATOM     25  C   UNL     1       6.962   4.473  11.778  0.00  0.00    +0.000 A 
ATOM     26  C   UNL     1       5.862   3.936  12.462  0.00  0.00    +0.000 A 
ATOM     27  C   UNL     1       5.782   4.103  13.856  0.00  0.00    +0.000 A 
BRANCH  26  28
ATOM     28  C   UNL     1       4.784   3.175  11.733  0.00  0.00    +0.000 C 
ATOM     29  F   UNL     1       3.676   2.936  12.490  0.00  0.00    +0.000 F 
ATOM     30  F   UNL     1       4.340   3.833  10.626  0.00  0.00    +0.000 F 
ATOM     31  F   UNL     1       5.205   1.955  11.298  0.00  0.00    +0.000 F 
ENDBRANCH  26  28
ENDBRANCH  21  22
ENDBRANCH   6  21
TORSDOF 8
ENDMDL
MODEL 4
REMARK VINA RESULT:      -7.1      6.063      9.982
REMARK  Name = 
REMARK  11 active torsions:
REMARK  status: ('A' for Active; 'I' for Inactive)
REMARK    1  A    between atoms: C_1  and  N_2
REMARK    2  A    between atoms: N_2  and  C_3
REMARK    3  A    between atoms: C_3  and  C_4
REMARK    4  A    between atoms: C_3  and  C_8
REMARK    5  A    between atoms: C_4  and  C_5
REMARK    6  A    between atoms: C_5  and  C_6
REMARK    7  A    between atoms: C_5  and  C_7
REMARK    8  A    between atoms: N_10  and  C_11
REMARK    9  A    between atoms: N_16  and  C_17
REMARK   10  A    between atoms: C_17  and  C_18
REMARK   11  A    between atoms: C_22  and  C_23
REMARK                            x       y       z     vdW  Elec       q    Type
REMARK                         _______ _______ _______ _____ _____    ______ ____
ROOT
ATOM      1  C   UNL     1       1.274   8.816  20.995  0.00  0.00    +0.000 C 
ATOM      2  C   UNL     1       1.268   9.149  22.488  0.00  0.00    +0.000 C 
ATOM      3  C   UNL     1       0.385  10.381  22.569  0.00  0.00    +0.000 C 
ATOM      4  C   UNL     1      -0.747  10.091  21.582  0.00  0.00    +0.000 C 
ATOM      5  C   UNL     1      -1.245  11.319  20.833  0.00  0.00    +0.000 C 
ATOM      6  N   UNL     1      -0.334  11.405  19.681  0.00  0.00    +0.000 NA
ATOM      7  C   UNL     1      -0.185  10.017  19.217  0.00  0.00    +0.000 C 
ATOM      8  C   UNL     1      -0.143   9.178  20.500  0.00  0.00    +0.000 C 
ENDROOT
BRANCH   1  11
ATOM      9  C   UNL     1       2.340   7.026  19.561  0.00  0.00    +0.000 C 
ATOM     10  O   UNL     1       2.570   7.754  18.603  0.00  0.00    +0.000 OA
ATOM     11  N   UNL     1       1.680   7.447  20.706  0.00  0.00    +0.000 N 
ATOM     12  H   UNL     1       1.605   6.740  21.437  0.00  0.00    +0.000 HD
BRANCH   9  13
ATOM     13  C   UNL     1       2.783   5.537  19.591  0.00  0.00    +0.000 C 
BRANCH  13  15
ATOM     14  C   UNL     1       4.806   4.196  19.136  0.00  0.00    +0.000 C 
ATOM     15  N   UNL     1       4.280   5.511  19.482  0.00  0.00    +0.000 NA
ATOM     16  H   UNL     1       4.532   6.159  18.733  0.00  0.00    +0.000 HD
ENDBRANCH  13  15
BRANCH  13  17
ATOM     17  C   UNL     1       2.281   4.799  20.847  0.00  0.00    +0.000 C 
BRANCH  17  18
ATOM     18  C   UNL     1       1.188   3.721  20.653  0.00  0.00    +0.000 C 
ATOM     19  C   UNL     1       1.115   3.158  19.230  0.00  0.00    +0.000 C 
ATOM     20  C   UNL     1       1.449   2.570  21.633  0.00  0.00    +0.000 C 
ENDBRANCH  17  18
ENDBRANCH  13  17
ENDBRANCH   9  13
ENDBRANCH   1  11
BRANCH   6  21
ATOM     21  C   UNL     1      -0.882  12.303  18.655  0.00  0.00    +0.000 C 
BRANCH  21  22
ATOM     22  C   UNL     1      -2.127  11.769  17.976  0.00  0.00    +0.000 A 
ATOM     23  C   UNL     1      -2.033  11.072  16.763  0.00  0.00    +0.000 A 
ATOM     24  C   UNL     1      -3.176  10.552  16.154  0.00  0.00    +0.000 A 
ATOM     25  C   UNL     1      -4.424  10.715  16.754  0.00  0.00    +0.000 A 
ATOM     26  C   UNL     1      -4.544  11.402  17.971  0.00  0.00    +0.000 A 
ATOM     27  C   UNL     1      -3.388  11.934  18.568  0.00  0.00    +0.000 A 
BRANCH  26  28
ATOM     28  C   UNL     1      -5.882  11.560  18.648  0.00  0.00    +0.000 C 
ATOM     29  F   UNL     1      -6.454  12.781  18.447  0.00  0.00    +0.000 F 
ATOM     30  F   UNL     1      -6.796  10.648  18.215  0.00  0.00    +0.000 F 
ATOM     31  F   UNL     1      -5.809  11.404  19.999  0.00  0.00    +0.000 F 
ENDBRANCH  26  28
ENDBRANCH  21  22
ENDBRANCH   6  21
TORSDOF 8
ENDMDL
MODEL 5
REMARK VINA RESULT:      -7.1      4.938      9.523
REMARK  Name = 
REMARK  11 active torsions:
REMARK  status: ('A' for Active; 'I' for Inactive)
REMARK    1  A    between atoms: C_1  and  N_2
REMARK    2  A    between atoms: N_2  and  C_3
REMARK    3  A    between atoms: C_3  and  C_4
REMARK    4  A    between atoms: C_3  and  C_8
REMARK    5  A    between atoms: C_4  and  C_5
REMARK    6  A    between atoms: C_5  and  C_6
REMARK    7  A    between atoms: C_5  and  C_7
REMARK    8  A    between atoms: N_10  and  C_11
REMARK    9  A    between atoms: N_16  and  C_17
REMARK   10  A    between atoms: C_17  and  C_18
REMARK   11  A    between atoms: C_22  and  C_23
REMARK                            x       y       z     vdW  Elec       q    Type
REMARK                         _______ _______ _______ _____ _____    ______ ____
ROOT
ATOM      1  C   UNL     1       6.121   6.116  16.542  0.00  0.00    +0.000 C 
ATOM      2  C   UNL     1       7.424   6.036  17.338  0.00  0.00    +0.000 C 
ATOM      3  C   UNL     1       6.953   5.767  18.756  0.00  0.00    +0.000 C 
ATOM      4  C   UNL     1       5.800   4.778  18.583  0.00  0.00    +0.000 C 
ATOM      5  C   UNL     1       4.664   4.972  19.576  0.00  0.00    +0.000 C 
ATOM      6  N   UNL     1       3.819   5.987  18.930  0.00  0.00    +0.000 NA
ATOM      7  C   UNL     1       3.773   5.591  17.514  0.00  0.00    +0.000 C 
ATOM      8  C   UNL     1       5.185   5.081  17.204  0.00  0.00    +0.000 C 
ENDROOT
BRANCH   1  11
ATOM      9  C   UNL     1       6.523   4.717  14.473  0.00  0.00    +0.000 C 
ATOM     10  O   UNL     1       6.693   3.660  15.068  0.00  0.00    +0.000 OA
ATOM     11  N   UNL     1       6.302   5.930  15.108  0.00  0.00    +0.000 N 
ATOM     12  H   UNL     1       6.130   6.714  14.479  0.00  0.00    +0.000 HD
BRANCH   9  13
ATOM     13  C   UNL     1       6.526   4.801  12.921  0.00  0.00    +0.000 C 
BRANCH  13  15
ATOM     14  C   UNL     1       8.877   5.536  13.099  0.00  0.00    +0.000 C 
ATOM     15  N   UNL     1       7.563   5.812  12.528  0.00  0.00    +0.000 NA
ATOM     16  H   UNL     1       7.647   5.769  11.510  0.00  0.00    +0.000 HD
ENDBRANCH  13  15
BRANCH  13  17
ATOM     17  C   UNL     1       6.774   3.431  12.260  0.00  0.00    +0.000 C 
BRANCH  17  18
ATOM     18  C   UNL     1       5.543   2.530  12.003  0.00  0.00    +0.000 C 
ATOM     19  C   UNL     1       4.362   3.259  11.354  0.00  0.00    +0.000 C 
ATOM     20  C   UNL     1       5.965   1.362  11.101  0.00  0.00    +0.000 C 
ENDBRANCH  17  18
ENDBRANCH  13  17
ENDBRANCH   9  13
ENDBRANCH   1  11
BRANCH   6  21
ATOM     21  C   UNL     1       2.493   6.035  19.562  0.00  0.00    +0.000 C 
BRANCH  21  22
ATOM     22  C   UNL     1       1.935   7.436  19.711  0.00  0.00    +0.000 A 
ATOM     23  C   UNL     1       1.930   8.319  18.622  0.00  0.00    +0.000 A 
ATOM     24  C   UNL     1       1.387   9.598  18.750  0.00  0.00    +0.000 A 
ATOM     25  C   UNL     1       0.835  10.006  19.963  0.00  0.00    +0.000 A 
ATOM     26  C   UNL     1       0.821   9.138  21.065  0.00  0.00    +0.000 A 
ATOM     27  C   UNL     1       1.383   7.857  20.929  0.00  0.00    +0.000 A 
BRANCH  26  28
ATOM     28  C   UNL     1       0.200   9.552  22.376  0.00  0.00    +0.000 C 
ATOM     29  F   UNL     1       0.988   9.296  23.458  0.00  0.00    +0.000 F 
ATOM     30  F   UNL     1      -0.072  10.886  22.425  0.00  0.00    +0.000 F 
ATOM     31  F   UNL     1      -0.981   8.921  22.621  0.00  0.00    +0.000 F 
ENDBRANCH  26  28
ENDBRANCH  21  22
ENDBRANCH   6  21
TORSDOF 8
ENDMDL
MODEL 6
REMARK VINA RESULT:      -7.0      1.018      1.754
REMARK  Name = 
REMARK  11 active torsions:
REMARK  status: ('A' for Active; 'I' for Inactive)
REMARK    1  A    between atoms: C_1  and  N_2
REMARK    2  A    between atoms: N_2  and  C_3
REMARK    3  A    between atoms: C_3  and  C_4
REMARK    4  A    between atoms: C_3  and  C_8
REMARK    5  A    between atoms: C_4  and  C_5
REMARK    6  A    between atoms: C_5  and  C_6
REMARK    7  A    between atoms: C_5  and  C_7
REMARK    8  A    between atoms: N_10  and  C_11
REMARK    9  A    between atoms: N_16  and  C_17
REMARK   10  A    between atoms: C_17  and  C_18
REMARK   11  A    between atoms: C_22  and  C_23
REMARK                            x       y       z     vdW  Elec       q    Type
REMARK                         _______ _______ _______ _____ _____    ______ ____
ROOT
ATOM      1  C   UNL     1       2.603   6.028  18.130  0.00  0.00    +0.000 C 
ATOM      2  C   UNL     1       1.611   4.886  17.905  0.00  0.00    +0.000 C 
ATOM      3  C   UNL     1       2.472   3.785  17.311  0.00  0.00    +0.000 C 
ATOM      4  C   UNL     1       3.775   3.864  18.107  0.00  0.00    +0.000 C 
ATOM      5  C   UNL     1       5.020   3.562  17.287  0.00  0.00    +0.000 C 
ATOM      6  N   UNL     1       5.363   4.866  16.699  0.00  0.00    +0.000 NA
ATOM      7  C   UNL     1       5.168   5.832  17.791  0.00  0.00    +0.000 C 
ATOM      8  C   UNL     1       3.922   5.336  18.535  0.00  0.00    +0.000 C 
ENDROOT
BRANCH   1  11
ATOM      9  C   UNL     1       1.693   8.303  18.756  0.00  0.00    +0.000 C 
ATOM     10  O   UNL     1       1.746   8.774  17.626  0.00  0.00    +0.000 OA
ATOM     11  N   UNL     1       2.133   7.028  19.079  0.00  0.00    +0.000 N 
ATOM     12  H   UNL     1       1.980   6.759  20.051  0.00  0.00    +0.000 HD
BRANCH   9  13
ATOM     13  C   UNL     1       1.108   9.099  19.955  0.00  0.00    +0.000 C 
BRANCH  13  15
ATOM     14  C   UNL     1       1.196   9.156  22.422  0.00  0.00    +0.000 C 
ATOM     15  N   UNL     1       1.628   8.465  21.212  0.00  0.00    +0.000 NA
ATOM     16  H   UNL     1       1.252   7.515  21.241  0.00  0.00    +0.000 HD
ENDBRANCH  13  15
BRANCH  13  17
ATOM     17  C   UNL     1       1.443  10.601  19.883  0.00  0.00    +0.000 C 
BRANCH  17  18
ATOM     18  C   UNL     1       0.258  11.595  19.816  0.00  0.00    +0.000 C 
ATOM     19  C   UNL     1       0.359  12.608  18.671  0.00  0.00    +0.000 C 
ATOM     20  C   UNL     1      -1.046  10.800  19.665  0.00  0.00    +0.000 C 
ENDBRANCH  17  18
ENDBRANCH  13  17
ENDBRANCH   9  13
ENDBRANCH   1  11
BRANCH   6  21
ATOM     21  C   UNL     1       6.737   4.852  16.176  0.00  0.00    +0.000 C 
BRANCH  21  22
ATOM     22  C   UNL     1       6.816   4.751  14.666  0.00  0.00    +0.000 A 
ATOM     23  C   UNL     1       7.899   5.307  13.972  0.00  0.00    +0.000 A 
ATOM     24  C   UNL     1       7.989   5.186  12.584  0.00  0.00    +0.000 A 
ATOM     25  C   UNL     1       7.003   4.500  11.877  0.00  0.00    +0.000 A 
ATOM     26  C   UNL     1       5.913   3.928  12.549  0.00  0.00    +0.000 A 
ATOM     27  C   UNL     1       5.825   4.068  13.945  0.00  0.00    +0.000 A 
BRANCH  26  28
ATOM     28  C   UNL     1       4.854   3.156  11.802  0.00  0.00    +0.000 C 
ATOM     29  F   UNL     1       4.429   3.774  10.664  0.00  0.00    +0.000 F 
ATOM     30  F   UNL     1       5.284   1.923  11.415  0.00  0.00    +0.000 F 
ATOM     31  F   UNL     1       3.734   2.944  12.548  0.00  0.00    +0.000 F 
ENDBRANCH  26  28
ENDBRANCH  21  22
ENDBRANCH   6  21
TORSDOF 8
ENDMDL
MODEL 7
REMARK VINA RESULT:      -7.0      1.031      1.241
REMARK  Name = 
REMARK  11 active torsions:
REMARK  status: ('A' for Active; 'I' for Inactive)
REMARK    1  A    between atoms: C_1  and  N_2
REMARK    2  A    between atoms: N_2  and  C_3
REMARK    3  A    between atoms: C_3  and  C_4
REMARK    4  A    between atoms: C_3  and  C_8
REMARK    5  A    between atoms: C_4  and  C_5
REMARK    6  A    between atoms: C_5  and  C_6
REMARK    7  A    between atoms: C_5  and  C_7
REMARK    8  A    between atoms: N_10  and  C_11
REMARK    9  A    between atoms: N_16  and  C_17
REMARK   10  A    between atoms: C_17  and  C_18
REMARK   11  A    between atoms: C_22  and  C_23
REMARK                            x       y       z     vdW  Elec       q    Type
REMARK                         _______ _______ _______ _____ _____    ______ ____
ROOT
ATOM      1  C   UNL     1       2.677   6.284  17.821  0.00  0.00    +0.000 C 
ATOM      2  C   UNL     1       1.730   5.096  17.995  0.00  0.00    +0.000 C 
ATOM      3  C   UNL     1       2.623   3.894  17.741  0.00  0.00    +0.000 C 
ATOM      4  C   UNL     1       3.940   4.260  18.427  0.00  0.00    +0.000 C 
ATOM      5  C   UNL     1       5.177   3.760  17.697  0.00  0.00    +0.000 C 
ATOM      6  N   UNL     1       5.450   4.828  16.723  0.00  0.00    +0.000 NA
ATOM      7  C   UNL     1       5.240   6.078  17.469  0.00  0.00    +0.000 C 
ATOM      8  C   UNL     1       4.034   5.796  18.374  0.00  0.00    +0.000 C 
ENDROOT
BRANCH   1  11
ATOM      9  C   UNL     1       1.808   7.660  19.757  0.00  0.00    +0.000 C 
ATOM     10  O   UNL     1       1.747   6.730  20.553  0.00  0.00    +0.000 OA
ATOM     11  N   UNL     1       2.187   7.513  18.431  0.00  0.00    +0.000 N 
ATOM     12  H   UNL     1       2.237   8.384  17.905  0.00  0.00    +0.000 HD
BRANCH   9  13
ATOM     13  C   UNL     1       1.472   9.120  20.167  0.00  0.00    +0.000 C 
BRANCH  13  15
ATOM     14  C   UNL     1       0.017  10.071  18.414  0.00  0.00    +0.000 C 
ATOM     15  N   UNL     1       1.382   9.931  18.907  0.00  0.00    +0.000 NA
ATOM     16  H   UNL     1       1.734  10.864  19.131  0.00  0.00    +0.000 HD
ENDBRANCH  13  15
BRANCH  13  17
ATOM     17  C   UNL     1       0.185   9.213  21.009  0.00  0.00    +0.000 C 
BRANCH  17  18
ATOM     18  C   UNL     1       0.136  10.287  22.122  0.00  0.00    +0.000 C 
ATOM     19  C   UNL     1      -0.602  11.567  21.720  0.00  0.00    +0.000 C 
ATOM     20  C   UNL     1      -0.545   9.686  23.359  0.00  0.00    +0.000 C 
ENDBRANCH  17  18
ENDBRANCH  13  17
ENDBRANCH   9  13
ENDBRANCH   1  11
BRANCH   6  21
ATOM     21  C   UNL     1       6.811   4.698  16.182  0.00  0.00    +0.000 C 
BRANCH  21  22
ATOM     22  C   UNL     1       6.866   4.652  14.669  0.00  0.00    +0.000 A 
ATOM     23  C   UNL     1       7.926   5.253  13.976  0.00  0.00    +0.000 A 
ATOM     24  C   UNL     1       7.993   5.182  12.584  0.00  0.00    +0.000 A 
ATOM     25  C   UNL     1       7.009   4.502  11.869  0.00  0.00    +0.000 A 
ATOM     26  C   UNL     1       5.941   3.885  12.539  0.00  0.00    +0.000 A 
ATOM     27  C   UNL     1       5.876   3.975  13.940  0.00  0.00    +0.000 A 
BRANCH  26  28
ATOM     28  C   UNL     1       4.884   3.120  11.784  0.00  0.00    +0.000 C 
ATOM     29  F   UNL     1       4.529   3.701  10.603  0.00  0.00    +0.000 F 
ATOM     30  F   UNL     1       5.282   1.856  11.468  0.00  0.00    +0.000 F 
ATOM     31  F   UNL     1       3.729   2.982  12.491  0.00  0.00    +0.000 F 
ENDBRANCH  26  28
ENDBRANCH  21  22
ENDBRANCH   6  21
TORSDOF 8
ENDMDL
MODEL 8
REMARK VINA RESULT:      -6.8      6.655     10.383
REMARK  Name = 
REMARK  11 active torsions:
REMARK  status: ('A' for Active; 'I' for Inactive)
REMARK    1  A    between atoms: C_1  and  N_2
REMARK    2  A    between atoms: N_2  and  C_3
REMARK    3  A    between atoms: C_3  and  C_4
REMARK    4  A    between atoms: C_3  and  C_8
REMARK    5  A    between atoms: C_4  and  C_5
REMARK    6  A    between atoms: C_5  and  C_6
REMARK    7  A    between atoms: C_5  and  C_7
REMARK    8  A    between atoms: N_10  and  C_11
REMARK    9  A    between atoms: N_16  and  C_17
REMARK   10  A    between atoms: C_17  and  C_18
REMARK   11  A    between atoms: C_22  and  C_23
REMARK                            x       y       z     vdW  Elec       q    Type
REMARK                         _______ _______ _______ _____ _____    ______ ____
ROOT
ATOM      1  C   UNL     1       1.199   8.978  21.108  0.00  0.00    +0.000 C 
ATOM      2  C   UNL     1       0.792   9.228  22.561  0.00  0.00    +0.000 C 
ATOM      3  C   UNL     1       0.011  10.528  22.487  0.00  0.00    +0.000 C 
ATOM      4  C   UNL     1      -0.811  10.395  21.204  0.00  0.00    +0.000 C 
ATOM      5  C   UNL     1      -0.986  11.702  20.444  0.00  0.00    +0.000 C 
ATOM      6  N   UNL     1       0.218  11.768  19.602  0.00  0.00    +0.000 NA
ATOM      7  C   UNL     1       0.395  10.400  19.092  0.00  0.00    +0.000 C 
ATOM      8  C   UNL     1       0.011   9.492  20.266  0.00  0.00    +0.000 C 
ENDROOT
BRANCH   1  11
ATOM      9  C   UNL     1       2.237   7.146  19.706  0.00  0.00    +0.000 C 
ATOM     10  O   UNL     1       2.498   7.858  18.744  0.00  0.00    +0.000 OA
ATOM     11  N   UNL     1       1.573   7.596  20.838  0.00  0.00    +0.000 N 
ATOM     12  H   UNL     1       1.470   6.899  21.575  0.00  0.00    +0.000 HD
BRANCH   9  13
ATOM     13  C   UNL     1       2.641   5.646  19.757  0.00  0.00    +0.000 C 
BRANCH  13  15
ATOM     14  C   UNL     1       4.683   4.547  18.910  0.00  0.00    +0.000 C 
ATOM     15  N   UNL     1       4.140   5.586  19.778  0.00  0.00    +0.000 NA
ATOM     16  H   UNL     1       4.477   6.489  19.438  0.00  0.00    +0.000 HD
ENDBRANCH  13  15
BRANCH  13  17
ATOM     17  C   UNL     1       2.014   4.909  20.955  0.00  0.00    +0.000 C 
BRANCH  17  18
ATOM     18  C   UNL     1       1.109   3.692  20.651  0.00  0.00    +0.000 C 
ATOM     19  C   UNL     1       1.165   3.223  19.194  0.00  0.00    +0.000 C 
ATOM     20  C   UNL     1       1.519   2.530  21.566  0.00  0.00    +0.000 C 
ENDBRANCH  17  18
ENDBRANCH  13  17
ENDBRANCH   9  13
ENDBRANCH   1  11
BRANCH   6  21
ATOM     21  C   UNL     1       0.049  12.767  18.537  0.00  0.00    +0.000 C 
BRANCH  21  22
ATOM     22  C   UNL     1       1.014  13.931  18.630  0.00  0.00    +0.000 A 
ATOM     23  C   UNL     1       2.329  13.805  18.161  0.00  0.00    +0.000 A 
ATOM     24  C   UNL     1       3.209  14.887  18.218  0.00  0.00    +0.000 A 
ATOM     25  C   UNL     1       2.782  16.110  18.734  0.00  0.00    +0.000 A 
ATOM     26  C   UNL     1       1.469  16.264  19.203  0.00  0.00    +0.000 A 
ATOM     27  C   UNL     1       0.596  15.163  19.155  0.00  0.00    +0.000 A 
BRANCH  26  28
ATOM     28  C   UNL     1       0.982  17.587  19.737  0.00  0.00    +0.000 C 
ATOM     29  F   UNL     1      -0.361  17.620  19.972  0.00  0.00    +0.000 F 
ATOM     30  F   UNL     1       1.572  17.922  20.918  0.00  0.00    +0.000 F 
ATOM     31  F   UNL     1       1.233  18.622  18.888  0.00  0.00    +0.000 F 
ENDBRANCH  26  28
ENDBRANCH  21  22
ENDBRANCH   6  21
TORSDOF 8
ENDMDL
MODEL 9
REMARK VINA RESULT:      -6.8      5.864      8.020
REMARK  Name = 
REMARK  11 active torsions:
REMARK  status: ('A' for Active; 'I' for Inactive)
REMARK    1  A    between atoms: C_1  and  N_2
REMARK    2  A    between atoms: N_2  and  C_3
REMARK    3  A    between atoms: C_3  and  C_4
REMARK    4  A    between atoms: C_3  and  C_8
REMARK    5  A    between atoms: C_4  and  C_5
REMARK    6  A    between atoms: C_5  and  C_6
REMARK    7  A    between atoms: C_5  and  C_7
REMARK    8  A    between atoms: N_10  and  C_11
REMARK    9  A    between atoms: N_16  and  C_17
REMARK   10  A    between atoms: C_17  and  C_18
REMARK   11  A    between atoms: C_22  and  C_23
REMARK                            x       y       z     vdW  Elec       q    Type
REMARK                         _______ _______ _______ _____ _____    ______ ____
ROOT
ATOM      1  C   UNL     1       7.575   7.971  18.272  0.00  0.00    +0.000 C 
ATOM      2  C   UNL     1       8.513   6.998  18.989  0.00  0.00    +0.000 C 
ATOM      3  C   UNL     1       7.768   5.677  18.919  0.00  0.00    +0.000 C 
ATOM      4  C   UNL     1       7.164   5.666  17.513  0.00  0.00    +0.000 C 
ATOM      5  C   UNL     1       5.792   5.011  17.435  0.00  0.00    +0.000 C 
ATOM      6  N   UNL     1       4.873   6.112  17.763  0.00  0.00    +0.000 NA
ATOM      7  C   UNL     1       5.404   7.273  17.034  0.00  0.00    +0.000 C 
ATOM      8  C   UNL     1       6.928   7.141  17.142  0.00  0.00    +0.000 C 
ENDROOT
BRANCH   1  11
ATOM      9  C   UNL     1       8.963  10.056  18.621  0.00  0.00    +0.000 C 
ATOM     10  O   UNL     1       9.049   9.946  19.838  0.00  0.00    +0.000 OA
ATOM     11  N   UNL     1       8.235   9.189  17.821  0.00  0.00    +0.000 N 
ATOM     12  H   UNL     1       8.296   9.380  16.821  0.00  0.00    +0.000 HD
BRANCH   9  13
ATOM     13  C   UNL     1       9.682  11.192  17.843  0.00  0.00    +0.000 C 
BRANCH  13  15
ATOM     14  C   UNL     1       7.868  12.743  17.210  0.00  0.00    +0.000 C 
ATOM     15  N   UNL     1       8.956  12.472  18.142  0.00  0.00    +0.000 NA
ATOM     16  H   UNL     1       8.553  12.371  19.076  0.00  0.00    +0.000 HD
ENDBRANCH  13  15
BRANCH  13  17
ATOM     17  C   UNL     1      11.181  11.283  18.187  0.00  0.00    +0.000 C 
BRANCH  17  18
ATOM     18  C   UNL     1      11.706  12.628  18.744  0.00  0.00    +0.000 C 
ATOM     19  C   UNL     1      11.430  13.828  17.834  0.00  0.00    +0.000 C 
ATOM     20  C   UNL     1      11.061  12.881  20.114  0.00  0.00    +0.000 C 
ENDBRANCH  17  18
ENDBRANCH  13  17
ENDBRANCH   9  13
ENDBRANCH   1  11
BRANCH   6  21
ATOM     21  C   UNL     1       3.497   5.767  17.380  0.00  0.00    +0.000 C 
BRANCH  21  22
ATOM     22  C   UNL     1       2.998   4.472  17.988  0.00  0.00    +0.000 A 
ATOM     23  C   UNL     1       2.776   3.346  17.183  0.00  0.00    +0.000 A 
ATOM     24  C   UNL     1       2.348   2.144  17.746  0.00  0.00    +0.000 A 
ATOM     25  C   UNL     1       2.147   2.049  19.123  0.00  0.00    +0.000 A 
ATOM     26  C   UNL     1       2.370   3.158  19.952  0.00  0.00    +0.000 A 
ATOM     27  C   UNL     1       2.787   4.369  19.371  0.00  0.00    +0.000 A 
BRANCH  26  28
ATOM     28  C   UNL     1       2.186   3.064  21.446  0.00  0.00    +0.000 C 
ATOM     29  F   UNL     1       2.394   4.244  22.096  0.00  0.00    +0.000 F 
ATOM     30  F   UNL     1       0.930   2.668  21.793  0.00  0.00    +0.000 F 
ATOM     31  F   UNL     1       3.034   2.169  22.025  0.00  0.00    +0.000 F 
ENDBRANCH  26  28
ENDBRANCH  21  22
ENDBRANCH   6  21
TORSDOF 8
ENDMDL
