MODEL 1
REMARK VINA RESULT:      -7.8      0.000      0.000
REMARK  Name = 
REMARK  6 active torsions:
REMARK  status: ('A' for Active; 'I' for Inactive)
REMARK    1  A    between atoms: C_1  and  C_2
REMARK    2  A    between atoms: C_5  and  C_6
REMARK    3  A    between atoms: C_6  and  S_7
REMARK    4  A    between atoms: S_7  and  C_8
REMARK    5  A    between atoms: C_13  and  C_15
REMARK    6  A    between atoms: C_18  and  N_19
REMARK                            x       y       z     vdW  Elec       q    Type
REMARK                         _______ _______ _______ _____ _____    ______ ____
ROOT
ATOM      1  C   UNL     1       0.782  10.094  20.222  0.00  0.00    +0.000 C 
ATOM      2  N   UNL     1       0.624  10.142  21.511  0.00  0.00    +0.000 NA
ATOM      3  C   UNL     1       1.289   8.934  22.031  0.00  0.00    +0.000 C 
ATOM      4  C   UNL     1       1.531   8.055  20.823  0.00  0.00    +0.000 C 
ATOM      5  N   UNL     1       1.425   8.956  19.707  0.00  0.00    +0.000 N 
ATOM      6  C   UNL     1       1.880   8.722  18.401  0.00  0.00    +0.000 C 
ATOM      7  O   UNL     1       1.813   9.545  17.491  0.00  0.00    +0.000 OA
ENDROOT
BRANCH   6   8
ATOM      8  C   UNL     1       2.608   7.457  18.053  0.00  0.00    +0.000 A 
ATOM      9  C   UNL     1       3.888   7.410  17.487  0.00  0.00    +0.000 A 
ATOM     10  C   UNL     1       4.474   6.183  17.150  0.00  0.00    +0.000 A 
ATOM     11  C   UNL     1       3.807   4.985  17.442  0.00  0.00    +0.000 A 
ATOM     12  C   UNL     1       2.562   5.010  18.077  0.00  0.00    +0.000 A 
ATOM     13  C   UNL     1       1.969   6.243  18.374  0.00  0.00    +0.000 A 
BRANCH  11  14
ATOM     14  N   UNL     1       4.423   3.700  17.085  0.00  0.00    +0.000 N 
ATOM     15  O   UNL     1       5.545   3.730  16.560  0.00  0.00    +0.000 OA
ATOM     16  O   UNL     1       3.781   2.667  17.321  0.00  0.00    +0.000 OA
ENDBRANCH  11  14
ENDBRANCH   6   8
BRANCH   1  17
ATOM     17  S   UNL     1       0.163  11.329  19.183  0.00  0.00    +0.000 S 
BRANCH  17  18
ATOM     18  C   UNL     1      -1.627  11.088  19.344  0.00  0.00    +0.000 C 
BRANCH  18  23
ATOM     19  C   UNL     1      -4.013  10.110  14.100  0.00  0.00    +0.000 C 
ATOM     20  C   UNL     1      -3.403  10.347  15.449  0.00  0.00    +0.000 A 
ATOM     21  C   UNL     1      -2.244   9.668  15.843  0.00  0.00    +0.000 A 
ATOM     22  C   UNL     1      -1.678   9.899  17.104  0.00  0.00    +0.000 A 
ATOM     23  C   UNL     1      -2.261  10.811  17.997  0.00  0.00    +0.000 A 
ATOM     24  C   UNL     1      -3.420  11.492  17.594  0.00  0.00    +0.000 A 
ATOM     25  C   UNL     1      -3.985  11.260  16.336  0.00  0.00    +0.000 A 
ENDBRANCH  18  23
ENDBRANCH  17  18
ENDBRANCH   1  17
TORSDOF 5
ENDMDL
MODEL 2
REMARK VINA RESULT:      -7.6      4.640      9.276
REMARK  Name = 
REMARK  6 active torsions:
REMARK  status: ('A' for Active; 'I' for Inactive)
REMARK    1  A    between atoms: C_1  and  C_2
REMARK    2  A    between atoms: C_5  and  C_6
REMARK    3  A    between atoms: C_6  and  S_7
REMARK    4  A    between atoms: S_7  and  C_8
REMARK    5  A    between atoms: C_13  and  C_15
REMARK    6  A    between atoms: C_18  and  N_19
REMARK                            x       y       z     vdW  Elec       q    Type
REMARK                         _______ _______ _______ _____ _____    ______ ____
ROOT
ATOM      1  C   UNL     1       0.354   9.695  20.315  0.00  0.00    +0.000 C 
ATOM      2  N   UNL     1       0.445   9.813  19.024  0.00  0.00    +0.000 NA
ATOM      3  C   UNL     1      -0.248  11.072  18.696  0.00  0.00    +0.000 C 
ATOM      4  C   UNL     1      -1.019  11.444  19.944  0.00  0.00    +0.000 C 
ATOM      5  N   UNL     1      -0.387  10.681  20.988  0.00  0.00    +0.000 N 
ATOM      6  C   UNL     1      -0.502  10.902  22.368  0.00  0.00    +0.000 C 
ATOM      7  O   UNL     1       0.100  10.254  23.221  0.00  0.00    +0.000 OA
ENDROOT
BRANCH   6   8
ATOM      8  C   UNL     1      -1.298  12.058  22.900  0.00  0.00    +0.000 A 
ATOM      9  C   UNL     1      -0.830  13.375  22.973  0.00  0.00    +0.000 A 
ATOM     10  C   UNL     1      -1.626  14.385  23.529  0.00  0.00    +0.000 A 
ATOM     11  C   UNL     1      -2.928  14.093  23.958  0.00  0.00    +0.000 A 
ATOM     12  C   UNL     1      -3.440  12.800  23.822  0.00  0.00    +0.000 A 
ATOM     13  C   UNL     1      -2.622  11.791  23.300  0.00  0.00    +0.000 A 
BRANCH  11  14
ATOM     14  N   UNL     1      -3.759  15.154  24.544  0.00  0.00    +0.000 N 
ATOM     15  O   UNL     1      -4.908  15.291  24.101  0.00  0.00    +0.000 OA
ATOM     16  O   UNL     1      -3.259  15.851  25.437  0.00  0.00    +0.000 OA
ENDBRANCH  11  14
ENDBRANCH   6   8
BRANCH   1  17
ATOM     17  S   UNL     1       1.042   8.353  21.157  0.00  0.00    +0.000 S 
BRANCH  17  18
ATOM     18  C   UNL     1       2.226   7.718  19.939  0.00  0.00    +0.000 C 
BRANCH  18  23
ATOM     19  C   UNL     1       1.109   2.104  18.765  0.00  0.00    +0.000 C 
ATOM     20  C   UNL     1       1.410   3.542  19.063  0.00  0.00    +0.000 A 
ATOM     21  C   UNL     1       1.871   4.402  18.060  0.00  0.00    +0.000 A 
ATOM     22  C   UNL     1       2.145   5.746  18.346  0.00  0.00    +0.000 A 
ATOM     23  C   UNL     1       1.966   6.256  19.640  0.00  0.00    +0.000 A 
ATOM     24  C   UNL     1       1.498   5.389  20.640  0.00  0.00    +0.000 A 
ATOM     25  C   UNL     1       1.226   4.048  20.355  0.00  0.00    +0.000 A 
ENDBRANCH  18  23
ENDBRANCH  17  18
ENDBRANCH   1  17
TORSDOF 5
ENDMDL
MODEL 3
REMARK VINA RESULT:      -7.6      3.666      8.463
REMARK  Name = 
REMARK  6 active torsions:
REMARK  status: ('A' for Active; 'I' for Inactive)
REMARK    1  A    between atoms: C_1  and  C_2
REMARK    2  A    between atoms: C_5  and  C_6
REMARK    3  A    between atoms: C_6  and  S_7
REMARK    4  A    between atoms: S_7  and  C_8
REMARK    5  A    between atoms: C_13  and  C_15
REMARK    6  A    between atoms: C_18  and  N_19
REMARK                            x       y       z     vdW  Elec       q    Type
REMARK                         _______ _______ _______ _____ _____    ______ ____
ROOT
ATOM      1  C   UNL     1       3.823   4.130  17.232  0.00  0.00    +0.000 C 
ATOM      2  N   UNL     1       3.398   2.919  17.431  0.00  0.00    +0.000 NA
ATOM      3  C   UNL     1       2.249   3.053  18.345  0.00  0.00    +0.000 C 
ATOM      4  C   UNL     1       2.323   4.467  18.880  0.00  0.00    +0.000 C 
ATOM      5  N   UNL     1       3.174   5.152  17.944  0.00  0.00    +0.000 N 
ATOM      6  C   UNL     1       3.300   6.541  17.795  0.00  0.00    +0.000 C 
ATOM      7  O   UNL     1       4.003   7.081  16.943  0.00  0.00    +0.000 OA
ENDROOT
BRANCH   6   8
ATOM      8  C   UNL     1       2.467   7.483  18.613  0.00  0.00    +0.000 A 
ATOM      9  C   UNL     1       2.218   7.337  19.983  0.00  0.00    +0.000 A 
ATOM     10  C   UNL     1       1.388   8.241  20.658  0.00  0.00    +0.000 A 
ATOM     11  C   UNL     1       0.852   9.342  19.975  0.00  0.00    +0.000 A 
ATOM     12  C   UNL     1       1.151   9.547  18.626  0.00  0.00    +0.000 A 
ATOM     13  C   UNL     1       1.951   8.617  17.953  0.00  0.00    +0.000 A 
BRANCH  11  14
ATOM     14  N   UNL     1      -0.022  10.286  20.686  0.00  0.00    +0.000 N 
ATOM     15  O   UNL     1       0.171  10.442  21.900  0.00  0.00    +0.000 OA
ATOM     16  O   UNL     1      -0.902  10.861  20.031  0.00  0.00    +0.000 OA
ENDBRANCH  11  14
ENDBRANCH   6   8
BRANCH   1  17
ATOM     17  S   UNL     1       5.171   4.464  16.202  0.00  0.00    +0.000 S 
BRANCH  17  18
ATOM     18  C   UNL     1       6.566   4.274  17.344  0.00  0.00    +0.000 C 
BRANCH  18  23
ATOM     19  C   UNL     1       8.892   9.441  18.772  0.00  0.00    +0.000 C 
ATOM     20  C   UNL     1       8.282   8.121  18.407  0.00  0.00    +0.000 A 
ATOM     21  C   UNL     1       7.591   7.959  17.200  0.00  0.00    +0.000 A 
ATOM     22  C   UNL     1       7.028   6.721  16.863  0.00  0.00    +0.000 A 
ATOM     23  C   UNL     1       7.142   5.621  17.727  0.00  0.00    +0.000 A 
ATOM     24  C   UNL     1       7.841   5.789  18.932  0.00  0.00    +0.000 A 
ATOM     25  C   UNL     1       8.402   7.025  19.269  0.00  0.00    +0.000 A 
ENDBRANCH  18  23
ENDBRANCH  17  18
ENDBRANCH   1  17
TORSDOF 5
ENDMDL
MODEL 4
REMARK VINA RESULT:      -7.5      3.621      8.239
REMARK  Name = 
REMARK  6 active torsions:
REMARK  status: ('A' for Active; 'I' for Inactive)
REMARK    1  A    between atoms: C_1  and  C_2
REMARK    2  A    between atoms: C_5  and  C_6
REMARK    3  A    between atoms: C_6  and  S_7
REMARK    4  A    between atoms: S_7  and  C_8
REMARK    5  A    between atoms: C_13  and  C_15
REMARK    6  A    between atoms: C_18  and  N_19
REMARK                            x       y       z     vdW  Elec       q    Type
REMARK                         _______ _______ _______ _____ _____    ______ ____
ROOT
ATOM      1  C   UNL     1       3.360   4.100  19.529  0.00  0.00    +0.000 C 
ATOM      2  N   UNL     1       2.780   3.098  20.119  0.00  0.00    +0.000 NA
ATOM      3  C   UNL     1       1.515   3.636  20.651  0.00  0.00    +0.000 C 
ATOM      4  C   UNL     1       1.649   5.141  20.562  0.00  0.00    +0.000 C 
ATOM      5  N   UNL     1       2.713   5.344  19.615  0.00  0.00    +0.000 N 
ATOM      6  C   UNL     1       3.011   6.536  18.938  0.00  0.00    +0.000 C 
ATOM      7  O   UNL     1       3.900   6.646  18.098  0.00  0.00    +0.000 OA
ENDROOT
BRANCH   6   8
ATOM      8  C   UNL     1       2.157   7.757  19.115  0.00  0.00    +0.000 A 
ATOM      9  C   UNL     1       1.686   8.223  20.348  0.00  0.00    +0.000 A 
ATOM     10  C   UNL     1       0.853   9.348  20.415  0.00  0.00    +0.000 A 
ATOM     11  C   UNL     1       0.540  10.056  19.247  0.00  0.00    +0.000 A 
ATOM     12  C   UNL     1       1.064   9.651  18.017  0.00  0.00    +0.000 A 
ATOM     13  C   UNL     1       1.864   8.504  17.957  0.00  0.00    +0.000 A 
BRANCH  11  14
ATOM     14  N   UNL     1      -0.336  11.234  19.320  0.00  0.00    +0.000 N 
ATOM     15  O   UNL     1      -0.081  12.184  18.566  0.00  0.00    +0.000 OA
ATOM     16  O   UNL     1      -1.268  11.209  20.135  0.00  0.00    +0.000 OA
ENDBRANCH  11  14
ENDBRANCH   6   8
BRANCH   1  17
ATOM     17  S   UNL     1       4.890   3.931  18.743  0.00  0.00    +0.000 S 
BRANCH  17  18
ATOM     18  C   UNL     1       4.396   3.400  17.081  0.00  0.00    +0.000 C 
BRANCH  18  23
ATOM     19  C   UNL     1       8.093   5.436  13.039  0.00  0.00    +0.000 C 
ATOM     20  C   UNL     1       7.155   4.905  14.081  0.00  0.00    +0.000 A 
ATOM     21  C   UNL     1       7.356   5.187  15.438  0.00  0.00    +0.000 A 
ATOM     22  C   UNL     1       6.472   4.691  16.406  0.00  0.00    +0.000 A 
ATOM     23  C   UNL     1       5.372   3.903  16.038  0.00  0.00    +0.000 A 
ATOM     24  C   UNL     1       5.173   3.629  14.676  0.00  0.00    +0.000 A 
ATOM     25  C   UNL     1       6.056   4.122  13.710  0.00  0.00    +0.000 A 
ENDBRANCH  18  23
ENDBRANCH  17  18
ENDBRANCH   1  17
TORSDOF 5
ENDMDL
MODEL 5
REMARK VINA RESULT:      -7.5      3.821      8.251
REMARK  Name = 
REMARK  6 active torsions:
REMARK  status: ('A' for Active; 'I' for Inactive)
REMARK    1  A    between atoms: C_1  and  C_2
REMARK    2  A    between atoms: C_5  and  C_6
REMARK    3  A    between atoms: C_6  and  S_7
REMARK    4  A    between atoms: S_7  and  C_8
REMARK    5  A    between atoms: C_13  and  C_15
REMARK    6  A    between atoms: C_18  and  N_19
REMARK                            x       y       z     vdW  Elec       q    Type
REMARK                         _______ _______ _______ _____ _____    ______ ____
ROOT
ATOM      1  C   UNL     1       2.690   4.194  18.946  0.00  0.00    +0.000 C 
ATOM      2  N   UNL     1       2.386   3.106  19.589  0.00  0.00    +0.000 NA
ATOM      3  C   UNL     1       1.594   3.547  20.752  0.00  0.00    +0.000 C 
ATOM      4  C   UNL     1       1.799   5.044  20.834  0.00  0.00    +0.000 C 
ATOM      5  N   UNL     1       2.279   5.405  19.527  0.00  0.00    +0.000 N 
ATOM      6  C   UNL     1       2.312   6.696  18.978  0.00  0.00    +0.000 C 
ATOM      7  O   UNL     1       2.683   6.948  17.834  0.00  0.00    +0.000 OA
ENDROOT
BRANCH   6   8
ATOM      8  C   UNL     1       1.764   7.870  19.735  0.00  0.00    +0.000 A 
ATOM      9  C   UNL     1       1.557   7.893  21.119  0.00  0.00    +0.000 A 
ATOM     10  C   UNL     1       0.996   9.019  21.738  0.00  0.00    +0.000 A 
ATOM     11  C   UNL     1       0.700  10.159  20.978  0.00  0.00    +0.000 A 
ATOM     12  C   UNL     1       0.971  10.182  19.608  0.00  0.00    +0.000 A 
ATOM     13  C   UNL     1       1.496   9.038  18.994  0.00  0.00    +0.000 A 
BRANCH  11  14
ATOM     14  N   UNL     1       0.108  11.336  21.629  0.00  0.00    +0.000 N 
ATOM     15  O   UNL     1      -0.243  11.220  22.812  0.00  0.00    +0.000 OA
ATOM     16  O   UNL     1      -0.011  12.368  20.955  0.00  0.00    +0.000 OA
ENDBRANCH  11  14
ENDBRANCH   6   8
BRANCH   1  17
ATOM     17  S   UNL     1       3.619   4.160  17.489  0.00  0.00    +0.000 S 
BRANCH  17  18
ATOM     18  C   UNL     1       5.296   3.891  18.124  0.00  0.00    +0.000 C 
BRANCH  18  23
ATOM     19  C   UNL     1       8.400   8.835  17.854  0.00  0.00    +0.000 C 
ATOM     20  C   UNL     1       7.615   7.559  17.919  0.00  0.00    +0.000 A 
ATOM     21  C   UNL     1       7.955   6.552  18.831  0.00  0.00    +0.000 A 
ATOM     22  C   UNL     1       7.214   5.365  18.889  0.00  0.00    +0.000 A 
ATOM     23  C   UNL     1       6.120   5.159  18.035  0.00  0.00    +0.000 A 
ATOM     24  C   UNL     1       5.781   6.174  17.127  0.00  0.00    +0.000 A 
ATOM     25  C   UNL     1       6.522   7.359  17.068  0.00  0.00    +0.000 A 
ENDBRANCH  18  23
ENDBRANCH  17  18
ENDBRANCH   1  17
TORSDOF 5
ENDMDL
MODEL 6
REMARK VINA RESULT:      -7.5      3.670      8.317
REMARK  Name = 
REMARK  6 active torsions:
REMARK  status: ('A' for Active; 'I' for Inactive)
REMARK    1  A    between atoms: C_1  and  C_2
REMARK    2  A    between atoms: C_5  and  C_6
REMARK    3  A    between atoms: C_6  and  S_7
REMARK    4  A    between atoms: S_7  and  C_8
REMARK    5  A    between atoms: C_13  and  C_15
REMARK    6  A    between atoms: C_18  and  N_19
REMARK                            x       y       z     vdW  Elec       q    Type
REMARK                         _______ _______ _______ _____ _____    ______ ____
ROOT
ATOM      1  C   UNL     1       3.453   4.181  17.443  0.00  0.00    +0.000 C 
ATOM      2  N   UNL     1       2.959   3.000  17.665  0.00  0.00    +0.000 NA
ATOM      3  C   UNL     1       1.805   3.220  18.555  0.00  0.00    +0.000 C 
ATOM      4  C   UNL     1       1.948   4.640  19.057  0.00  0.00    +0.000 C 
ATOM      5  N   UNL     1       2.849   5.254  18.118  0.00  0.00    +0.000 N 
ATOM      6  C   UNL     1       3.054   6.630  17.938  0.00  0.00    +0.000 C 
ATOM      7  O   UNL     1       3.799   7.109  17.085  0.00  0.00    +0.000 OA
ENDROOT
BRANCH   6   8
ATOM      8  C   UNL     1       2.261   7.637  18.717  0.00  0.00    +0.000 A 
ATOM      9  C   UNL     1       1.706   8.802  18.173  0.00  0.00    +0.000 A 
ATOM     10  C   UNL     1       1.018   9.712  18.987  0.00  0.00    +0.000 A 
ATOM     11  C   UNL     1       0.823   9.426  20.345  0.00  0.00    +0.000 A 
ATOM     12  C   UNL     1       1.303   8.232  20.889  0.00  0.00    +0.000 A 
ATOM     13  C   UNL     1       2.021   7.348  20.075  0.00  0.00    +0.000 A 
BRANCH  11  14
ATOM     14  N   UNL     1       0.105  10.384  21.196  0.00  0.00    +0.000 N 
ATOM     15  O   UNL     1       0.519  10.545  22.353  0.00  0.00    +0.000 OA
ATOM     16  O   UNL     1      -0.876  10.965  20.711  0.00  0.00    +0.000 OA
ENDBRANCH  11  14
ENDBRANCH   6   8
BRANCH   1  17
ATOM     17  S   UNL     1       4.833   4.414  16.429  0.00  0.00    +0.000 S 
BRANCH  17  18
ATOM     18  C   UNL     1       6.196   4.271  17.617  0.00  0.00    +0.000 C 
BRANCH  18  23
ATOM     19  C   UNL     1       8.786   9.447  18.416  0.00  0.00    +0.000 C 
ATOM     20  C   UNL     1       8.135   8.113  18.208  0.00  0.00    +0.000 A 
ATOM     21  C   UNL     1       8.380   7.050  19.086  0.00  0.00    +0.000 A 
ATOM     22  C   UNL     1       7.763   5.808  18.888  0.00  0.00    +0.000 A 
ATOM     23  C   UNL     1       6.891   5.602  17.808  0.00  0.00    +0.000 A 
ATOM     24  C   UNL     1       6.646   6.674  16.935  0.00  0.00    +0.000 A 
ATOM     25  C   UNL     1       7.263   7.913  17.132  0.00  0.00    +0.000 A 
ENDBRANCH  18  23
ENDBRANCH  17  18
ENDBRANCH   1  17
TORSDOF 5
ENDMDL
MODEL 7
REMARK VINA RESULT:      -7.4      3.861      5.369
REMARK  Name = 
REMARK  6 active torsions:
REMARK  status: ('A' for Active; 'I' for Inactive)
REMARK    1  A    between atoms: C_1  and  C_2
REMARK    2  A    between atoms: C_5  and  C_6
REMARK    3  A    between atoms: C_6  and  S_7
REMARK    4  A    between atoms: S_7  and  C_8
REMARK    5  A    between atoms: C_13  and  C_15
REMARK    6  A    between atoms: C_18  and  N_19
REMARK                            x       y       z     vdW  Elec       q    Type
REMARK                         _______ _______ _______ _____ _____    ______ ____
ROOT
ATOM      1  C   UNL     1       1.779   4.840  19.800  0.00  0.00    +0.000 C 
ATOM      2  N   UNL     1       0.799   3.988  19.850  0.00  0.00    +0.000 NA
ATOM      3  C   UNL     1       0.972   3.124  18.668  0.00  0.00    +0.000 C 
ATOM      4  C   UNL     1       1.979   3.837  17.792  0.00  0.00    +0.000 C 
ATOM      5  N   UNL     1       2.626   4.763  18.683  0.00  0.00    +0.000 N 
ATOM      6  C   UNL     1       3.843   5.424  18.458  0.00  0.00    +0.000 C 
ATOM      7  O   UNL     1       4.383   6.167  19.274  0.00  0.00    +0.000 OA
ENDROOT
BRANCH   6   8
ATOM      8  C   UNL     1       4.645   5.162  17.217  0.00  0.00    +0.000 A 
ATOM      9  C   UNL     1       5.125   3.903  16.835  0.00  0.00    +0.000 A 
ATOM     10  C   UNL     1       5.908   3.758  15.682  0.00  0.00    +0.000 A 
ATOM     11  C   UNL     1       6.160   4.868  14.864  0.00  0.00    +0.000 A 
ATOM     12  C   UNL     1       5.625   6.117  15.188  0.00  0.00    +0.000 A 
ATOM     13  C   UNL     1       4.876   6.258  16.363  0.00  0.00    +0.000 A 
BRANCH  11  14
ATOM     14  N   UNL     1       6.984   4.712  13.658  0.00  0.00    +0.000 N 
ATOM     15  O   UNL     1       7.971   5.452  13.540  0.00  0.00    +0.000 OA
ATOM     16  O   UNL     1       6.637   3.860  12.828  0.00  0.00    +0.000 OA
ENDBRANCH  11  14
ENDBRANCH   6   8
BRANCH   1  17
ATOM     17  S   UNL     1       1.986   6.060  21.008  0.00  0.00    +0.000 S 
BRANCH  17  18
ATOM     18  C   UNL     1       1.781   7.579  20.040  0.00  0.00    +0.000 C 
BRANCH  18  23
ATOM     19  C   UNL     1      -1.302  11.578  22.981  0.00  0.00    +0.000 C 
ATOM     20  C   UNL     1      -0.523  10.547  22.220  0.00  0.00    +0.000 A 
ATOM     21  C   UNL     1      -0.439  10.598  20.823  0.00  0.00    +0.000 A 
ATOM     22  C   UNL     1       0.295   9.633  20.120  0.00  0.00    +0.000 A 
ATOM     23  C   UNL     1       0.957   8.599  20.798  0.00  0.00    +0.000 A 
ATOM     24  C   UNL     1       0.872   8.557  22.198  0.00  0.00    +0.000 A 
ATOM     25  C   UNL     1       0.139   9.519  22.900  0.00  0.00    +0.000 A 
ENDBRANCH  18  23
ENDBRANCH  17  18
ENDBRANCH   1  17
TORSDOF 5
ENDMDL
MODEL 8
REMARK VINA RESULT:      -7.4      0.809      1.203
REMARK  Name = 
REMARK  6 active torsions:
REMARK  status: ('A' for Active; 'I' for Inactive)
REMARK    1  A    between atoms: C_1  and  C_2
REMARK    2  A    between atoms: C_5  and  C_6
REMARK    3  A    between atoms: C_6  and  S_7
REMARK    4  A    between atoms: S_7  and  C_8
REMARK    5  A    between atoms: C_13  and  C_15
REMARK    6  A    between atoms: C_18  and  N_19
REMARK                            x       y       z     vdW  Elec       q    Type
REMARK                         _______ _______ _______ _____ _____    ______ ____
ROOT
ATOM      1  C   UNL     1       0.356  10.459  20.461  0.00  0.00    +0.000 C 
ATOM      2  N   UNL     1       0.095  10.642  21.721  0.00  0.00    +0.000 NA
ATOM      3  C   UNL     1       0.749   9.523  22.423  0.00  0.00    +0.000 C 
ATOM      4  C   UNL     1       1.111   8.527  21.342  0.00  0.00    +0.000 C 
ATOM      5  N   UNL     1       1.070   9.297  20.127  0.00  0.00    +0.000 N 
ATOM      6  C   UNL     1       1.634   8.938  18.894  0.00  0.00    +0.000 C 
ATOM      7  O   UNL     1       1.617   9.655  17.896  0.00  0.00    +0.000 OA
ENDROOT
BRANCH   6   8
ATOM      8  C   UNL     1       2.423   7.671  18.746  0.00  0.00    +0.000 A 
ATOM      9  C   UNL     1       2.280   6.547  19.570  0.00  0.00    +0.000 A 
ATOM     10  C   UNL     1       3.093   5.421  19.388  0.00  0.00    +0.000 A 
ATOM     11  C   UNL     1       4.014   5.387  18.332  0.00  0.00    +0.000 A 
ATOM     12  C   UNL     1       4.117   6.468  17.453  0.00  0.00    +0.000 A 
ATOM     13  C   UNL     1       3.326   7.603  17.667  0.00  0.00    +0.000 A 
BRANCH  11  14
ATOM     14  N   UNL     1       4.868   4.206  18.146  0.00  0.00    +0.000 N 
ATOM     15  O   UNL     1       5.649   4.210  17.184  0.00  0.00    +0.000 OA
ATOM     16  O   UNL     1       4.750   3.276  18.955  0.00  0.00    +0.000 OA
ENDBRANCH  11  14
ENDBRANCH   6   8
BRANCH   1  17
ATOM     17  S   UNL     1      -0.212  11.550  19.247  0.00  0.00    +0.000 S 
BRANCH  17  18
ATOM     18  C   UNL     1      -2.000  11.257  19.291  0.00  0.00    +0.000 C 
BRANCH  18  23
ATOM     19  C   UNL     1      -3.967   9.972  13.940  0.00  0.00    +0.000 C 
ATOM     20  C   UNL     1      -3.465  10.288  15.317  0.00  0.00    +0.000 A 
ATOM     21  C   UNL     1      -2.315   9.668  15.823  0.00  0.00    +0.000 A 
ATOM     22  C   UNL     1      -1.850   9.972  17.109  0.00  0.00    +0.000 A 
ATOM     23  C   UNL     1      -2.526  10.900  17.916  0.00  0.00    +0.000 A 
ATOM     24  C   UNL     1      -3.674  11.522  17.401  0.00  0.00    +0.000 A 
ATOM     25  C   UNL     1      -4.139  11.217  16.118  0.00  0.00    +0.000 A 
ENDBRANCH  18  23
ENDBRANCH  17  18
ENDBRANCH   1  17
TORSDOF 5
ENDMDL
MODEL 9
REMARK VINA RESULT:      -7.4      4.602      9.311
REMARK  Name = 
REMARK  6 active torsions:
REMARK  status: ('A' for Active; 'I' for Inactive)
REMARK    1  A    between atoms: C_1  and  C_2
REMARK    2  A    between atoms: C_5  and  C_6
REMARK    3  A    between atoms: C_6  and  S_7
REMARK    4  A    between atoms: S_7  and  C_8
REMARK    5  A    between atoms: C_13  and  C_15
REMARK    6  A    between atoms: C_18  and  N_19
REMARK                            x       y       z     vdW  Elec       q    Type
REMARK                         _______ _______ _______ _____ _____    ______ ____
ROOT
ATOM      1  C   UNL     1       0.350   9.712  20.304  0.00  0.00    +0.000 C 
ATOM      2  N   UNL     1       0.426   9.824  19.011  0.00  0.00    +0.000 NA
ATOM      3  C   UNL     1      -0.334  11.043  18.678  0.00  0.00    +0.000 C 
ATOM      4  C   UNL     1      -1.115  11.384  19.929  0.00  0.00    +0.000 C 
ATOM      5  N   UNL     1      -0.438  10.663  20.974  0.00  0.00    +0.000 N 
ATOM      6  C   UNL     1      -0.555  10.889  22.353  0.00  0.00    +0.000 C 
ATOM      7  O   UNL     1       0.086  10.281  23.207  0.00  0.00    +0.000 OA
ENDROOT
BRANCH   6   8
ATOM      8  C   UNL     1      -1.407  12.006  22.882  0.00  0.00    +0.000 A 
ATOM      9  C   UNL     1      -2.723  11.853  23.333  0.00  0.00    +0.000 A 
ATOM     10  C   UNL     1      -3.462  12.961  23.768  0.00  0.00    +0.000 A 
ATOM     11  C   UNL     1      -2.860  14.226  23.817  0.00  0.00    +0.000 A 
ATOM     12  C   UNL     1      -1.524  14.385  23.443  0.00  0.00    +0.000 A 
ATOM     13  C   UNL     1      -0.807  13.277  22.975  0.00  0.00    +0.000 A 
BRANCH  11  14
ATOM     14  N   UNL     1      -3.639  15.387  24.270  0.00  0.00    +0.000 N 
ATOM     15  O   UNL     1      -3.010  16.369  24.689  0.00  0.00    +0.000 OA
ATOM     16  O   UNL     1      -4.874  15.310  24.215  0.00  0.00    +0.000 OA
ENDBRANCH  11  14
ENDBRANCH   6   8
BRANCH   1  17
ATOM     17  S   UNL     1       1.114   8.414  21.151  0.00  0.00    +0.000 S 
BRANCH  17  18
ATOM     18  C   UNL     1       2.235   7.755  19.888  0.00  0.00    +0.000 C 
BRANCH  18  23
ATOM     19  C   UNL     1       1.134   2.131  18.743  0.00  0.00    +0.000 C 
ATOM     20  C   UNL     1       1.402   3.576  19.040  0.00  0.00    +0.000 A 
ATOM     21  C   UNL     1       1.220   4.091  20.330  0.00  0.00    +0.000 A 
ATOM     22  C   UNL     1       1.478   5.441  20.600  0.00  0.00    +0.000 A 
ATOM     23  C   UNL     1       1.920   6.305  19.586  0.00  0.00    +0.000 A 
ATOM     24  C   UNL     1       2.106   5.781  18.297  0.00  0.00    +0.000 A 
ATOM     25  C   UNL     1       1.847   4.434  18.027  0.00  0.00    +0.000 A 
ENDBRANCH  18  23
ENDBRANCH  17  18
ENDBRANCH   1  17
TORSDOF 5
ENDMDL
