MODEL 1
REMARK VINA RESULT:      -7.2      0.000      0.000
REMARK  Name = 
REMARK  5 active torsions:
REMARK  status: ('A' for Active; 'I' for Inactive)
REMARK    1  A    between atoms: C_1  and  C_2
REMARK    2  A    between atoms: C_2  and  C_3
REMARK    3  A    between atoms: N_6  and  C_7
REMARK    4  A    between atoms: C_10  and  N_11
REMARK    5  A    between atoms: C_12  and  C_14
REMARK                            x       y       z     vdW  Elec       q    Type
REMARK                         _______ _______ _______ _____ _____    ______ ____
ROOT
ATOM      1  C   UNL     1       2.864   7.182  18.475  0.00  0.00    +0.000 A 
ATOM      2  C   UNL     1       2.484   8.400  17.890  0.00  0.00    +0.000 A 
ATOM      3  C   UNL     1       1.571   9.271  18.493  0.00  0.00    +0.000 A 
ATOM      4  C   UNL     1       1.009   8.972  19.727  0.00  0.00    +0.000 A 
ATOM      5  C   UNL     1       1.430   7.812  20.381  0.00  0.00    +0.000 A 
ATOM      6  C   UNL     1       2.327   6.921  19.758  0.00  0.00    +0.000 A 
ATOM      7 CL   UNL     1       2.597   5.429  20.608  0.00  0.00    +0.000 Cl
ENDROOT
BRANCH   1  11
ATOM      8  C   UNL     1       5.585   4.335  16.864  0.00  0.00    +0.000 C 
ATOM      9  C   UNL     1       4.347   3.968  17.704  0.00  0.00    +0.000 C 
ATOM     10  C   UNL     1       3.180   4.931  17.487  0.00  0.00    +0.000 C 
ATOM     11  N   UNL     1       3.651   6.293  17.753  0.00  0.00    +0.000 N 
ATOM     12  C   UNL     1       4.727   6.749  16.873  0.00  0.00    +0.000 C 
ATOM     13  C   UNL     1       5.934   5.826  17.076  0.00  0.00    +0.000 C 
BRANCH   8  15
ATOM     14  C   UNL     1       6.611   4.457  14.517  0.00  0.00    +0.000 C 
ATOM     15  C   UNL     1       5.425   4.014  15.365  0.00  0.00    +0.000 C 
ENDBRANCH   8  15
ENDBRANCH   1  11
BRANCH   4  16
ATOM     16  N   UNL     1       0.022   9.769  20.341  0.00  0.00    +0.000 N 
ATOM     17  C   UNL     1       0.242  10.784  21.263  0.00  0.00    +0.000 C 
ATOM     18  O   UNL     1       1.345  11.146  21.664  0.00  0.00    +0.000 OA
ATOM     19  H   UNL     1      -0.934   9.678  20.019  0.00  0.00    +0.000 HD
BRANCH  17  20
ATOM     20  C   UNL     1      -0.968  11.440  21.714  0.00  0.00    +0.000 A 
ATOM     21  C   UNL     1      -1.528  11.505  22.975  0.00  0.00    +0.000 A 
ATOM     22  C   UNL     1      -2.713  12.266  22.857  0.00  0.00    +0.000 A 
ATOM     23  C   UNL     1      -2.804  12.626  21.533  0.00  0.00    +0.000 A 
ATOM     24  O   UNL     1      -1.750  12.134  20.828  0.00  0.00    +0.000 OA
ENDBRANCH  17  20
ENDBRANCH   4  16
TORSDOF 4
ENDMDL
MODEL 2
REMARK VINA RESULT:      -6.6      3.623      8.511
REMARK  Name = 
REMARK  5 active torsions:
REMARK  status: ('A' for Active; 'I' for Inactive)
REMARK    1  A    between atoms: C_1  and  C_2
REMARK    2  A    between atoms: C_2  and  C_3
REMARK    3  A    between atoms: N_6  and  C_7
REMARK    4  A    between atoms: C_10  and  N_11
REMARK    5  A    between atoms: C_12  and  C_14
REMARK                            x       y       z     vdW  Elec       q    Type
REMARK                         _______ _______ _______ _____ _____    ______ ____
ROOT
ATOM      1  C   UNL     1       1.168   9.892  19.176  0.00  0.00    +0.000 A 
ATOM      2  C   UNL     1       1.655   9.283  18.009  0.00  0.00    +0.000 A 
ATOM      3  C   UNL     1       2.136   7.970  17.989  0.00  0.00    +0.000 A 
ATOM      4  C   UNL     1       2.132   7.194  19.141  0.00  0.00    +0.000 A 
ATOM      5  C   UNL     1       1.574   7.734  20.300  0.00  0.00    +0.000 A 
ATOM      6  C   UNL     1       1.118   9.068  20.325  0.00  0.00    +0.000 A 
ATOM      7 CL   UNL     1       0.640   9.657  21.889  0.00  0.00    +0.000 Cl
ENDROOT
BRANCH   1  11
ATOM      8  C   UNL     1       0.221  13.975  18.446  0.00  0.00    +0.000 C 
ATOM      9  C   UNL     1      -0.780  12.814  18.291  0.00  0.00    +0.000 C 
ATOM     10  C   UNL     1      -0.536  11.688  19.294  0.00  0.00    +0.000 C 
ATOM     11  N   UNL     1       0.854  11.246  19.161  0.00  0.00    +0.000 N 
ATOM     12  C   UNL     1       1.852  12.276  19.453  0.00  0.00    +0.000 C 
ATOM     13  C   UNL     1       1.664  13.421  18.451  0.00  0.00    +0.000 C 
BRANCH   8  15
ATOM     14  C   UNL     1      -0.614  16.219  19.366  0.00  0.00    +0.000 C 
ATOM     15  C   UNL     1      -0.039  14.846  19.691  0.00  0.00    +0.000 C 
ENDBRANCH   8  15
ENDBRANCH   1  11
BRANCH   4  16
ATOM     16  N   UNL     1       2.681   5.897  19.200  0.00  0.00    +0.000 N 
ATOM     17  C   UNL     1       2.250   4.788  18.484  0.00  0.00    +0.000 C 
ATOM     18  O   UNL     1       1.329   4.788  17.672  0.00  0.00    +0.000 OA
ATOM     19  H   UNL     1       3.533   5.762  19.732  0.00  0.00    +0.000 HD
BRANCH  17  20
ATOM     20  C   UNL     1       3.017   3.587  18.742  0.00  0.00    +0.000 A 
ATOM     21  C   UNL     1       3.114   2.419  18.011  0.00  0.00    +0.000 A 
ATOM     22  C   UNL     1       3.993   1.567  18.716  0.00  0.00    +0.000 A 
ATOM     23  C   UNL     1       4.385   2.266  19.835  0.00  0.00    +0.000 A 
ATOM     24  O   UNL     1       3.803   3.494  19.861  0.00  0.00    +0.000 OA
ENDBRANCH  17  20
ENDBRANCH   4  16
TORSDOF 4
ENDMDL
MODEL 3
REMARK VINA RESULT:      -6.6      1.677      1.752
REMARK  Name = 
REMARK  5 active torsions:
REMARK  status: ('A' for Active; 'I' for Inactive)
REMARK    1  A    between atoms: C_1  and  C_2
REMARK    2  A    between atoms: C_2  and  C_3
REMARK    3  A    between atoms: N_6  and  C_7
REMARK    4  A    between atoms: C_10  and  N_11
REMARK    5  A    between atoms: C_12  and  C_14
REMARK                            x       y       z     vdW  Elec       q    Type
REMARK                         _______ _______ _______ _____ _____    ______ ____
ROOT
ATOM      1  C   UNL     1       2.440   7.753  18.606  0.00  0.00    +0.000 A 
ATOM      2  C   UNL     1       2.250   8.899  17.818  0.00  0.00    +0.000 A 
ATOM      3  C   UNL     1       1.425   9.956  18.213  0.00  0.00    +0.000 A 
ATOM      4  C   UNL     1       0.764   9.925  19.433  0.00  0.00    +0.000 A 
ATOM      5  C   UNL     1       0.996   8.843  20.284  0.00  0.00    +0.000 A 
ATOM      6  C   UNL     1       1.804   7.764  19.871  0.00  0.00    +0.000 A 
ATOM      7 CL   UNL     1       1.834   6.405  20.954  0.00  0.00    +0.000 Cl
ENDROOT
BRANCH   1  11
ATOM      8  C   UNL     1       4.798   4.339  17.664  0.00  0.00    +0.000 C 
ATOM      9  C   UNL     1       3.412   4.275  18.334  0.00  0.00    +0.000 C 
ATOM     10  C   UNL     1       2.477   5.388  17.865  0.00  0.00    +0.000 C 
ATOM     11  N   UNL     1       3.144   6.674  18.087  0.00  0.00    +0.000 N 
ATOM     12  C   UNL     1       4.393   6.849  17.345  0.00  0.00    +0.000 C 
ATOM     13  C   UNL     1       5.377   5.765  17.804  0.00  0.00    +0.000 C 
BRANCH   8  15
ATOM     14  C   UNL     1       6.135   4.042  15.496  0.00  0.00    +0.000 C 
ATOM     15  C   UNL     1       4.786   3.891  16.189  0.00  0.00    +0.000 C 
ENDBRANCH   8  15
ENDBRANCH   1  11
BRANCH   4  16
ATOM     16  N   UNL     1      -0.145  10.921  19.846  0.00  0.00    +0.000 N 
ATOM     17  C   UNL     1      -1.407  11.152  19.316  0.00  0.00    +0.000 C 
ATOM     18  O   UNL     1      -1.923  10.499  18.413  0.00  0.00    +0.000 OA
ATOM     19  H   UNL     1       0.083  11.463  20.671  0.00  0.00    +0.000 HD
BRANCH  17  20
ATOM     20  C   UNL     1      -2.122  12.240  19.952  0.00  0.00    +0.000 A 
ATOM     21  C   UNL     1      -1.645  13.313  20.678  0.00  0.00    +0.000 A 
ATOM     22  C   UNL     1      -2.770  14.070  21.077  0.00  0.00    +0.000 A 
ATOM     23  C   UNL     1      -3.868  13.416  20.567  0.00  0.00    +0.000 A 
ATOM     24  O   UNL     1      -3.489  12.306  19.880  0.00  0.00    +0.000 OA
ENDBRANCH  17  20
ENDBRANCH   4  16
TORSDOF 4
ENDMDL
MODEL 4
REMARK VINA RESULT:      -6.5      3.525      8.492
REMARK  Name = 
REMARK  5 active torsions:
REMARK  status: ('A' for Active; 'I' for Inactive)
REMARK    1  A    between atoms: C_1  and  C_2
REMARK    2  A    between atoms: C_2  and  C_3
REMARK    3  A    between atoms: N_6  and  C_7
REMARK    4  A    between atoms: C_10  and  N_11
REMARK    5  A    between atoms: C_12  and  C_14
REMARK                            x       y       z     vdW  Elec       q    Type
REMARK                         _______ _______ _______ _____ _____    ______ ____
ROOT
ATOM      1  C   UNL     1       1.191   9.867  19.281  0.00  0.00    +0.000 A 
ATOM      2  C   UNL     1       1.690   9.292  18.101  0.00  0.00    +0.000 A 
ATOM      3  C   UNL     1       2.153   7.974  18.043  0.00  0.00    +0.000 A 
ATOM      4  C   UNL     1       2.118   7.157  19.166  0.00  0.00    +0.000 A 
ATOM      5  C   UNL     1       1.547   7.664  20.334  0.00  0.00    +0.000 A 
ATOM      6  C   UNL     1       1.109   9.002  20.399  0.00  0.00    +0.000 A 
ATOM      7 CL   UNL     1       0.611   9.542  21.974  0.00  0.00    +0.000 Cl
ENDROOT
BRANCH   1  11
ATOM      8  C   UNL     1       0.348  13.965  20.051  0.00  0.00    +0.000 C 
ATOM      9  C   UNL     1       1.758  13.346  20.111  0.00  0.00    +0.000 C 
ATOM     10  C   UNL     1       1.950  12.219  19.098  0.00  0.00    +0.000 C 
ATOM     11  N   UNL     1       0.896  11.224  19.309  0.00  0.00    +0.000 N 
ATOM     12  C   UNL     1      -0.465  11.725  19.110  0.00  0.00    +0.000 C 
ATOM     13  C   UNL     1      -0.715  12.846  20.126  0.00  0.00    +0.000 C 
BRANCH   8  15
ATOM     14  C   UNL     1       1.169  15.953  18.654  0.00  0.00    +0.000 C 
ATOM     15  C   UNL     1       0.123  14.857  18.814  0.00  0.00    +0.000 C 
ENDBRANCH   8  15
ENDBRANCH   1  11
BRANCH   4  16
ATOM     16  N   UNL     1       2.647   5.851  19.188  0.00  0.00    +0.000 N 
ATOM     17  C   UNL     1       2.208   4.773  18.432  0.00  0.00    +0.000 C 
ATOM     18  O   UNL     1       1.295   4.813  17.611  0.00  0.00    +0.000 OA
ATOM     19  H   UNL     1       3.492   5.687  19.724  0.00  0.00    +0.000 HD
BRANCH  17  20
ATOM     20  C   UNL     1       2.955   3.553  18.658  0.00  0.00    +0.000 A 
ATOM     21  C   UNL     1       2.997   2.385  17.922  0.00  0.00    +0.000 A 
ATOM     22  C   UNL     1       3.881   1.510  18.592  0.00  0.00    +0.000 A 
ATOM     23  C   UNL     1       4.332   2.196  19.695  0.00  0.00    +0.000 A 
ATOM     24  O   UNL     1       3.781   3.438  19.746  0.00  0.00    +0.000 OA
ENDBRANCH  17  20
ENDBRANCH   4  16
TORSDOF 4
ENDMDL
MODEL 5
REMARK VINA RESULT:      -6.5      1.122      1.523
REMARK  Name = 
REMARK  5 active torsions:
REMARK  status: ('A' for Active; 'I' for Inactive)
REMARK    1  A    between atoms: C_1  and  C_2
REMARK    2  A    between atoms: C_2  and  C_3
REMARK    3  A    between atoms: N_6  and  C_7
REMARK    4  A    between atoms: C_10  and  N_11
REMARK    5  A    between atoms: C_12  and  C_14
REMARK                            x       y       z     vdW  Elec       q    Type
REMARK                         _______ _______ _______ _____ _____    ______ ____
ROOT
ATOM      1  C   UNL     1       2.936   7.400  18.391  0.00  0.00    +0.000 A 
ATOM      2  C   UNL     1       2.695   8.609  17.719  0.00  0.00    +0.000 A 
ATOM      3  C   UNL     1       1.794   9.568  18.194  0.00  0.00    +0.000 A 
ATOM      4  C   UNL     1       1.105   9.369  19.382  0.00  0.00    +0.000 A 
ATOM      5  C   UNL     1       1.383   8.220  20.124  0.00  0.00    +0.000 A 
ATOM      6  C   UNL     1       2.268   7.241  19.629  0.00  0.00    +0.000 A 
ATOM      7 CL   UNL     1       2.356   5.780  20.566  0.00  0.00    +0.000 Cl
ENDROOT
BRANCH   1  11
ATOM      8  C   UNL     1       5.624   4.341  17.160  0.00  0.00    +0.000 C 
ATOM      9  C   UNL     1       4.345   4.089  17.981  0.00  0.00    +0.000 C 
ATOM     10  C   UNL     1       3.218   5.059  17.629  0.00  0.00    +0.000 C 
ATOM     11  N   UNL     1       3.720   6.426  17.786  0.00  0.00    +0.000 N 
ATOM     12  C   UNL     1       4.842   6.768  16.910  0.00  0.00    +0.000 C 
ATOM     13  C   UNL     1       6.011   5.835  17.246  0.00  0.00    +0.000 C 
BRANCH   8  15
ATOM     14  C   UNL     1       6.685   4.319  14.825  0.00  0.00    +0.000 C 
ATOM     15  C   UNL     1       5.509   3.885  15.692  0.00  0.00    +0.000 C 
ENDBRANCH   8  15
ENDBRANCH   1  11
BRANCH   4  16
ATOM     16  N   UNL     1       0.125  10.260  19.866  0.00  0.00    +0.000 N 
ATOM     17  C   UNL     1      -0.978  10.727  19.164  0.00  0.00    +0.000 C 
ATOM     18  O   UNL     1      -1.268  10.410  18.013  0.00  0.00    +0.000 OA
ATOM     19  H   UNL     1       0.153  10.515  20.846  0.00  0.00    +0.000 HD
BRANCH  17  20
ATOM     20  C   UNL     1      -1.822  11.625  19.925  0.00  0.00    +0.000 A 
ATOM     21  C   UNL     1      -2.988  12.272  19.564  0.00  0.00    +0.000 A 
ATOM     22  C   UNL     1      -3.398  13.032  20.682  0.00  0.00    +0.000 A 
ATOM     23  C   UNL     1      -2.461  12.802  21.663  0.00  0.00    +0.000 A 
ATOM     24  O   UNL     1      -1.501  11.948  21.218  0.00  0.00    +0.000 OA
ENDBRANCH  17  20
ENDBRANCH   4  16
TORSDOF 4
ENDMDL
MODEL 6
REMARK VINA RESULT:      -6.4      0.662      1.261
REMARK  Name = 
REMARK  5 active torsions:
REMARK  status: ('A' for Active; 'I' for Inactive)
REMARK    1  A    between atoms: C_1  and  C_2
REMARK    2  A    between atoms: C_2  and  C_3
REMARK    3  A    between atoms: N_6  and  C_7
REMARK    4  A    between atoms: C_10  and  N_11
REMARK    5  A    between atoms: C_12  and  C_14
REMARK                            x       y       z     vdW  Elec       q    Type
REMARK                         _______ _______ _______ _____ _____    ______ ____
ROOT
ATOM      1  C   UNL     1       2.812   7.243  18.638  0.00  0.00    +0.000 A 
ATOM      2  C   UNL     1       2.446   8.455  18.030  0.00  0.00    +0.000 A 
ATOM      3  C   UNL     1       1.516   9.331  18.598  0.00  0.00    +0.000 A 
ATOM      4  C   UNL     1       0.921   9.044  19.820  0.00  0.00    +0.000 A 
ATOM      5  C   UNL     1       1.326   7.893  20.497  0.00  0.00    +0.000 A 
ATOM      6  C   UNL     1       2.240   6.996  19.909  0.00  0.00    +0.000 A 
ATOM      7 CL   UNL     1       2.489   5.514  20.783  0.00  0.00    +0.000 Cl
ENDROOT
BRANCH   1  11
ATOM      8  C   UNL     1       4.870   4.628  15.987  0.00  0.00    +0.000 C 
ATOM      9  C   UNL     1       4.994   6.164  15.957  0.00  0.00    +0.000 C 
ATOM     10  C   UNL     1       4.877   6.792  17.345  0.00  0.00    +0.000 C 
ATOM     11  N   UNL     1       3.618   6.348  17.948  0.00  0.00    +0.000 N 
ATOM     12  C   UNL     1       3.514   4.901  18.145  0.00  0.00    +0.000 C 
ATOM     13  C   UNL     1       3.600   4.225  16.771  0.00  0.00    +0.000 C 
BRANCH   8  15
ATOM     14  C   UNL     1       7.428   4.598  16.174  0.00  0.00    +0.000 C 
ATOM     15  C   UNL     1       6.117   3.924  16.559  0.00  0.00    +0.000 C 
ENDBRANCH   8  15
ENDBRANCH   1  11
BRANCH   4  16
ATOM     16  N   UNL     1      -0.083   9.847  20.398  0.00  0.00    +0.000 N 
ATOM     17  C   UNL     1       0.116  10.929  21.246  0.00  0.00    +0.000 C 
ATOM     18  O   UNL     1       1.213  11.355  21.600  0.00  0.00    +0.000 OA
ATOM     19  H   UNL     1      -1.041   9.702  20.101  0.00  0.00    +0.000 HD
BRANCH  17  20
ATOM     20  C   UNL     1      -1.108  11.572  21.675  0.00  0.00    +0.000 A 
ATOM     21  C   UNL     1      -1.644  11.713  22.940  0.00  0.00    +0.000 A 
ATOM     22  C   UNL     1      -2.859  12.418  22.794  0.00  0.00    +0.000 A 
ATOM     23  C   UNL     1      -2.993  12.672  21.449  0.00  0.00    +0.000 A 
ATOM     24  O   UNL     1      -1.936  12.167  20.758  0.00  0.00    +0.000 OA
ENDBRANCH  17  20
ENDBRANCH   4  16
TORSDOF 4
ENDMDL
MODEL 7
REMARK VINA RESULT:      -6.3      3.566      8.404
REMARK  Name = 
REMARK  5 active torsions:
REMARK  status: ('A' for Active; 'I' for Inactive)
REMARK    1  A    between atoms: C_1  and  C_2
REMARK    2  A    between atoms: C_2  and  C_3
REMARK    3  A    between atoms: N_6  and  C_7
REMARK    4  A    between atoms: C_10  and  N_11
REMARK    5  A    between atoms: C_12  and  C_14
REMARK                            x       y       z     vdW  Elec       q    Type
REMARK                         _______ _______ _______ _____ _____    ______ ____
ROOT
ATOM      1  C   UNL     1       0.961   9.918  19.588  0.00  0.00    +0.000 A 
ATOM      2  C   UNL     1       1.543   9.276  18.484  0.00  0.00    +0.000 A 
ATOM      3  C   UNL     1       2.113   8.001  18.569  0.00  0.00    +0.000 A 
ATOM      4  C   UNL     1       2.108   7.298  19.766  0.00  0.00    +0.000 A 
ATOM      5  C   UNL     1       1.460   7.867  20.864  0.00  0.00    +0.000 A 
ATOM      6  C   UNL     1       0.913   9.163  20.784  0.00  0.00    +0.000 A 
ATOM      7 CL   UNL     1       0.322   9.811  22.285  0.00  0.00    +0.000 Cl
ENDROOT
BRANCH   1  11
ATOM      8  C   UNL     1      -0.172  13.889  18.563  0.00  0.00    +0.000 C 
ATOM      9  C   UNL     1      -1.058  12.651  18.333  0.00  0.00    +0.000 C 
ATOM     10  C   UNL     1      -0.868  11.581  19.408  0.00  0.00    +0.000 C 
ATOM     11  N   UNL     1       0.556  11.242  19.474  0.00  0.00    +0.000 N 
ATOM     12  C   UNL     1       1.431  12.355  19.845  0.00  0.00    +0.000 C 
ATOM     13  C   UNL     1       1.294  13.447  18.777  0.00  0.00    +0.000 C 
BRANCH   8  15
ATOM     14  C   UNL     1       0.260  15.968  20.002  0.00  0.00    +0.000 C 
ATOM     15  C   UNL     1      -0.654  14.780  19.725  0.00  0.00    +0.000 C 
ENDBRANCH   8  15
ENDBRANCH   1  11
BRANCH   4  16
ATOM     16  N   UNL     1       2.741   6.050  19.932  0.00  0.00    +0.000 N 
ATOM     17  C   UNL     1       2.111   4.830  20.140  0.00  0.00    +0.000 C 
ATOM     18  O   UNL     1       0.895   4.664  20.191  0.00  0.00    +0.000 OA
ATOM     19  H   UNL     1       3.743   5.999  19.789  0.00  0.00    +0.000 HD
BRANCH  17  20
ATOM     20  C   UNL     1       3.022   3.711  20.263  0.00  0.00    +0.000 A 
ATOM     21  C   UNL     1       4.069   3.322  19.450  0.00  0.00    +0.000 A 
ATOM     22  C   UNL     1       4.624   2.157  20.025  0.00  0.00    +0.000 A 
ATOM     23  C   UNL     1       3.886   1.905  21.159  0.00  0.00    +0.000 A 
ATOM     24  O   UNL     1       2.913   2.841  21.317  0.00  0.00    +0.000 OA
ENDBRANCH  17  20
ENDBRANCH   4  16
TORSDOF 4
ENDMDL
MODEL 8
REMARK VINA RESULT:      -6.3      1.866      2.492
REMARK  Name = 
REMARK  5 active torsions:
REMARK  status: ('A' for Active; 'I' for Inactive)
REMARK    1  A    between atoms: C_1  and  C_2
REMARK    2  A    between atoms: C_2  and  C_3
REMARK    3  A    between atoms: N_6  and  C_7
REMARK    4  A    between atoms: C_10  and  N_11
REMARK    5  A    between atoms: C_12  and  C_14
REMARK                            x       y       z     vdW  Elec       q    Type
REMARK                         _______ _______ _______ _____ _____    ______ ____
ROOT
ATOM      1  C   UNL     1       2.101   7.461  19.561  0.00  0.00    +0.000 A 
ATOM      2  C   UNL     1       1.539   7.243  20.829  0.00  0.00    +0.000 A 
ATOM      3  C   UNL     1       0.680   8.163  21.440  0.00  0.00    +0.000 A 
ATOM      4  C   UNL     1       0.326   9.341  20.797  0.00  0.00    +0.000 A 
ATOM      5  C   UNL     1       0.795   9.553  19.499  0.00  0.00    +0.000 A 
ATOM      6  C   UNL     1       1.684   8.640  18.898  0.00  0.00    +0.000 A 
ATOM      7 CL   UNL     1       2.335   9.140  17.366  0.00  0.00    +0.000 Cl
ENDROOT
BRANCH   1  11
ATOM      8  C   UNL     1       4.588   4.606  17.620  0.00  0.00    +0.000 C 
ATOM      9  C   UNL     1       4.287   6.011  17.064  0.00  0.00    +0.000 C 
ATOM     10  C   UNL     1       4.108   7.055  18.164  0.00  0.00    +0.000 C 
ATOM     11  N   UNL     1       3.067   6.585  19.082  0.00  0.00    +0.000 N 
ATOM     12  C   UNL     1       3.376   5.325  19.760  0.00  0.00    +0.000 C 
ATOM     13  C   UNL     1       3.538   4.236  18.693  0.00  0.00    +0.000 C 
BRANCH   8  15
ATOM     14  C   UNL     1       7.104   4.767  17.152  0.00  0.00    +0.000 C 
ATOM     15  C   UNL     1       6.018   4.461  18.176  0.00  0.00    +0.000 C 
ENDBRANCH   8  15
ENDBRANCH   1  11
BRANCH   4  16
ATOM     16  N   UNL     1      -0.465  10.341  21.397  0.00  0.00    +0.000 N 
ATOM     17  C   UNL     1      -0.564  10.606  22.756  0.00  0.00    +0.000 C 
ATOM     18  O   UNL     1       0.049  10.009  23.637  0.00  0.00    +0.000 OA
ATOM     19  H   UNL     1      -0.936  11.005  20.793  0.00  0.00    +0.000 HD
BRANCH  17  20
ATOM     20  C   UNL     1      -1.449  11.707  23.078  0.00  0.00    +0.000 A 
ATOM     21  C   UNL     1      -1.214  13.068  23.076  0.00  0.00    +0.000 A 
ATOM     22  C   UNL     1      -2.416  13.691  23.478  0.00  0.00    +0.000 A 
ATOM     23  C   UNL     1      -3.317  12.675  23.697  0.00  0.00    +0.000 A 
ATOM     24  O   UNL     1      -2.744  11.466  23.456  0.00  0.00    +0.000 OA
ENDBRANCH  17  20
ENDBRANCH   4  16
TORSDOF 4
ENDMDL
MODEL 9
REMARK VINA RESULT:      -6.3      2.103      2.984
REMARK  Name = 
REMARK  5 active torsions:
REMARK  status: ('A' for Active; 'I' for Inactive)
REMARK    1  A    between atoms: C_1  and  C_2
REMARK    2  A    between atoms: C_2  and  C_3
REMARK    3  A    between atoms: N_6  and  C_7
REMARK    4  A    between atoms: C_10  and  N_11
REMARK    5  A    between atoms: C_12  and  C_14
REMARK                            x       y       z     vdW  Elec       q    Type
REMARK                         _______ _______ _______ _____ _____    ______ ____
ROOT
ATOM      1  C   UNL     1       1.832   7.307  19.777  0.00  0.00    +0.000 A 
ATOM      2  C   UNL     1       1.343   7.404  21.089  0.00  0.00    +0.000 A 
ATOM      3  C   UNL     1       0.851   8.599  21.623  0.00  0.00    +0.000 A 
ATOM      4  C   UNL     1       0.806   9.755  20.855  0.00  0.00    +0.000 A 
ATOM      5  C   UNL     1       1.200   9.677  19.519  0.00  0.00    +0.000 A 
ATOM      6  C   UNL     1       1.723   8.480  18.992  0.00  0.00    +0.000 A 
ATOM      7 CL   UNL     1       2.356   8.596  17.377  0.00  0.00    +0.000 Cl
ENDROOT
BRANCH   1  11
ATOM      8  C   UNL     1       3.668   3.975  17.871  0.00  0.00    +0.000 C 
ATOM      9  C   UNL     1       4.365   5.329  18.107  0.00  0.00    +0.000 C 
ATOM     10  C   UNL     1       3.909   6.010  19.396  0.00  0.00    +0.000 C 
ATOM     11  N   UNL     1       2.450   6.134  19.362  0.00  0.00    +0.000 N 
ATOM     12  C   UNL     1       1.731   4.861  19.297  0.00  0.00    +0.000 C 
ATOM     13  C   UNL     1       2.137   4.149  18.000  0.00  0.00    +0.000 C 
BRANCH   8  15
ATOM     14  C   UNL     1       3.541   1.498  18.522  0.00  0.00    +0.000 C 
ATOM     15  C   UNL     1       4.175   2.855  18.801  0.00  0.00    +0.000 C 
ENDBRANCH   8  15
ENDBRANCH   1  11
BRANCH   4  16
ATOM     16  N   UNL     1       0.400  11.006  21.365  0.00  0.00    +0.000 N 
ATOM     17  C   UNL     1      -0.534  11.220  22.369  0.00  0.00    +0.000 C 
ATOM     18  O   UNL     1      -1.133  10.336  22.976  0.00  0.00    +0.000 OA
ATOM     19  H   UNL     1       0.897  11.832  21.054  0.00  0.00    +0.000 HD
BRANCH  17  20
ATOM     20  C   UNL     1      -0.738  12.617  22.694  0.00  0.00    +0.000 A 
ATOM     21  C   UNL     1      -1.796  13.238  23.328  0.00  0.00    +0.000 A 
ATOM     22  C   UNL     1      -1.490  14.616  23.382  0.00  0.00    +0.000 A 
ATOM     23  C   UNL     1      -0.260  14.756  22.782  0.00  0.00    +0.000 A 
ATOM     24  O   UNL     1       0.209  13.550  22.362  0.00  0.00    +0.000 OA
ENDBRANCH  17  20
ENDBRANCH   4  16
TORSDOF 4
ENDMDL
