MODEL 1
REMARK VINA RESULT:      -8.4      0.000      0.000
REMARK  Name = 
REMARK  10 active torsions:
REMARK  status: ('A' for Active; 'I' for Inactive)
REMARK    1  A    between atoms: C_1  and  C_2
REMARK    2  A    between atoms: C_2  and  C_3
REMARK    3  A    between atoms: C_3  and  C_4
REMARK    4  A    between atoms: C_3  and  C_5
REMARK    5  A    between atoms: C_5  and  N_6
REMARK    6  A    between atoms: C_5  and  C_17
REMARK    7  A    between atoms: C_7  and  C_9
REMARK    8  A    between atoms: C_15  and  O_16
REMARK    9  A    between atoms: N_19  and  C_20
REMARK   10  A    between atoms: C_23  and  N_24
REMARK                            x       y       z     vdW  Elec       q    Type
REMARK                         _______ _______ _______ _____ _____    ______ ____
ROOT
ATOM      1  C   UNL     1       3.450   4.266  19.886  0.00  0.00    +0.000 C 
ENDROOT
BRANCH   1   2
ATOM      2  N   UNL     1       2.932   5.614  20.096  0.00  0.00    +0.000 N 
ATOM      3  C   UNL     1       2.267   6.354  19.147  0.00  0.00    +0.000 C 
ATOM      4  O   UNL     1       2.048   5.917  18.020  0.00  0.00    +0.000 OA
ATOM      5  H   UNL     1       2.963   5.996  21.040  0.00  0.00    +0.000 HD
BRANCH   3   6
ATOM      6  C   UNL     1       1.825   7.729  19.547  0.00  0.00    +0.000 A 
ATOM      7  C   UNL     1       1.406   7.901  20.875  0.00  0.00    +0.000 A 
ATOM      8  C   UNL     1       0.983   9.161  21.324  0.00  0.00    +0.000 A 
ATOM      9 CL   UNL     1       0.478   9.366  22.952  0.00  0.00    +0.000 Cl
ATOM     10  C   UNL     1       0.966  10.251  20.455  0.00  0.00    +0.000 A 
ATOM     11  C   UNL     1       1.366  10.091  19.129  0.00  0.00    +0.000 A 
ATOM     12  C   UNL     1       1.791   8.837  18.678  0.00  0.00    +0.000 A 
BRANCH  12  13
ATOM     13  O   UNL     1       2.171   8.715  17.366  0.00  0.00    +0.000 OA
ATOM     14  H   UNL     1       2.634   9.527  17.089  0.00  0.00    +0.000 HD
ENDBRANCH  12  13
ENDBRANCH   3   6
ENDBRANCH   1   2
BRANCH   1  15
ATOM     15  C   UNL     1       4.605   4.406  18.869  0.00  0.00    +0.000 C 
ATOM     16  O   UNL     1       5.781   4.498  19.218  0.00  0.00    +0.000 OA
ATOM     17  N   UNL     1       4.186   4.355  17.543  0.00  0.00    +0.000 N 
ATOM     18  H   UNL     1       3.220   4.619  17.374  0.00  0.00    +0.000 HD
BRANCH  17  19
ATOM     19  C   UNL     1       5.085   4.550  16.473  0.00  0.00    +0.000 A 
ATOM     20  C   UNL     1       5.496   3.461  15.694  0.00  0.00    +0.000 A 
ATOM     21  C   UNL     1       6.346   3.660  14.601  0.00  0.00    +0.000 A 
ATOM     22  C   UNL     1       6.802   4.951  14.304  0.00  0.00    +0.000 A 
ATOM     23  C   UNL     1       6.411   6.047  15.084  0.00  0.00    +0.000 A 
ATOM     24  C   UNL     1       5.542   5.840  16.157  0.00  0.00    +0.000 A 
ATOM     25 CL   UNL     1       5.135   7.192  17.155  0.00  0.00    +0.000 Cl
BRANCH  22  26
ATOM     26  N   UNL     1       7.703   5.160  13.164  0.00  0.00    +0.000 N 
ATOM     27  O   UNL     1       8.667   5.920  13.325  0.00  0.00    +0.000 OA
ATOM     28  O   UNL     1       7.445   4.563  12.110  0.00  0.00    +0.000 OA
ENDBRANCH  22  26
ENDBRANCH  17  19
ENDBRANCH   1  15
BRANCH   1  29
ATOM     29  C   UNL     1       2.297   3.363  19.374  0.00  0.00    +0.000 C 
ATOM     30  C   UNL     1       2.754   1.974  18.911  0.00  0.00    +0.000 C 
BRANCH  29  32
ATOM     31  C   UNL     1       1.575   2.699  21.781  0.00  0.00    +0.000 C 
ATOM     32  C   UNL     1       1.156   3.239  20.417  0.00  0.00    +0.000 C 
ENDBRANCH  29  32
ENDBRANCH   1  29
TORSDOF 8
ENDMDL
MODEL 2
REMARK VINA RESULT:      -8.3      2.509      3.274
REMARK  Name = 
REMARK  10 active torsions:
REMARK  status: ('A' for Active; 'I' for Inactive)
REMARK    1  A    between atoms: C_1  and  C_2
REMARK    2  A    between atoms: C_2  and  C_3
REMARK    3  A    between atoms: C_3  and  C_4
REMARK    4  A    between atoms: C_3  and  C_5
REMARK    5  A    between atoms: C_5  and  N_6
REMARK    6  A    between atoms: C_5  and  C_17
REMARK    7  A    between atoms: C_7  and  C_9
REMARK    8  A    between atoms: C_15  and  O_16
REMARK    9  A    between atoms: N_19  and  C_20
REMARK   10  A    between atoms: C_23  and  N_24
REMARK                            x       y       z     vdW  Elec       q    Type
REMARK                         _______ _______ _______ _____ _____    ______ ____
ROOT
ATOM      1  C   UNL     1       2.245   6.399  20.442  0.00  0.00    +0.000 C 
ENDROOT
BRANCH   1   2
ATOM      2  N   UNL     1       1.336   7.541  20.453  0.00  0.00    +0.000 N 
ATOM      3  C   UNL     1       1.362   8.553  21.384  0.00  0.00    +0.000 C 
ATOM      4  O   UNL     1       2.181   8.573  22.298  0.00  0.00    +0.000 OA
ATOM      5  H   UNL     1       0.710   7.661  19.658  0.00  0.00    +0.000 HD
BRANCH   3   6
ATOM      6  C   UNL     1       0.333   9.633  21.237  0.00  0.00    +0.000 A 
ATOM      7  C   UNL     1      -0.036   9.986  19.931  0.00  0.00    +0.000 A 
ATOM      8  C   UNL     1      -0.997  10.986  19.715  0.00  0.00    +0.000 A 
ATOM      9 CL   UNL     1      -1.450  11.410  18.114  0.00  0.00    +0.000 Cl
ATOM     10  C   UNL     1      -1.586  11.644  20.794  0.00  0.00    +0.000 A 
ATOM     11  C   UNL     1      -1.217  11.313  22.097  0.00  0.00    +0.000 A 
ATOM     12  C   UNL     1      -0.262  10.315  22.317  0.00  0.00    +0.000 A 
BRANCH  12  13
ATOM     13  O   UNL     1       0.080  10.020  23.612  0.00  0.00    +0.000 OA
ATOM     14  H   UNL     1       0.048  10.833  24.146  0.00  0.00    +0.000 HD
ENDBRANCH  12  13
ENDBRANCH   3   6
ENDBRANCH   1   2
BRANCH   1  15
ATOM     15  C   UNL     1       2.927   6.409  19.056  0.00  0.00    +0.000 C 
ATOM     16  O   UNL     1       2.501   7.082  18.118  0.00  0.00    +0.000 OA
ATOM     17  N   UNL     1       4.085   5.640  19.001  0.00  0.00    +0.000 N 
ATOM     18  H   UNL     1       4.150   4.888  19.681  0.00  0.00    +0.000 HD
BRANCH  17  19
ATOM     19  C   UNL     1       4.800   5.459  17.797  0.00  0.00    +0.000 A 
ATOM     20  C   UNL     1       5.871   6.303  17.483  0.00  0.00    +0.000 A 
ATOM     21  C   UNL     1       6.613   6.093  16.315  0.00  0.00    +0.000 A 
ATOM     22  C   UNL     1       6.263   5.046  15.452  0.00  0.00    +0.000 A 
ATOM     23  C   UNL     1       5.184   4.203  15.747  0.00  0.00    +0.000 A 
ATOM     24  C   UNL     1       4.467   4.407  16.927  0.00  0.00    +0.000 A 
ATOM     25 CL   UNL     1       3.090   3.407  17.233  0.00  0.00    +0.000 Cl
BRANCH  22  26
ATOM     26  N   UNL     1       7.033   4.831  14.222  0.00  0.00    +0.000 N 
ATOM     27  O   UNL     1       6.680   3.908  13.476  0.00  0.00    +0.000 OA
ATOM     28  O   UNL     1       7.990   5.586  14.002  0.00  0.00    +0.000 OA
ENDBRANCH  22  26
ENDBRANCH  17  19
ENDBRANCH   1  15
BRANCH   1  29
ATOM     29  C   UNL     1       1.425   5.108  20.706  0.00  0.00    +0.000 C 
ATOM     30  C   UNL     1       0.897   4.437  19.432  0.00  0.00    +0.000 C 
BRANCH  29  32
ATOM     31  C   UNL     1       1.645   2.675  21.590  0.00  0.00    +0.000 C 
ATOM     32  C   UNL     1       2.214   4.090  21.568  0.00  0.00    +0.000 C 
ENDBRANCH  29  32
ENDBRANCH   1  29
TORSDOF 8
ENDMDL
MODEL 3
REMARK VINA RESULT:      -8.1      1.227      1.563
REMARK  Name = 
REMARK  10 active torsions:
REMARK  status: ('A' for Active; 'I' for Inactive)
REMARK    1  A    between atoms: C_1  and  C_2
REMARK    2  A    between atoms: C_2  and  C_3
REMARK    3  A    between atoms: C_3  and  C_4
REMARK    4  A    between atoms: C_3  and  C_5
REMARK    5  A    between atoms: C_5  and  N_6
REMARK    6  A    between atoms: C_5  and  C_17
REMARK    7  A    between atoms: C_7  and  C_9
REMARK    8  A    between atoms: C_15  and  O_16
REMARK    9  A    between atoms: N_19  and  C_20
REMARK   10  A    between atoms: C_23  and  N_24
REMARK                            x       y       z     vdW  Elec       q    Type
REMARK                         _______ _______ _______ _____ _____    ______ ____
ROOT
ATOM      1  C   UNL     1       3.161   4.702  19.972  0.00  0.00    +0.000 C 
ENDROOT
BRANCH   1   2
ATOM      2  N   UNL     1       2.335   5.891  20.157  0.00  0.00    +0.000 N 
ATOM      3  C   UNL     1       2.582   7.113  19.577  0.00  0.00    +0.000 C 
ATOM      4  O   UNL     1       3.541   7.296  18.832  0.00  0.00    +0.000 OA
ATOM      5  H   UNL     1       1.455   5.788  20.659  0.00  0.00    +0.000 HD
BRANCH   3   6
ATOM      6  C   UNL     1       1.627   8.222  19.902  0.00  0.00    +0.000 A 
ATOM      7  C   UNL     1       1.146   8.281  21.219  0.00  0.00    +0.000 A 
ATOM      8  C   UNL     1       0.253   9.294  21.598  0.00  0.00    +0.000 A 
ATOM      9 CL   UNL     1      -0.327   9.366  23.213  0.00  0.00    +0.000 Cl
ATOM     10  C   UNL     1      -0.172  10.245  20.671  0.00  0.00    +0.000 A 
ATOM     11  C   UNL     1       0.287  10.189  19.356  0.00  0.00    +0.000 A 
ATOM     12  C   UNL     1       1.180   9.182  18.974  0.00  0.00    +0.000 A 
BRANCH  12  13
ATOM     13  O   UNL     1       1.606   9.155  17.671  0.00  0.00    +0.000 OA
ATOM     14  H   UNL     1       2.521   9.487  17.624  0.00  0.00    +0.000 HD
ENDBRANCH  12  13
ENDBRANCH   3   6
ENDBRANCH   1   2
BRANCH   1  15
ATOM     15  C   UNL     1       3.594   4.709  18.488  0.00  0.00    +0.000 C 
ATOM     16  O   UNL     1       2.784   4.617  17.566  0.00  0.00    +0.000 OA
ATOM     17  N   UNL     1       4.962   4.890  18.310  0.00  0.00    +0.000 N 
ATOM     18  H   UNL     1       5.550   4.615  19.091  0.00  0.00    +0.000 HD
BRANCH  17  19
ATOM     19  C   UNL     1       5.557   4.841  17.031  0.00  0.00    +0.000 A 
ATOM     20  C   UNL     1       4.997   4.042  16.027  0.00  0.00    +0.000 A 
ATOM     21  C   UNL     1       5.555   4.032  14.744  0.00  0.00    +0.000 A 
ATOM     22  C   UNL     1       6.690   4.809  14.476  0.00  0.00    +0.000 A 
ATOM     23  C   UNL     1       7.270   5.601  15.476  0.00  0.00    +0.000 A 
ATOM     24  C   UNL     1       6.689   5.622  16.746  0.00  0.00    +0.000 A 
ATOM     25 CL   UNL     1       7.465   6.542  17.987  0.00  0.00    +0.000 Cl
BRANCH  22  26
ATOM     26  N   UNL     1       7.283   4.792  13.134  0.00  0.00    +0.000 N 
ATOM     27  O   UNL     1       6.889   3.927  12.341  0.00  0.00    +0.000 OA
ATOM     28  O   UNL     1       8.143   5.645  12.875  0.00  0.00    +0.000 OA
ENDBRANCH  22  26
ENDBRANCH  17  19
ENDBRANCH   1  15
BRANCH   1  29
ATOM     29  C   UNL     1       2.325   3.452  20.354  0.00  0.00    +0.000 C 
ATOM     30  C   UNL     1       2.267   3.182  21.863  0.00  0.00    +0.000 C 
BRANCH  29  32
ATOM     31  C   UNL     1       0.539   2.375  18.804  0.00  0.00    +0.000 C 
ATOM     32  C   UNL     1       0.895   3.510  19.759  0.00  0.00    +0.000 C 
ENDBRANCH  29  32
ENDBRANCH   1  29
TORSDOF 8
ENDMDL
MODEL 4
REMARK VINA RESULT:      -8.0      2.403      2.942
REMARK  Name = 
REMARK  10 active torsions:
REMARK  status: ('A' for Active; 'I' for Inactive)
REMARK    1  A    between atoms: C_1  and  C_2
REMARK    2  A    between atoms: C_2  and  C_3
REMARK    3  A    between atoms: C_3  and  C_4
REMARK    4  A    between atoms: C_3  and  C_5
REMARK    5  A    between atoms: C_5  and  N_6
REMARK    6  A    between atoms: C_5  and  C_17
REMARK    7  A    between atoms: C_7  and  C_9
REMARK    8  A    between atoms: C_15  and  O_16
REMARK    9  A    between atoms: N_19  and  C_20
REMARK   10  A    between atoms: C_23  and  N_24
REMARK                            x       y       z     vdW  Elec       q    Type
REMARK                         _______ _______ _______ _____ _____    ______ ____
ROOT
ATOM      1  C   UNL     1       2.507   6.476  20.123  0.00  0.00    +0.000 C 
ENDROOT
BRANCH   1   2
ATOM      2  N   UNL     1       1.597   7.616  20.086  0.00  0.00    +0.000 N 
ATOM      3  C   UNL     1       1.370   8.471  21.139  0.00  0.00    +0.000 C 
ATOM      4  O   UNL     1       1.940   8.337  22.218  0.00  0.00    +0.000 OA
ATOM      5  H   UNL     1       1.183   7.868  19.190  0.00  0.00    +0.000 HD
BRANCH   3   6
ATOM      6  C   UNL     1       0.384   9.577  20.913  0.00  0.00    +0.000 A 
ATOM      7  C   UNL     1      -0.017   9.810  19.589  0.00  0.00    +0.000 A 
ATOM      8  C   UNL     1      -0.941  10.825  19.300  0.00  0.00    +0.000 A 
ATOM      9 CL   UNL     1      -1.434  11.102  17.679  0.00  0.00    +0.000 Cl
ATOM     10  C   UNL     1      -1.462  11.618  20.323  0.00  0.00    +0.000 A 
ATOM     11  C   UNL     1      -1.061  11.406  21.641  0.00  0.00    +0.000 A 
ATOM     12  C   UNL     1      -0.142  10.393  21.933  0.00  0.00    +0.000 A 
BRANCH  12  13
ATOM     13  O   UNL     1       0.234  10.218  23.240  0.00  0.00    +0.000 OA
ATOM     14  H   UNL     1       0.858  10.922  23.493  0.00  0.00    +0.000 HD
ENDBRANCH  12  13
ENDBRANCH   3   6
ENDBRANCH   1   2
BRANCH   1  15
ATOM     15  C   UNL     1       3.242   6.472  18.764  0.00  0.00    +0.000 C 
ATOM     16  O   UNL     1       2.943   7.242  17.852  0.00  0.00    +0.000 OA
ATOM     17  N   UNL     1       4.297   5.566  18.706  0.00  0.00    +0.000 N 
ATOM     18  H   UNL     1       4.239   4.777  19.343  0.00  0.00    +0.000 HD
BRANCH  17  19
ATOM     19  C   UNL     1       5.032   5.359  17.519  0.00  0.00    +0.000 A 
ATOM     20  C   UNL     1       4.394   4.869  16.373  0.00  0.00    +0.000 A 
ATOM     21  C   UNL     1       5.110   4.712  15.182  0.00  0.00    +0.000 A 
ATOM     22  C   UNL     1       6.475   5.026  15.148  0.00  0.00    +0.000 A 
ATOM     23  C   UNL     1       7.131   5.503  16.291  0.00  0.00    +0.000 A 
ATOM     24  C   UNL     1       6.400   5.679  17.467  0.00  0.00    +0.000 A 
ATOM     25 CL   UNL     1       7.242   6.191  18.888  0.00  0.00    +0.000 Cl
BRANCH  22  26
ATOM     26  N   UNL     1       7.231   4.852  13.902  0.00  0.00    +0.000 N 
ATOM     27  O   UNL     1       8.209   5.587  13.715  0.00  0.00    +0.000 OA
ATOM     28  O   UNL     1       6.846   3.978  13.113  0.00  0.00    +0.000 OA
ENDBRANCH  22  26
ENDBRANCH  17  19
ENDBRANCH   1  15
BRANCH   1  29
ATOM     29  C   UNL     1       1.680   5.187  20.369  0.00  0.00    +0.000 C 
ATOM     30  C   UNL     1       1.375   4.391  19.094  0.00  0.00    +0.000 C 
BRANCH  29  32
ATOM     31  C   UNL     1       1.747   2.871  21.547  0.00  0.00    +0.000 C 
ATOM     32  C   UNL     1       2.340   4.272  21.433  0.00  0.00    +0.000 C 
ENDBRANCH  29  32
ENDBRANCH   1  29
TORSDOF 8
ENDMDL
MODEL 5
REMARK VINA RESULT:      -8.0      1.887      2.437
REMARK  Name = 
REMARK  10 active torsions:
REMARK  status: ('A' for Active; 'I' for Inactive)
REMARK    1  A    between atoms: C_1  and  C_2
REMARK    2  A    between atoms: C_2  and  C_3
REMARK    3  A    between atoms: C_3  and  C_4
REMARK    4  A    between atoms: C_3  and  C_5
REMARK    5  A    between atoms: C_5  and  N_6
REMARK    6  A    between atoms: C_5  and  C_17
REMARK    7  A    between atoms: C_7  and  C_9
REMARK    8  A    between atoms: C_15  and  O_16
REMARK    9  A    between atoms: N_19  and  C_20
REMARK   10  A    between atoms: C_23  and  N_24
REMARK                            x       y       z     vdW  Elec       q    Type
REMARK                         _______ _______ _______ _____ _____    ______ ____
ROOT
ATOM      1  C   UNL     1       2.653   5.910  20.586  0.00  0.00    +0.000 C 
ENDROOT
BRANCH   1   2
ATOM      2  N   UNL     1       1.978   7.071  20.014  0.00  0.00    +0.000 N 
ATOM      3  C   UNL     1       1.527   8.150  20.737  0.00  0.00    +0.000 C 
ATOM      4  O   UNL     1       1.669   8.220  21.954  0.00  0.00    +0.000 OA
ATOM      5  H   UNL     1       1.934   7.145  18.998  0.00  0.00    +0.000 HD
BRANCH   3   6
ATOM      6  C   UNL     1       0.841   9.240  19.970  0.00  0.00    +0.000 A 
ATOM      7  C   UNL     1      -0.098  10.014  20.668  0.00  0.00    +0.000 A 
ATOM      8  C   UNL     1      -0.776  11.055  20.017  0.00  0.00    +0.000 A 
ATOM      9 CL   UNL     1      -1.920  12.004  20.878  0.00  0.00    +0.000 Cl
ATOM     10  C   UNL     1      -0.531  11.326  18.671  0.00  0.00    +0.000 A 
ATOM     11  C   UNL     1       0.389  10.555  17.963  0.00  0.00    +0.000 A 
ATOM     12  C   UNL     1       1.069   9.517  18.608  0.00  0.00    +0.000 A 
BRANCH  12  13
ATOM     13  O   UNL     1       1.963   8.776  17.878  0.00  0.00    +0.000 OA
ATOM     14  H   UNL     1       2.681   9.355  17.564  0.00  0.00    +0.000 HD
ENDBRANCH  12  13
ENDBRANCH   3   6
ENDBRANCH   1   2
BRANCH   1  15
ATOM     15  C   UNL     1       3.683   5.451  19.530  0.00  0.00    +0.000 C 
ATOM     16  O   UNL     1       4.662   4.764  19.819  0.00  0.00    +0.000 OA
ATOM     17  N   UNL     1       3.358   5.838  18.233  0.00  0.00    +0.000 N 
ATOM     18  H   UNL     1       2.758   6.653  18.152  0.00  0.00    +0.000 HD
BRANCH  17  19
ATOM     19  C   UNL     1       4.219   5.584  17.145  0.00  0.00    +0.000 A 
ATOM     20  C   UNL     1       5.003   6.615  16.614  0.00  0.00    +0.000 A 
ATOM     21  C   UNL     1       5.896   6.354  15.569  0.00  0.00    +0.000 A 
ATOM     22  C   UNL     1       5.985   5.059  15.042  0.00  0.00    +0.000 A 
ATOM     23  C   UNL     1       5.195   4.020  15.553  0.00  0.00    +0.000 A 
ATOM     24  C   UNL     1       4.326   4.287  16.613  0.00  0.00    +0.000 A 
ATOM     25 CL   UNL     1       3.303   3.013  17.176  0.00  0.00    +0.000 Cl
BRANCH  22  26
ATOM     26  N   UNL     1       6.912   4.784  13.939  0.00  0.00    +0.000 N 
ATOM     27  O   UNL     1       6.677   3.805  13.219  0.00  0.00    +0.000 OA
ATOM     28  O   UNL     1       7.875   5.550  13.793  0.00  0.00    +0.000 OA
ENDBRANCH  22  26
ENDBRANCH  17  19
ENDBRANCH   1  15
BRANCH   1  29
ATOM     29  C   UNL     1       1.591   4.827  20.910  0.00  0.00    +0.000 C 
ATOM     30  C   UNL     1       0.943   4.202  19.668  0.00  0.00    +0.000 C 
BRANCH  29  32
ATOM     31  C   UNL     1       1.690   2.304  21.527  0.00  0.00    +0.000 C 
ATOM     32  C   UNL     1       2.159   3.722  21.838  0.00  0.00    +0.000 C 
ENDBRANCH  29  32
ENDBRANCH   1  29
TORSDOF 8
ENDMDL
MODEL 6
REMARK VINA RESULT:      -7.9      2.084      2.841
REMARK  Name = 
REMARK  10 active torsions:
REMARK  status: ('A' for Active; 'I' for Inactive)
REMARK    1  A    between atoms: C_1  and  C_2
REMARK    2  A    between atoms: C_2  and  C_3
REMARK    3  A    between atoms: C_3  and  C_4
REMARK    4  A    between atoms: C_3  and  C_5
REMARK    5  A    between atoms: C_5  and  N_6
REMARK    6  A    between atoms: C_5  and  C_17
REMARK    7  A    between atoms: C_7  and  C_9
REMARK    8  A    between atoms: C_15  and  O_16
REMARK    9  A    between atoms: N_19  and  C_20
REMARK   10  A    between atoms: C_23  and  N_24
REMARK                            x       y       z     vdW  Elec       q    Type
REMARK                         _______ _______ _______ _____ _____    ______ ____
ROOT
ATOM      1  C   UNL     1       2.314   6.552  20.256  0.00  0.00    +0.000 C 
ENDROOT
BRANCH   1   2
ATOM      2  N   UNL     1       1.396   7.687  20.224  0.00  0.00    +0.000 N 
ATOM      3  C   UNL     1       1.289   8.636  21.213  0.00  0.00    +0.000 C 
ATOM      4  O   UNL     1       1.985   8.600  22.224  0.00  0.00    +0.000 OA
ATOM      5  H   UNL     1       0.875   7.856  19.364  0.00  0.00    +0.000 HD
BRANCH   3   6
ATOM      6  C   UNL     1       0.273   9.718  21.006  0.00  0.00    +0.000 A 
ATOM      7  C   UNL     1      -0.373  10.211  22.150  0.00  0.00    +0.000 A 
ATOM      8  C   UNL     1      -1.332  11.228  22.035  0.00  0.00    +0.000 A 
ATOM      9 CL   UNL     1      -2.116  11.832  23.439  0.00  0.00    +0.000 Cl
ATOM     10  C   UNL     1      -1.659  11.753  20.785  0.00  0.00    +0.000 A 
ATOM     11  C   UNL     1      -1.034  11.263  19.639  0.00  0.00    +0.000 A 
ATOM     12  C   UNL     1      -0.076  10.250  19.749  0.00  0.00    +0.000 A 
BRANCH  12  13
ATOM     13  O   UNL     1       0.514   9.789  18.600  0.00  0.00    +0.000 OA
ATOM     14  H   UNL     1       1.076   9.022  18.812  0.00  0.00    +0.000 HD
ENDBRANCH  12  13
ENDBRANCH   3   6
ENDBRANCH   1   2
BRANCH   1  15
ATOM     15  C   UNL     1       2.968   6.494  18.857  0.00  0.00    +0.000 C 
ATOM     16  O   UNL     1       2.499   7.084  17.886  0.00  0.00    +0.000 OA
ATOM     17  N   UNL     1       4.155   5.768  18.830  0.00  0.00    +0.000 N 
ATOM     18  H   UNL     1       4.262   5.067  19.558  0.00  0.00    +0.000 HD
BRANCH  17  19
ATOM     19  C   UNL     1       4.853   5.532  17.626  0.00  0.00    +0.000 A 
ATOM     20  C   UNL     1       5.725   6.502  17.118  0.00  0.00    +0.000 A 
ATOM     21  C   UNL     1       6.456   6.250  15.953  0.00  0.00    +0.000 A 
ATOM     22  C   UNL     1       6.296   5.028  15.286  0.00  0.00    +0.000 A 
ATOM     23  C   UNL     1       5.416   4.054  15.774  0.00  0.00    +0.000 A 
ATOM     24  C   UNL     1       4.710   4.307  16.952  0.00  0.00    +0.000 A 
ATOM     25 CL   UNL     1       3.569   3.126  17.495  0.00  0.00    +0.000 Cl
BRANCH  22  26
ATOM     26  N   UNL     1       7.054   4.765  14.057  0.00  0.00    +0.000 N 
ATOM     27  O   UNL     1       6.638   3.876  13.303  0.00  0.00    +0.000 OA
ATOM     28  O   UNL     1       8.065   5.450  13.848  0.00  0.00    +0.000 OA
ENDBRANCH  22  26
ENDBRANCH  17  19
ENDBRANCH   1  15
BRANCH   1  29
ATOM     29  C   UNL     1       1.511   5.272  20.605  0.00  0.00    +0.000 C 
ATOM     30  C   UNL     1       1.015   4.496  19.377  0.00  0.00    +0.000 C 
BRANCH  29  32
ATOM     31  C   UNL     1       1.943   2.856  21.458  0.00  0.00    +0.000 C 
ATOM     32  C   UNL     1       2.301   4.336  21.554  0.00  0.00    +0.000 C 
ENDBRANCH  29  32
ENDBRANCH   1  29
TORSDOF 8
ENDMDL
MODEL 7
REMARK VINA RESULT:      -7.9      1.230      1.520
REMARK  Name = 
REMARK  10 active torsions:
REMARK  status: ('A' for Active; 'I' for Inactive)
REMARK    1  A    between atoms: C_1  and  C_2
REMARK    2  A    between atoms: C_2  and  C_3
REMARK    3  A    between atoms: C_3  and  C_4
REMARK    4  A    between atoms: C_3  and  C_5
REMARK    5  A    between atoms: C_5  and  N_6
REMARK    6  A    between atoms: C_5  and  C_17
REMARK    7  A    between atoms: C_7  and  C_9
REMARK    8  A    between atoms: C_15  and  O_16
REMARK    9  A    between atoms: N_19  and  C_20
REMARK   10  A    between atoms: C_23  and  N_24
REMARK                            x       y       z     vdW  Elec       q    Type
REMARK                         _______ _______ _______ _____ _____    ______ ____
ROOT
ATOM      1  C   UNL     1       3.177   5.067  19.963  0.00  0.00    +0.000 C 
ENDROOT
BRANCH   1   2
ATOM      2  N   UNL     1       2.313   6.238  20.083  0.00  0.00    +0.000 N 
ATOM      3  C   UNL     1       2.494   7.418  19.401  0.00  0.00    +0.000 C 
ATOM      4  O   UNL     1       3.422   7.575  18.612  0.00  0.00    +0.000 OA
ATOM      5  H   UNL     1       1.452   6.143  20.621  0.00  0.00    +0.000 HD
BRANCH   3   6
ATOM      6  C   UNL     1       1.508   8.514  19.670  0.00  0.00    +0.000 A 
ATOM      7  C   UNL     1       0.934   8.552  20.949  0.00  0.00    +0.000 A 
ATOM      8  C   UNL     1       0.006   9.552  21.276  0.00  0.00    +0.000 A 
ATOM      9 CL   UNL     1      -0.689   9.599  22.845  0.00  0.00    +0.000 Cl
ATOM     10  C   UNL     1      -0.361  10.511  20.332  0.00  0.00    +0.000 A 
ATOM     11  C   UNL     1       0.191  10.476  19.053  0.00  0.00    +0.000 A 
ATOM     12  C   UNL     1       1.119   9.482  18.723  0.00  0.00    +0.000 A 
BRANCH  12  13
ATOM     13  O   UNL     1       1.637   9.475  17.454  0.00  0.00    +0.000 OA
ATOM     14  H   UNL     1       1.615  10.379  17.092  0.00  0.00    +0.000 HD
ENDBRANCH  12  13
ENDBRANCH   3   6
ENDBRANCH   1   2
BRANCH   1  15
ATOM     15  C   UNL     1       3.588   4.990  18.476  0.00  0.00    +0.000 C 
ATOM     16  O   UNL     1       2.762   4.885  17.570  0.00  0.00    +0.000 OA
ATOM     17  N   UNL     1       4.959   5.111  18.272  0.00  0.00    +0.000 N 
ATOM     18  H   UNL     1       5.548   4.852  19.057  0.00  0.00    +0.000 HD
BRANCH  17  19
ATOM     19  C   UNL     1       5.532   4.981  16.988  0.00  0.00    +0.000 A 
ATOM     20  C   UNL     1       5.116   3.953  16.134  0.00  0.00    +0.000 A 
ATOM     21  C   UNL     1       5.645   3.852  14.844  0.00  0.00    +0.000 A 
ATOM     22  C   UNL     1       6.611   4.774  14.418  0.00  0.00    +0.000 A 
ATOM     23  C   UNL     1       7.049   5.799  15.268  0.00  0.00    +0.000 A 
ATOM     24  C   UNL     1       6.495   5.904  16.545  0.00  0.00    +0.000 A 
ATOM     25 CL   UNL     1       7.105   7.125  17.606  0.00  0.00    +0.000 Cl
BRANCH  22  26
ATOM     26  N   UNL     1       7.176   4.665  13.068  0.00  0.00    +0.000 N 
ATOM     27  O   UNL     1       8.045   5.483  12.740  0.00  0.00    +0.000 OA
ATOM     28  O   UNL     1       6.751   3.759  12.338  0.00  0.00    +0.000 OA
ENDBRANCH  22  26
ENDBRANCH  17  19
ENDBRANCH   1  15
BRANCH   1  29
ATOM     29  C   UNL     1       2.392   3.818  20.443  0.00  0.00    +0.000 C 
ATOM     30  C   UNL     1       0.880   3.905  20.202  0.00  0.00    +0.000 C 
BRANCH  29  32
ATOM     31  C   UNL     1       4.384   2.159  20.266  0.00  0.00    +0.000 C 
ATOM     32  C   UNL     1       2.963   2.510  19.837  0.00  0.00    +0.000 C 
ENDBRANCH  29  32
ENDBRANCH   1  29
TORSDOF 8
ENDMDL
MODEL 8
REMARK VINA RESULT:      -7.9      1.818      2.376
REMARK  Name = 
REMARK  10 active torsions:
REMARK  status: ('A' for Active; 'I' for Inactive)
REMARK    1  A    between atoms: C_1  and  C_2
REMARK    2  A    between atoms: C_2  and  C_3
REMARK    3  A    between atoms: C_3  and  C_4
REMARK    4  A    between atoms: C_3  and  C_5
REMARK    5  A    between atoms: C_5  and  N_6
REMARK    6  A    between atoms: C_5  and  C_17
REMARK    7  A    between atoms: C_7  and  C_9
REMARK    8  A    between atoms: C_15  and  O_16
REMARK    9  A    between atoms: N_19  and  C_20
REMARK   10  A    between atoms: C_23  and  N_24
REMARK                            x       y       z     vdW  Elec       q    Type
REMARK                         _______ _______ _______ _____ _____    ______ ____
ROOT
ATOM      1  C   UNL     1       2.616   6.489  19.856  0.00  0.00    +0.000 C 
ENDROOT
BRANCH   1   2
ATOM      2  N   UNL     1       1.734   7.652  19.829  0.00  0.00    +0.000 N 
ATOM      3  C   UNL     1       1.456   8.449  20.915  0.00  0.00    +0.000 C 
ATOM      4  O   UNL     1       1.949   8.237  22.019  0.00  0.00    +0.000 OA
ATOM      5  H   UNL     1       1.386   7.966  18.924  0.00  0.00    +0.000 HD
BRANCH   3   6
ATOM      6  C   UNL     1       0.510   9.590  20.692  0.00  0.00    +0.000 A 
ATOM      7  C   UNL     1      -0.139  10.108  21.822  0.00  0.00    +0.000 A 
ATOM      8  C   UNL     1      -1.035  11.180  21.692  0.00  0.00    +0.000 A 
ATOM      9 CL   UNL     1      -1.822  11.814  23.080  0.00  0.00    +0.000 Cl
ATOM     10  C   UNL     1      -1.295  11.735  20.440  0.00  0.00    +0.000 A 
ATOM     11  C   UNL     1      -0.667  11.221  19.306  0.00  0.00    +0.000 A 
ATOM     12  C   UNL     1       0.228  10.154  19.432  0.00  0.00    +0.000 A 
BRANCH  12  13
ATOM     13  O   UNL     1       0.822   9.670  18.294  0.00  0.00    +0.000 OA
ATOM     14  H   UNL     1       1.105   8.750  18.445  0.00  0.00    +0.000 HD
ENDBRANCH  12  13
ENDBRANCH   3   6
ENDBRANCH   1   2
BRANCH   1  15
ATOM     15  C   UNL     1       3.365   6.490  18.505  0.00  0.00    +0.000 C 
ATOM     16  O   UNL     1       3.107   7.294  17.610  0.00  0.00    +0.000 OA
ATOM     17  N   UNL     1       4.383   5.544  18.434  0.00  0.00    +0.000 N 
ATOM     18  H   UNL     1       4.286   4.743  19.051  0.00  0.00    +0.000 HD
BRANCH  17  19
ATOM     19  C   UNL     1       5.123   5.337  17.250  0.00  0.00    +0.000 A 
ATOM     20  C   UNL     1       4.540   4.672  16.165  0.00  0.00    +0.000 A 
ATOM     21  C   UNL     1       5.254   4.512  14.973  0.00  0.00    +0.000 A 
ATOM     22  C   UNL     1       6.563   5.001  14.878  0.00  0.00    +0.000 A 
ATOM     23  C   UNL     1       7.165   5.655  15.962  0.00  0.00    +0.000 A 
ATOM     24  C   UNL     1       6.434   5.831  17.138  0.00  0.00    +0.000 A 
ATOM     25 CL   UNL     1       7.220   6.568  18.490  0.00  0.00    +0.000 Cl
BRANCH  22  26
ATOM     26  N   UNL     1       7.318   4.824  13.632  0.00  0.00    +0.000 N 
ATOM     27  O   UNL     1       6.910   3.977  12.828  0.00  0.00    +0.000 OA
ATOM     28  O   UNL     1       8.318   5.535  13.460  0.00  0.00    +0.000 OA
ENDBRANCH  22  26
ENDBRANCH  17  19
ENDBRANCH   1  15
BRANCH   1  29
ATOM     29  C   UNL     1       1.755   5.217  20.073  0.00  0.00    +0.000 C 
ATOM     30  C   UNL     1       1.639   4.327  18.829  0.00  0.00    +0.000 C 
BRANCH  29  32
ATOM     31  C   UNL     1       1.731   2.954  21.350  0.00  0.00    +0.000 C 
ATOM     32  C   UNL     1       2.246   4.388  21.288  0.00  0.00    +0.000 C 
ENDBRANCH  29  32
ENDBRANCH   1  29
TORSDOF 8
ENDMDL
MODEL 9
REMARK VINA RESULT:      -7.8      1.029      1.142
REMARK  Name = 
REMARK  10 active torsions:
REMARK  status: ('A' for Active; 'I' for Inactive)
REMARK    1  A    between atoms: C_1  and  C_2
REMARK    2  A    between atoms: C_2  and  C_3
REMARK    3  A    between atoms: C_3  and  C_4
REMARK    4  A    between atoms: C_3  and  C_5
REMARK    5  A    between atoms: C_5  and  N_6
REMARK    6  A    between atoms: C_5  and  C_17
REMARK    7  A    between atoms: C_7  and  C_9
REMARK    8  A    between atoms: C_15  and  O_16
REMARK    9  A    between atoms: N_19  and  C_20
REMARK   10  A    between atoms: C_23  and  N_24
REMARK                            x       y       z     vdW  Elec       q    Type
REMARK                         _______ _______ _______ _____ _____    ______ ____
ROOT
ATOM      1  C   UNL     1       2.785   4.214  19.169  0.00  0.00    +0.000 C 
ENDROOT
BRANCH   1   2
ATOM      2  N   UNL     1       2.082   5.473  19.398  0.00  0.00    +0.000 N 
ATOM      3  C   UNL     1       2.687   6.706  19.466  0.00  0.00    +0.000 C 
ATOM      4  O   UNL     1       3.899   6.843  19.329  0.00  0.00    +0.000 OA
ATOM      5  H   UNL     1       1.063   5.458  19.397  0.00  0.00    +0.000 HD
BRANCH   3   6
ATOM      6  C   UNL     1       1.796   7.883  19.726  0.00  0.00    +0.000 A 
ATOM      7  C   UNL     1       1.174   7.945  20.981  0.00  0.00    +0.000 A 
ATOM      8  C   UNL     1       0.330   9.020  21.298  0.00  0.00    +0.000 A 
ATOM      9 CL   UNL     1      -0.424   9.094  22.839  0.00  0.00    +0.000 Cl
ATOM     10  C   UNL     1       0.095  10.032  20.367  0.00  0.00    +0.000 A 
ATOM     11  C   UNL     1       0.697   9.975  19.111  0.00  0.00    +0.000 A 
ATOM     12  C   UNL     1       1.540   8.906  18.792  0.00  0.00    +0.000 A 
BRANCH  12  13
ATOM     13  O   UNL     1       2.110   8.881  17.545  0.00  0.00    +0.000 OA
ATOM     14  H   UNL     1       1.435   8.634  16.888  0.00  0.00    +0.000 HD
ENDBRANCH  12  13
ENDBRANCH   3   6
ENDBRANCH   1   2
BRANCH   1  15
ATOM     15  C   UNL     1       3.417   4.328  17.764  0.00  0.00    +0.000 C 
ATOM     16  O   UNL     1       2.763   4.175  16.733  0.00  0.00    +0.000 OA
ATOM     17  N   UNL     1       4.765   4.675  17.788  0.00  0.00    +0.000 N 
ATOM     18  H   UNL     1       5.267   4.443  18.640  0.00  0.00    +0.000 HD
BRANCH  17  19
ATOM     19  C   UNL     1       5.535   4.744  16.607  0.00  0.00    +0.000 A 
ATOM     20  C   UNL     1       5.273   3.870  15.546  0.00  0.00    +0.000 A 
ATOM     21  C   UNL     1       6.000   3.971  14.355  0.00  0.00    +0.000 A 
ATOM     22  C   UNL     1       7.008   4.938  14.239  0.00  0.00    +0.000 A 
ATOM     23  C   UNL     1       7.291   5.809  15.299  0.00  0.00    +0.000 A 
ATOM     24  C   UNL     1       6.542   5.716  16.473  0.00  0.00    +0.000 A 
ATOM     25 CL   UNL     1       6.959   6.746  17.798  0.00  0.00    +0.000 Cl
BRANCH  22  26
ATOM     26  N   UNL     1       7.779   5.038  12.996  0.00  0.00    +0.000 N 
ATOM     27  O   UNL     1       8.750   5.807  12.981  0.00  0.00    +0.000 OA
ATOM     28  O   UNL     1       7.415   4.347  12.035  0.00  0.00    +0.000 OA
ENDBRANCH  22  26
ENDBRANCH  17  19
ENDBRANCH   1  15
BRANCH   1  29
ATOM     29  C   UNL     1       1.768   3.049  19.285  0.00  0.00    +0.000 C 
ATOM     30  C   UNL     1       2.384   1.662  19.056  0.00  0.00    +0.000 C 
BRANCH  29  32
ATOM     31  C   UNL     1       1.845   2.809  21.871  0.00  0.00    +0.000 C 
ATOM     32  C   UNL     1       1.000   3.085  20.631  0.00  0.00    +0.000 C 
ENDBRANCH  29  32
ENDBRANCH   1  29
TORSDOF 8
ENDMDL
