MODEL 1
REMARK VINA RESULT:      -7.5      0.000      0.000
REMARK  Name = 
REMARK  7 active torsions:
REMARK  status: ('A' for Active; 'I' for Inactive)
REMARK    1  A    between atoms: C_1  and  N_2
REMARK    2  A    between atoms: N_2  and  C_3
REMARK    3  A    between atoms: N_2  and  S_4
REMARK    4  A    between atoms: S_4  and  C_7
REMARK    5  A    between atoms: C_10  and  N_11
REMARK    6  A    between atoms: N_17  and  C_18
REMARK    7  A    between atoms: C_22  and  C_23
REMARK                            x       y       z     vdW  Elec       q    Type
REMARK                         _______ _______ _______ _____ _____    ______ ____
ROOT
ATOM      1  N   UNL     1      -1.190  11.512  22.306  0.00  0.00    +0.000 N 
ATOM      2  C   UNL     1      -0.991  11.219  20.978  0.00  0.00    +0.000 C 
ATOM      3  O   UNL     1      -1.283  11.981  20.056  0.00  0.00    +0.000 OA
ATOM      4  N   UNL     1      -0.368  10.015  20.718  0.00  0.00    +0.000 N 
ATOM      5  C   UNL     1       0.049   9.746  19.339  0.00  0.00    +0.000 C 
ATOM      6  C   UNL     1       1.497   9.241  19.292  0.00  0.00    +0.000 C 
ATOM      7  N   UNL     1       1.657   8.079  20.187  0.00  0.00    +0.000 N 
ATOM      8  C   UNL     1       1.199   8.282  21.574  0.00  0.00    +0.000 C 
ATOM      9  C   UNL     1      -0.232   8.855  21.610  0.00  0.00    +0.000 C 
ATOM     10  H   UNL     1      -0.617  11.006  22.959  0.00  0.00    +0.000 HD
ENDROOT
BRANCH   1  14
ATOM     11  C   UNL     1      -3.156  14.946  23.746  0.00  0.00    +0.000 A 
ATOM     12  C   UNL     1      -1.766  14.947  23.678  0.00  0.00    +0.000 A 
ATOM     13  C   UNL     1      -1.103  13.816  23.199  0.00  0.00    +0.000 A 
ATOM     14  C   UNL     1      -1.815  12.677  22.803  0.00  0.00    +0.000 A 
ATOM     15  C   UNL     1      -3.213  12.683  22.902  0.00  0.00    +0.000 A 
ATOM     16  C   UNL     1      -3.883  13.805  23.398  0.00  0.00    +0.000 A 
BRANCH  11  17
ATOM     17  S   UNL     1      -4.011  16.408  24.306  0.00  0.00    +0.000 S 
ATOM     18  O   UNL     1      -3.231  16.984  25.378  0.00  0.00    +0.000 OA
ATOM     19  O   UNL     1      -5.399  16.047  24.497  0.00  0.00    +0.000 OA
BRANCH  17  21
ATOM     20  C   UNL     1      -5.175  17.738  22.253  0.00  0.00    +0.000 C 
ATOM     21  N   UNL     1      -3.912  17.444  22.951  0.00  0.00    +0.000 NA
ATOM     22  C   UNL     1      -3.046  18.629  23.080  0.00  0.00    +0.000 C 
ENDBRANCH  17  21
ENDBRANCH  11  17
ENDBRANCH   1  14
BRANCH   7  23
ATOM     23  C   UNL     1       2.160   6.887  19.709  0.00  0.00    +0.000 A 
ATOM     24  C   UNL     1       2.763   6.804  18.444  0.00  0.00    +0.000 A 
ATOM     25  C   UNL     1       3.227   5.596  17.915  0.00  0.00    +0.000 A 
ATOM     26  C   UNL     1       3.102   4.427  18.653  0.00  0.00    +0.000 A 
ATOM     27  C   UNL     1       2.521   4.463  19.924  0.00  0.00    +0.000 A 
ATOM     28  C   UNL     1       2.069   5.694  20.438  0.00  0.00    +0.000 A 
BRANCH  27  29
ATOM     29  C   UNL     1       2.350   3.206  20.737  0.00  0.00    +0.000 C 
ATOM     30  F   UNL     1       2.169   3.437  22.067  0.00  0.00    +0.000 F 
ATOM     31  F   UNL     1       1.278   2.466  20.337  0.00  0.00    +0.000 F 
ATOM     32  F   UNL     1       3.427   2.377  20.646  0.00  0.00    +0.000 F 
ENDBRANCH  27  29
ENDBRANCH   7  23
TORSDOF 5
ENDMDL
MODEL 2
REMARK VINA RESULT:      -7.5      1.551      2.006
REMARK  Name = 
REMARK  7 active torsions:
REMARK  status: ('A' for Active; 'I' for Inactive)
REMARK    1  A    between atoms: C_1  and  N_2
REMARK    2  A    between atoms: N_2  and  C_3
REMARK    3  A    between atoms: N_2  and  S_4
REMARK    4  A    between atoms: S_4  and  C_7
REMARK    5  A    between atoms: C_10  and  N_11
REMARK    6  A    between atoms: N_17  and  C_18
REMARK    7  A    between atoms: C_22  and  C_23
REMARK                            x       y       z     vdW  Elec       q    Type
REMARK                         _______ _______ _______ _____ _____    ______ ____
ROOT
ATOM      1  N   UNL     1      -0.362  10.928  21.661  0.00  0.00    +0.000 N 
ATOM      2  C   UNL     1      -0.229  10.754  20.305  0.00  0.00    +0.000 C 
ATOM      3  O   UNL     1      -0.564  11.593  19.469  0.00  0.00    +0.000 OA
ATOM      4  N   UNL     1       0.378   9.579  19.910  0.00  0.00    +0.000 N 
ATOM      5  C   UNL     1       0.726   9.433  18.494  0.00  0.00    +0.000 C 
ATOM      6  C   UNL     1       2.170   8.937  18.332  0.00  0.00    +0.000 C 
ATOM      7  N   UNL     1       2.370   7.701  19.113  0.00  0.00    +0.000 N 
ATOM      8  C   UNL     1       1.981   7.780  20.533  0.00  0.00    +0.000 C 
ATOM      9  C   UNL     1       0.555   8.345  20.689  0.00  0.00    +0.000 C 
ATOM     10  H   UNL     1       0.241  10.369  22.239  0.00  0.00    +0.000 HD
ENDROOT
BRANCH   1  14
ATOM     11  C   UNL     1      -2.041  14.313  23.521  0.00  0.00    +0.000 A 
ATOM     12  C   UNL     1      -2.727  13.104  23.582  0.00  0.00    +0.000 A 
ATOM     13  C   UNL     1      -2.179  11.974  22.972  0.00  0.00    +0.000 A 
ATOM     14  C   UNL     1      -0.959  12.045  22.288  0.00  0.00    +0.000 A 
ATOM     15  C   UNL     1      -0.293  13.275  22.214  0.00  0.00    +0.000 A 
ATOM     16  C   UNL     1      -0.844  14.415  22.806  0.00  0.00    +0.000 A 
BRANCH  11  17
ATOM     17  S   UNL     1      -2.709  15.747  24.344  0.00  0.00    +0.000 S 
ATOM     18  O   UNL     1      -1.935  16.893  23.920  0.00  0.00    +0.000 OA
ATOM     19  O   UNL     1      -2.848  15.413  25.745  0.00  0.00    +0.000 OA
BRANCH  17  21
ATOM     20  C   UNL     1      -5.281  16.590  24.471  0.00  0.00    +0.000 C 
ATOM     21  N   UNL     1      -4.273  15.874  23.669  0.00  0.00    +0.000 NA
ATOM     22  C   UNL     1      -4.356  16.197  22.234  0.00  0.00    +0.000 C 
ENDBRANCH  17  21
ENDBRANCH  11  17
ENDBRANCH   1  14
BRANCH   7  23
ATOM     23  C   UNL     1       2.846   6.556  18.507  0.00  0.00    +0.000 A 
ATOM     24  C   UNL     1       3.931   6.598  17.618  0.00  0.00    +0.000 A 
ATOM     25  C   UNL     1       4.393   5.462  16.949  0.00  0.00    +0.000 A 
ATOM     26  C   UNL     1       3.776   4.237  17.163  0.00  0.00    +0.000 A 
ATOM     27  C   UNL     1       2.700   4.143  18.050  0.00  0.00    +0.000 A 
ATOM     28  C   UNL     1       2.259   5.302  18.719  0.00  0.00    +0.000 A 
BRANCH  27  29
ATOM     29  C   UNL     1       1.995   2.833  18.283  0.00  0.00    +0.000 C 
ATOM     30  F   UNL     1       2.333   2.231  19.457  0.00  0.00    +0.000 F 
ATOM     31  F   UNL     1       0.639   2.966  18.308  0.00  0.00    +0.000 F 
ATOM     32  F   UNL     1       2.259   1.919  17.307  0.00  0.00    +0.000 F 
ENDBRANCH  27  29
ENDBRANCH   7  23
TORSDOF 5
ENDMDL
MODEL 3
REMARK VINA RESULT:      -7.4      2.929      3.688
REMARK  Name = 
REMARK  7 active torsions:
REMARK  status: ('A' for Active; 'I' for Inactive)
REMARK    1  A    between atoms: C_1  and  N_2
REMARK    2  A    between atoms: N_2  and  C_3
REMARK    3  A    between atoms: N_2  and  S_4
REMARK    4  A    between atoms: S_4  and  C_7
REMARK    5  A    between atoms: C_10  and  N_11
REMARK    6  A    between atoms: N_17  and  C_18
REMARK    7  A    between atoms: C_22  and  C_23
REMARK                            x       y       z     vdW  Elec       q    Type
REMARK                         _______ _______ _______ _____ _____    ______ ____
ROOT
ATOM      1  N   UNL     1       0.371  10.951  21.181  0.00  0.00    +0.000 N 
ATOM      2  C   UNL     1       0.455  10.731  19.828  0.00  0.00    +0.000 C 
ATOM      3  O   UNL     1       0.223  11.589  18.977  0.00  0.00    +0.000 OA
ATOM      4  N   UNL     1       0.889   9.476  19.453  0.00  0.00    +0.000 N 
ATOM      5  C   UNL     1       1.190   9.252  18.036  0.00  0.00    +0.000 C 
ATOM      6  C   UNL     1       2.549   8.560  17.865  0.00  0.00    +0.000 C 
ATOM      7  N   UNL     1       2.593   7.326  18.673  0.00  0.00    +0.000 N 
ATOM      8  C   UNL     1       2.244   7.489  20.095  0.00  0.00    +0.000 C 
ATOM      9  C   UNL     1       0.910   8.247  20.258  0.00  0.00    +0.000 C 
ATOM     10  H   UNL     1       0.902  10.327  21.763  0.00  0.00    +0.000 HD
ENDROOT
BRANCH   1  14
ATOM     11  C   UNL     1      -0.806  14.581  22.964  0.00  0.00    +0.000 A 
ATOM     12  C   UNL     1      -1.530  13.427  23.249  0.00  0.00    +0.000 A 
ATOM     13  C   UNL     1      -1.148  12.217  22.667  0.00  0.00    +0.000 A 
ATOM     14  C   UNL     1      -0.058  12.152  21.790  0.00  0.00    +0.000 A 
ATOM     15  C   UNL     1       0.645  13.328  21.493  0.00  0.00    +0.000 A 
ATOM     16  C   UNL     1       0.257  14.546  22.057  0.00  0.00    +0.000 A 
BRANCH  11  17
ATOM     17  S   UNL     1      -1.257  16.119  23.747  0.00  0.00    +0.000 S 
ATOM     18  O   UNL     1      -2.597  15.966  24.266  0.00  0.00    +0.000 OA
ATOM     19  O   UNL     1      -0.926  17.183  22.824  0.00  0.00    +0.000 OA
BRANCH  17  21
ATOM     20  C   UNL     1       0.837  17.273  25.021  0.00  0.00    +0.000 C 
ATOM     21  N   UNL     1      -0.174  16.202  25.065  0.00  0.00    +0.000 NA
ATOM     22  C   UNL     1      -0.746  16.015  26.410  0.00  0.00    +0.000 C 
ENDBRANCH  17  21
ENDBRANCH  11  17
ENDBRANCH   1  14
BRANCH   7  23
ATOM     23  C   UNL     1       2.899   6.114  18.088  0.00  0.00    +0.000 A 
ATOM     24  C   UNL     1       1.994   5.041  18.116  0.00  0.00    +0.000 A 
ATOM     25  C   UNL     1       2.305   3.788  17.582  0.00  0.00    +0.000 A 
ATOM     26  C   UNL     1       3.544   3.578  16.993  0.00  0.00    +0.000 A 
ATOM     27  C   UNL     1       4.473   4.620  16.929  0.00  0.00    +0.000 A 
ATOM     28  C   UNL     1       4.132   5.877  17.467  0.00  0.00    +0.000 A 
BRANCH  27  29
ATOM     29  C   UNL     1       5.835   4.414  16.319  0.00  0.00    +0.000 C 
ATOM     30  F   UNL     1       5.935   3.273  15.581  0.00  0.00    +0.000 F 
ATOM     31  F   UNL     1       6.195   5.430  15.486  0.00  0.00    +0.000 F 
ATOM     32  F   UNL     1       6.819   4.337  17.257  0.00  0.00    +0.000 F 
ENDBRANCH  27  29
ENDBRANCH   7  23
TORSDOF 5
ENDMDL
MODEL 4
REMARK VINA RESULT:      -7.4      3.668      4.860
REMARK  Name = 
REMARK  7 active torsions:
REMARK  status: ('A' for Active; 'I' for Inactive)
REMARK    1  A    between atoms: C_1  and  N_2
REMARK    2  A    between atoms: N_2  and  C_3
REMARK    3  A    between atoms: N_2  and  S_4
REMARK    4  A    between atoms: S_4  and  C_7
REMARK    5  A    between atoms: C_10  and  N_11
REMARK    6  A    between atoms: N_17  and  C_18
REMARK    7  A    between atoms: C_22  and  C_23
REMARK                            x       y       z     vdW  Elec       q    Type
REMARK                         _______ _______ _______ _____ _____    ______ ____
ROOT
ATOM      1  N   UNL     1      -0.191  10.276  19.248  0.00  0.00    +0.000 N 
ATOM      2  C   UNL     1       0.391   9.361  20.091  0.00  0.00    +0.000 C 
ATOM      3  O   UNL     1      -0.043   9.085  21.210  0.00  0.00    +0.000 OA
ATOM      4  N   UNL     1       1.489   8.696  19.586  0.00  0.00    +0.000 N 
ATOM      5  C   UNL     1       2.024   7.573  20.361  0.00  0.00    +0.000 C 
ATOM      6  C   UNL     1       2.256   6.349  19.465  0.00  0.00    +0.000 C 
ATOM      7  N   UNL     1       3.101   6.718  18.313  0.00  0.00    +0.000 N 
ATOM      8  C   UNL     1       2.635   7.878  17.533  0.00  0.00    +0.000 C 
ATOM      9  C   UNL     1       2.338   9.082  18.450  0.00  0.00    +0.000 C 
ATOM     10  H   UNL     1       0.018  10.169  18.270  0.00  0.00    +0.000 HD
ENDROOT
BRANCH   1  14
ATOM     11  C   UNL     1      -3.496  12.675  20.279  0.00  0.00    +0.000 A 
ATOM     12  C   UNL     1      -3.542  11.940  19.098  0.00  0.00    +0.000 A 
ATOM     13  C   UNL     1      -2.454  11.139  18.747  0.00  0.00    +0.000 A 
ATOM     14  C   UNL     1      -1.314  11.076  19.557  0.00  0.00    +0.000 A 
ATOM     15  C   UNL     1      -1.272  11.842  20.730  0.00  0.00    +0.000 A 
ATOM     16  C   UNL     1      -2.349  12.661  21.079  0.00  0.00    +0.000 A 
BRANCH  11  17
ATOM     17  S   UNL     1      -4.904  13.658  20.760  0.00  0.00    +0.000 S 
ATOM     18  O   UNL     1      -5.637  13.985  19.558  0.00  0.00    +0.000 OA
ATOM     19  O   UNL     1      -4.421  14.692  21.650  0.00  0.00    +0.000 OA
BRANCH  17  21
ATOM     20  C   UNL     1      -6.248  13.004  23.019  0.00  0.00    +0.000 C 
ATOM     21  N   UNL     1      -5.835  12.558  21.678  0.00  0.00    +0.000 NA
ATOM     22  C   UNL     1      -6.903  11.834  20.966  0.00  0.00    +0.000 C 
ENDBRANCH  17  21
ENDBRANCH  11  17
ENDBRANCH   1  14
BRANCH   7  23
ATOM     23  C   UNL     1       4.266   6.028  18.046  0.00  0.00    +0.000 A 
ATOM     24  C   UNL     1       5.196   5.745  19.059  0.00  0.00    +0.000 A 
ATOM     25  C   UNL     1       6.408   5.100  18.802  0.00  0.00    +0.000 A 
ATOM     26  C   UNL     1       6.720   4.710  17.507  0.00  0.00    +0.000 A 
ATOM     27  C   UNL     1       5.819   4.957  16.467  0.00  0.00    +0.000 A 
ATOM     28  C   UNL     1       4.600   5.602  16.754  0.00  0.00    +0.000 A 
BRANCH  27  29
ATOM     29  C   UNL     1       6.143   4.568  15.048  0.00  0.00    +0.000 C 
ATOM     30  F   UNL     1       5.179   4.922  14.152  0.00  0.00    +0.000 F 
ATOM     31  F   UNL     1       7.297   5.137  14.599  0.00  0.00    +0.000 F 
ATOM     32  F   UNL     1       6.311   3.224  14.902  0.00  0.00    +0.000 F 
ENDBRANCH  27  29
ENDBRANCH   7  23
TORSDOF 5
ENDMDL
MODEL 5
REMARK VINA RESULT:      -7.4      6.032     11.438
REMARK  Name = 
REMARK  7 active torsions:
REMARK  status: ('A' for Active; 'I' for Inactive)
REMARK    1  A    between atoms: C_1  and  N_2
REMARK    2  A    between atoms: N_2  and  C_3
REMARK    3  A    between atoms: N_2  and  S_4
REMARK    4  A    between atoms: S_4  and  C_7
REMARK    5  A    between atoms: C_10  and  N_11
REMARK    6  A    between atoms: N_17  and  C_18
REMARK    7  A    between atoms: C_22  and  C_23
REMARK                            x       y       z     vdW  Elec       q    Type
REMARK                         _______ _______ _______ _____ _____    ______ ____
ROOT
ATOM      1  N   UNL     1       1.235   8.711  19.350  0.00  0.00    +0.000 N 
ATOM      2  C   UNL     1       0.827   8.924  20.645  0.00  0.00    +0.000 C 
ATOM      3  O   UNL     1       1.320   8.359  21.621  0.00  0.00    +0.000 OA
ATOM      4  N   UNL     1      -0.153   9.881  20.813  0.00  0.00    +0.000 N 
ATOM      5  C   UNL     1      -0.480  10.290  22.182  0.00  0.00    +0.000 C 
ATOM      6  C   UNL     1      -0.518  11.820  22.303  0.00  0.00    +0.000 C 
ATOM      7  N   UNL     1      -1.433  12.384  21.292  0.00  0.00    +0.000 N 
ATOM      8  C   UNL     1      -1.180  11.958  19.903  0.00  0.00    +0.000 C 
ATOM      9  C   UNL     1      -1.073  10.422  19.803  0.00  0.00    +0.000 C 
ATOM     10  H   UNL     1       1.030   9.447  18.697  0.00  0.00    +0.000 HD
ENDROOT
BRANCH   1  14
ATOM     11  C   UNL     1       4.142   5.872  18.242  0.00  0.00    +0.000 A 
ATOM     12  C   UNL     1       3.976   7.007  17.453  0.00  0.00    +0.000 A 
ATOM     13  C   UNL     1       3.018   7.957  17.812  0.00  0.00    +0.000 A 
ATOM     14  C   UNL     1       2.213   7.776  18.943  0.00  0.00    +0.000 A 
ATOM     15  C   UNL     1       2.374   6.616  19.712  0.00  0.00    +0.000 A 
ATOM     16  C   UNL     1       3.318   5.651  19.349  0.00  0.00    +0.000 A 
BRANCH  11  17
ATOM     17  S   UNL     1       5.401   4.682  17.819  0.00  0.00    +0.000 S 
ATOM     18  O   UNL     1       4.776   3.655  17.016  0.00  0.00    +0.000 OA
ATOM     19  O   UNL     1       6.109   4.355  19.037  0.00  0.00    +0.000 OA
BRANCH  17  21
ATOM     20  C   UNL     1       7.457   6.416  17.500  0.00  0.00    +0.000 C 
ATOM     21  N   UNL     1       6.451   5.584  16.818  0.00  0.00    +0.000 NA
ATOM     22  C   UNL     1       6.990   4.900  15.630  0.00  0.00    +0.000 C 
ENDBRANCH  17  21
ENDBRANCH  11  17
ENDBRANCH   1  14
BRANCH   7  23
ATOM     23  C   UNL     1      -2.470  13.213  21.666  0.00  0.00    +0.000 A 
ATOM     24  C   UNL     1      -2.453  14.584  21.368  0.00  0.00    +0.000 A 
ATOM     25  C   UNL     1      -3.465  15.452  21.787  0.00  0.00    +0.000 A 
ATOM     26  C   UNL     1      -4.536  14.961  22.520  0.00  0.00    +0.000 A 
ATOM     27  C   UNL     1      -4.603  13.599  22.829  0.00  0.00    +0.000 A 
ATOM     28  C   UNL     1      -3.575  12.743  22.388  0.00  0.00    +0.000 A 
BRANCH  27  29
ATOM     29  C   UNL     1      -5.740  13.042  23.645  0.00  0.00    +0.000 C 
ATOM     30  F   UNL     1      -6.530  14.000  24.207  0.00  0.00    +0.000 F 
ATOM     31  F   UNL     1      -6.575  12.254  22.911  0.00  0.00    +0.000 F 
ATOM     32  F   UNL     1      -5.308  12.264  24.677  0.00  0.00    +0.000 F 
ENDBRANCH  27  29
ENDBRANCH   7  23
TORSDOF 5
ENDMDL
MODEL 6
REMARK VINA RESULT:      -7.4      1.145      1.316
REMARK  Name = 
REMARK  7 active torsions:
REMARK  status: ('A' for Active; 'I' for Inactive)
REMARK    1  A    between atoms: C_1  and  N_2
REMARK    2  A    between atoms: N_2  and  C_3
REMARK    3  A    between atoms: N_2  and  S_4
REMARK    4  A    between atoms: S_4  and  C_7
REMARK    5  A    between atoms: C_10  and  N_11
REMARK    6  A    between atoms: N_17  and  C_18
REMARK    7  A    between atoms: C_22  and  C_23
REMARK                            x       y       z     vdW  Elec       q    Type
REMARK                         _______ _______ _______ _____ _____    ______ ____
ROOT
ATOM      1  N   UNL     1      -0.564  11.084  21.870  0.00  0.00    +0.000 N 
ATOM      2  C   UNL     1      -0.458  10.870  20.517  0.00  0.00    +0.000 C 
ATOM      3  O   UNL     1      -0.823  11.678  19.663  0.00  0.00    +0.000 OA
ATOM      4  N   UNL     1       0.157   9.692  20.144  0.00  0.00    +0.000 N 
ATOM      5  C   UNL     1       0.477   9.507  18.725  0.00  0.00    +0.000 C 
ATOM      6  C   UNL     1       1.923   9.026  18.547  0.00  0.00    +0.000 C 
ATOM      7  N   UNL     1       2.158   7.818  19.360  0.00  0.00    +0.000 N 
ATOM      8  C   UNL     1       1.800   7.935  20.785  0.00  0.00    +0.000 C 
ATOM      9  C   UNL     1       0.369   8.485  20.956  0.00  0.00    +0.000 C 
ATOM     10  H   UNL     1       0.060  10.551  22.450  0.00  0.00    +0.000 HD
ENDROOT
BRANCH   1  14
ATOM     11  C   UNL     1      -2.455  14.387  23.672  0.00  0.00    +0.000 A 
ATOM     12  C   UNL     1      -1.167  14.543  23.169  0.00  0.00    +0.000 A 
ATOM     13  C   UNL     1      -0.530  13.456  22.566  0.00  0.00    +0.000 A 
ATOM     14  C   UNL     1      -1.163  12.211  22.476  0.00  0.00    +0.000 A 
ATOM     15  C   UNL     1      -2.450  12.063  23.010  0.00  0.00    +0.000 A 
ATOM     16  C   UNL     1      -3.086  13.141  23.632  0.00  0.00    +0.000 A 
BRANCH  11  17
ATOM     17  S   UNL     1      -3.293  15.785  24.395  0.00  0.00    +0.000 S 
ATOM     18  O   UNL     1      -2.643  16.080  25.653  0.00  0.00    +0.000 OA
ATOM     19  O   UNL     1      -4.713  15.516  24.329  0.00  0.00    +0.000 OA
BRANCH  17  21
ATOM     20  C   UNL     1      -3.700  17.054  22.036  0.00  0.00    +0.000 C 
ATOM     21  N   UNL     1      -2.938  17.046  23.297  0.00  0.00    +0.000 NA
ATOM     22  C   UNL     1      -2.763  18.394  23.864  0.00  0.00    +0.000 C 
ENDBRANCH  17  21
ENDBRANCH  11  17
ENDBRANCH   1  14
BRANCH   7  23
ATOM     23  C   UNL     1       2.638   6.662  18.779  0.00  0.00    +0.000 A 
ATOM     24  C   UNL     1       3.666   6.696  17.824  0.00  0.00    +0.000 A 
ATOM     25  C   UNL     1       4.127   5.545  17.181  0.00  0.00    +0.000 A 
ATOM     26  C   UNL     1       3.567   4.313  17.487  0.00  0.00    +0.000 A 
ATOM     27  C   UNL     1       2.550   4.226  18.442  0.00  0.00    +0.000 A 
ATOM     28  C   UNL     1       2.108   5.401  19.083  0.00  0.00    +0.000 A 
BRANCH  27  29
ATOM     29  C   UNL     1       1.906   2.906  18.776  0.00  0.00    +0.000 C 
ATOM     30  F   UNL     1       2.543   2.223  19.767  0.00  0.00    +0.000 F 
ATOM     31  F   UNL     1       0.614   3.043  19.187  0.00  0.00    +0.000 F 
ATOM     32  F   UNL     1       1.867   2.061  17.708  0.00  0.00    +0.000 F 
ENDBRANCH  27  29
ENDBRANCH   7  23
TORSDOF 5
ENDMDL
MODEL 7
REMARK VINA RESULT:      -7.4      3.636      4.801
REMARK  Name = 
REMARK  7 active torsions:
REMARK  status: ('A' for Active; 'I' for Inactive)
REMARK    1  A    between atoms: C_1  and  N_2
REMARK    2  A    between atoms: N_2  and  C_3
REMARK    3  A    between atoms: N_2  and  S_4
REMARK    4  A    between atoms: S_4  and  C_7
REMARK    5  A    between atoms: C_10  and  N_11
REMARK    6  A    between atoms: N_17  and  C_18
REMARK    7  A    between atoms: C_22  and  C_23
REMARK                            x       y       z     vdW  Elec       q    Type
REMARK                         _______ _______ _______ _____ _____    ______ ____
ROOT
ATOM      1  N   UNL     1      -0.215  10.289  19.240  0.00  0.00    +0.000 N 
ATOM      2  C   UNL     1       0.364   9.381  20.093  0.00  0.00    +0.000 C 
ATOM      3  O   UNL     1      -0.075   9.113  21.212  0.00  0.00    +0.000 OA
ATOM      4  N   UNL     1       1.465   8.712  19.597  0.00  0.00    +0.000 N 
ATOM      5  C   UNL     1       1.997   7.595  20.383  0.00  0.00    +0.000 C 
ATOM      6  C   UNL     1       2.232   6.364  19.496  0.00  0.00    +0.000 C 
ATOM      7  N   UNL     1       3.082   6.724  18.345  0.00  0.00    +0.000 N 
ATOM      8  C   UNL     1       2.618   7.879  17.555  0.00  0.00    +0.000 C 
ATOM      9  C   UNL     1       2.318   9.090  18.462  0.00  0.00    +0.000 C 
ATOM     10  H   UNL     1      -0.002  10.175  18.265  0.00  0.00    +0.000 HD
ENDROOT
BRANCH   1  14
ATOM     11  C   UNL     1      -3.603  12.665  20.022  0.00  0.00    +0.000 A 
ATOM     12  C   UNL     1      -2.542  12.691  20.923  0.00  0.00    +0.000 A 
ATOM     13  C   UNL     1      -1.412  11.910  20.673  0.00  0.00    +0.000 A 
ATOM     14  C   UNL     1      -1.339  11.091  19.540  0.00  0.00    +0.000 A 
ATOM     15  C   UNL     1      -2.426  11.057  18.656  0.00  0.00    +0.000 A 
ATOM     16  C   UNL     1      -3.568  11.821  18.909  0.00  0.00    +0.000 A 
BRANCH  11  17
ATOM     17  S   UNL     1      -5.026  13.701  20.308  0.00  0.00    +0.000 S 
ATOM     18  O   UNL     1      -5.881  13.596  19.146  0.00  0.00    +0.000 OA
ATOM     19  O   UNL     1      -4.539  14.983  20.767  0.00  0.00    +0.000 OA
BRANCH  17  21
ATOM     20  C   UNL     1      -5.716  13.599  22.926  0.00  0.00    +0.000 C 
ATOM     21  N   UNL     1      -5.800  12.925  21.619  0.00  0.00    +0.000 NA
ATOM     22  C   UNL     1      -7.131  12.349  21.361  0.00  0.00    +0.000 C 
ENDBRANCH  17  21
ENDBRANCH  11  17
ENDBRANCH   1  14
BRANCH   7  23
ATOM     23  C   UNL     1       4.248   6.033  18.088  0.00  0.00    +0.000 A 
ATOM     24  C   UNL     1       5.162   5.737  19.112  0.00  0.00    +0.000 A 
ATOM     25  C   UNL     1       6.375   5.089  18.865  0.00  0.00    +0.000 A 
ATOM     26  C   UNL     1       6.704   4.711  17.571  0.00  0.00    +0.000 A 
ATOM     27  C   UNL     1       5.820   4.972  16.521  0.00  0.00    +0.000 A 
ATOM     28  C   UNL     1       4.599   5.619  16.797  0.00  0.00    +0.000 A 
BRANCH  27  29
ATOM     29  C   UNL     1       6.162   4.597  15.103  0.00  0.00    +0.000 C 
ATOM     30  F   UNL     1       6.286   3.254  14.909  0.00  0.00    +0.000 F 
ATOM     31  F   UNL     1       5.224   5.018  14.209  0.00  0.00    +0.000 F 
ATOM     32  F   UNL     1       7.340   5.142  14.690  0.00  0.00    +0.000 F 
ENDBRANCH  27  29
ENDBRANCH   7  23
TORSDOF 5
ENDMDL
MODEL 8
REMARK VINA RESULT:      -7.4      2.826      3.638
REMARK  Name = 
REMARK  7 active torsions:
REMARK  status: ('A' for Active; 'I' for Inactive)
REMARK    1  A    between atoms: C_1  and  N_2
REMARK    2  A    between atoms: N_2  and  C_3
REMARK    3  A    between atoms: N_2  and  S_4
REMARK    4  A    between atoms: S_4  and  C_7
REMARK    5  A    between atoms: C_10  and  N_11
REMARK    6  A    between atoms: N_17  and  C_18
REMARK    7  A    between atoms: C_22  and  C_23
REMARK                            x       y       z     vdW  Elec       q    Type
REMARK                         _______ _______ _______ _____ _____    ______ ____
ROOT
ATOM      1  N   UNL     1       0.421  10.996  21.045  0.00  0.00    +0.000 N 
ATOM      2  C   UNL     1       0.520  10.757  19.696  0.00  0.00    +0.000 C 
ATOM      3  O   UNL     1       0.305  11.607  18.831  0.00  0.00    +0.000 OA
ATOM      4  N   UNL     1       0.947   9.494  19.342  0.00  0.00    +0.000 N 
ATOM      5  C   UNL     1       1.263   9.250  17.931  0.00  0.00    +0.000 C 
ATOM      6  C   UNL     1       2.618   8.545  17.786  0.00  0.00    +0.000 C 
ATOM      7  N   UNL     1       2.642   7.320  18.610  0.00  0.00    +0.000 N 
ATOM      8  C   UNL     1       2.277   7.504  20.026  0.00  0.00    +0.000 C 
ATOM      9  C   UNL     1       0.948   8.275  20.163  0.00  0.00    +0.000 C 
ATOM     10  H   UNL     1       0.940  10.375  21.641  0.00  0.00    +0.000 HD
ENDROOT
BRANCH   1  14
ATOM     11  C   UNL     1      -0.743  14.655  22.776  0.00  0.00    +0.000 A 
ATOM     12  C   UNL     1      -1.537  13.531  22.984  0.00  0.00    +0.000 A 
ATOM     13  C   UNL     1      -1.160  12.311  22.418  0.00  0.00    +0.000 A 
ATOM     14  C   UNL     1      -0.005  12.208  21.633  0.00  0.00    +0.000 A 
ATOM     15  C   UNL     1       0.770  13.354  21.412  0.00  0.00    +0.000 A 
ATOM     16  C   UNL     1       0.389  14.583  21.959  0.00  0.00    +0.000 A 
BRANCH  11  17
ATOM     17  S   UNL     1      -1.190  16.203  23.540  0.00  0.00    +0.000 S 
ATOM     18  O   UNL     1      -2.166  16.843  22.687  0.00  0.00    +0.000 OA
ATOM     19  O   UNL     1       0.039  16.871  23.908  0.00  0.00    +0.000 OA
BRANCH  17  21
ATOM     20  C   UNL     1      -1.168  15.727  26.207  0.00  0.00    +0.000 C 
ATOM     21  N   UNL     1      -1.973  15.702  24.974  0.00  0.00    +0.000 NA
ATOM     22  C   UNL     1      -3.350  16.183  25.184  0.00  0.00    +0.000 C 
ENDBRANCH  17  21
ENDBRANCH  11  17
ENDBRANCH   1  14
BRANCH   7  23
ATOM     23  C   UNL     1       2.944   6.099  18.044  0.00  0.00    +0.000 A 
ATOM     24  C   UNL     1       2.045   5.022  18.107  0.00  0.00    +0.000 A 
ATOM     25  C   UNL     1       2.354   3.760  17.593  0.00  0.00    +0.000 A 
ATOM     26  C   UNL     1       3.584   3.544  16.989  0.00  0.00    +0.000 A 
ATOM     27  C   UNL     1       4.507   4.589  16.890  0.00  0.00    +0.000 A 
ATOM     28  C   UNL     1       4.169   5.854  17.409  0.00  0.00    +0.000 A 
BRANCH  27  29
ATOM     29  C   UNL     1       5.860   4.377  16.262  0.00  0.00    +0.000 C 
ATOM     30  F   UNL     1       6.869   4.256  17.169  0.00  0.00    +0.000 F 
ATOM     31  F   UNL     1       5.910   3.251  15.496  0.00  0.00    +0.000 F 
ATOM     32  F   UNL     1       6.219   5.402  15.440  0.00  0.00    +0.000 F 
ENDBRANCH  27  29
ENDBRANCH   7  23
TORSDOF 5
ENDMDL
MODEL 9
REMARK VINA RESULT:      -7.4      2.384      2.956
REMARK  Name = 
REMARK  7 active torsions:
REMARK  status: ('A' for Active; 'I' for Inactive)
REMARK    1  A    between atoms: C_1  and  N_2
REMARK    2  A    between atoms: N_2  and  C_3
REMARK    3  A    between atoms: N_2  and  S_4
REMARK    4  A    between atoms: S_4  and  C_7
REMARK    5  A    between atoms: C_10  and  N_11
REMARK    6  A    between atoms: N_17  and  C_18
REMARK    7  A    between atoms: C_22  and  C_23
REMARK                            x       y       z     vdW  Elec       q    Type
REMARK                         _______ _______ _______ _____ _____    ______ ____
ROOT
ATOM      1  N   UNL     1      -0.689  11.129  21.925  0.00  0.00    +0.000 N 
ATOM      2  C   UNL     1      -0.606  10.937  20.567  0.00  0.00    +0.000 C 
ATOM      3  O   UNL     1      -1.024  11.741  19.733  0.00  0.00    +0.000 OA
ATOM      4  N   UNL     1       0.047   9.790  20.164  0.00  0.00    +0.000 N 
ATOM      5  C   UNL     1       0.340   9.636  18.736  0.00  0.00    +0.000 C 
ATOM      6  C   UNL     1       1.800   9.217  18.518  0.00  0.00    +0.000 C 
ATOM      7  N   UNL     1       2.103   8.009  19.309  0.00  0.00    +0.000 N 
ATOM      8  C   UNL     1       1.773   8.093  20.743  0.00  0.00    +0.000 C 
ATOM      9  C   UNL     1       0.326   8.582  20.954  0.00  0.00    +0.000 C 
ATOM     10  H   UNL     1      -0.031  10.614  22.484  0.00  0.00    +0.000 HD
ENDROOT
BRANCH   1  14
ATOM     11  C   UNL     1      -2.464  14.444  23.821  0.00  0.00    +0.000 A 
ATOM     12  C   UNL     1      -3.173  13.248  23.757  0.00  0.00    +0.000 A 
ATOM     13  C   UNL     1      -2.594  12.141  23.134  0.00  0.00    +0.000 A 
ATOM     14  C   UNL     1      -1.319  12.222  22.560  0.00  0.00    +0.000 A 
ATOM     15  C   UNL     1      -0.629  13.441  22.611  0.00  0.00    +0.000 A 
ATOM     16  C   UNL     1      -1.209  14.559  23.216  0.00  0.00    +0.000 A 
BRANCH  11  17
ATOM     17  S   UNL     1      -3.176  15.846  24.663  0.00  0.00    +0.000 S 
ATOM     18  O   UNL     1      -2.514  15.967  25.943  0.00  0.00    +0.000 OA
ATOM     19  O   UNL     1      -4.614  15.716  24.571  0.00  0.00    +0.000 OA
BRANCH  17  21
ATOM     20  C   UNL     1      -3.627  17.555  22.610  0.00  0.00    +0.000 C 
ATOM     21  N   UNL     1      -2.696  17.159  23.681  0.00  0.00    +0.000 NA
ATOM     22  C   UNL     1      -2.090  18.315  24.364  0.00  0.00    +0.000 C 
ENDBRANCH  17  21
ENDBRANCH  11  17
ENDBRANCH   1  14
BRANCH   7  23
ATOM     23  C   UNL     1       2.615   6.881  18.701  0.00  0.00    +0.000 A 
ATOM     24  C   UNL     1       2.232   5.594  19.109  0.00  0.00    +0.000 A 
ATOM     25  C   UNL     1       2.780   4.438  18.547  0.00  0.00    +0.000 A 
ATOM     26  C   UNL     1       3.735   4.544  17.545  0.00  0.00    +0.000 A 
ATOM     27  C   UNL     1       4.138   5.805  17.096  0.00  0.00    +0.000 A 
ATOM     28  C   UNL     1       3.564   6.955  17.673  0.00  0.00    +0.000 A 
BRANCH  27  29
ATOM     29  C   UNL     1       5.190   5.951  16.028  0.00  0.00    +0.000 C 
ATOM     30  F   UNL     1       5.359   4.830  15.272  0.00  0.00    +0.000 F 
ATOM     31  F   UNL     1       4.910   6.955  15.151  0.00  0.00    +0.000 F 
ATOM     32  F   UNL     1       6.418   6.240  16.544  0.00  0.00    +0.000 F 
ENDBRANCH  27  29
ENDBRANCH   7  23
TORSDOF 5
ENDMDL
