MODEL 1
REMARK VINA RESULT:      -7.3      0.000      0.000
REMARK  Name = 
REMARK  14 active torsions:
REMARK  status: ('A' for Active; 'I' for Inactive)
REMARK    1  A    between atoms: C_1  and  O_2
REMARK    2  A    between atoms: O_2  and  C_3
REMARK    3  A    between atoms: C_3  and  C_5
REMARK    4  A    between atoms: C_5  and  C_6
REMARK    5  A    between atoms: C_6  and  C_7
REMARK    6  A    between atoms: C_12  and  O_13
REMARK    7  A    between atoms: O_13  and  C_14
REMARK    8  A    between atoms: C_19  and  C_20
REMARK    9  A    between atoms: C_22  and  O_23
REMARK   10  A    between atoms: O_23  and  C_24
REMARK   11  A    between atoms: C_25  and  O_26
REMARK   12  A    between atoms: O_26  and  C_27
REMARK   13  A    between atoms: C_28  and  O_29
REMARK   14  A    between atoms: O_29  and  C_30
REMARK                            x       y       z     vdW  Elec       q    Type
REMARK                         _______ _______ _______ _____ _____    ______ ____
ROOT
ATOM      1  C   UNL     1       3.255   4.966  19.193  0.00  0.00    +0.000 C 
ATOM      2  C   UNL     1       1.985   4.147  19.476  0.00  0.00    +0.000 C 
ATOM      3  C   UNL     1       1.698   3.475  18.173  0.00  0.00    +0.000 C 
ATOM      4  O   UNL     1       0.989   2.498  18.027  0.00  0.00    +0.000 OA
ATOM      5  O   UNL     1       2.289   4.134  17.148  0.00  0.00    +0.000 OA
ATOM      6  C   UNL     1       3.107   5.189  17.658  0.00  0.00    +0.000 C 
ENDROOT
BRANCH   6   7
ATOM      7  C   UNL     1       4.319   5.259  16.759  0.00  0.00    +0.000 A 
ATOM      8  C   UNL     1       5.340   6.190  16.986  0.00  0.00    +0.000 A 
ATOM      9  C   UNL     1       6.541   6.119  16.268  0.00  0.00    +0.000 A 
ATOM     10  C   UNL     1       6.717   5.118  15.283  0.00  0.00    +0.000 A 
ATOM     11  C   UNL     1       5.659   4.245  14.981  0.00  0.00    +0.000 A 
ATOM     12  C   UNL     1       4.464   4.370  15.692  0.00  0.00    +0.000 A 
BRANCH   9  13
ATOM     13  O   UNL     1       7.604   6.966  16.493  0.00  0.00    +0.000 OA
ATOM     14  C   UNL     1       7.756   7.470  17.815  0.00  0.00    +0.000 C 
ENDBRANCH   9  13
BRANCH  10  15
ATOM     15  O   UNL     1       7.941   5.121  14.651  0.00  0.00    +0.000 OA
ATOM     16  C   UNL     1       7.952   5.549  13.293  0.00  0.00    +0.000 C 
ENDBRANCH  10  15
BRANCH  11  17
ATOM     17  O   UNL     1       5.822   3.312  13.991  0.00  0.00    +0.000 OA
ATOM     18  C   UNL     1       5.113   3.521  12.772  0.00  0.00    +0.000 C 
ENDBRANCH  11  17
ENDBRANCH   6   7
BRANCH   1  19
ATOM     19  C   UNL     1       4.377   4.055  19.727  0.00  0.00    +0.000 C 
ATOM     20  O   UNL     1       5.571   4.221  19.532  0.00  0.00    +0.000 OA
BRANCH  19  22
ATOM     21  C   UNL     1       4.581   1.720  20.198  0.00  0.00    +0.000 C 
ATOM     22  O   UNL     1       3.862   2.949  20.332  0.00  0.00    +0.000 OA
ENDBRANCH  19  22
ENDBRANCH   1  19
BRANCH   1  23
ATOM     23  C   UNL     1       3.243   6.328  19.982  0.00  0.00    +0.000 C 
BRANCH  23  24
ATOM     24  C   UNL     1       2.419   7.514  19.481  0.00  0.00    +0.000 A 
ATOM     25  C   UNL     1       2.652   8.041  18.193  0.00  0.00    +0.000 A 
ATOM     26  C   UNL     1       1.857   9.027  17.606  0.00  0.00    +0.000 A 
ATOM     27  C   UNL     1       0.827   9.584  18.332  0.00  0.00    +0.000 A 
ATOM     28  C   UNL     1       0.650   9.186  19.652  0.00  0.00    +0.000 A 
ATOM     29  C   UNL     1       1.434   8.171  20.242  0.00  0.00    +0.000 A 
BRANCH  29  30
ATOM     30  O   UNL     1       1.153   8.072  21.576  0.00  0.00    +0.000 OA
ATOM     31  C   UNL     1       1.294   9.179  22.441  0.00  0.00    +0.000 C 
ENDBRANCH  29  30
ENDBRANCH  23  24
ENDBRANCH   1  23
TORSDOF 9
ENDMDL
MODEL 2
REMARK VINA RESULT:      -7.3      0.342      2.332
REMARK  Name = 
REMARK  14 active torsions:
REMARK  status: ('A' for Active; 'I' for Inactive)
REMARK    1  A    between atoms: C_1  and  O_2
REMARK    2  A    between atoms: O_2  and  C_3
REMARK    3  A    between atoms: C_3  and  C_5
REMARK    4  A    between atoms: C_5  and  C_6
REMARK    5  A    between atoms: C_6  and  C_7
REMARK    6  A    between atoms: C_12  and  O_13
REMARK    7  A    between atoms: O_13  and  C_14
REMARK    8  A    between atoms: C_19  and  C_20
REMARK    9  A    between atoms: C_22  and  O_23
REMARK   10  A    between atoms: O_23  and  C_24
REMARK   11  A    between atoms: C_25  and  O_26
REMARK   12  A    between atoms: O_26  and  C_27
REMARK   13  A    between atoms: C_28  and  O_29
REMARK   14  A    between atoms: O_29  and  C_30
REMARK                            x       y       z     vdW  Elec       q    Type
REMARK                         _______ _______ _______ _____ _____    ______ ____
ROOT
ATOM      1  C   UNL     1       3.352   4.804  19.111  0.00  0.00    +0.000 C 
ATOM      2  C   UNL     1       1.986   4.116  19.267  0.00  0.00    +0.000 C 
ATOM      3  C   UNL     1       1.769   3.453  17.945  0.00  0.00    +0.000 C 
ATOM      4  O   UNL     1       0.987   2.548  17.733  0.00  0.00    +0.000 OA
ATOM      5  O   UNL     1       2.522   4.036  16.983  0.00  0.00    +0.000 OA
ATOM      6  C   UNL     1       3.384   5.015  17.568  0.00  0.00    +0.000 C 
ENDROOT
BRANCH   6   7
ATOM      7  C   UNL     1       4.681   4.954  16.797  0.00  0.00    +0.000 A 
ATOM      8  C   UNL     1       4.876   4.019  15.773  0.00  0.00    +0.000 A 
ATOM      9  C   UNL     1       6.000   4.097  14.941  0.00  0.00    +0.000 A 
ATOM     10  C   UNL     1       6.965   5.111  15.151  0.00  0.00    +0.000 A 
ATOM     11  C   UNL     1       6.826   5.991  16.239  0.00  0.00    +0.000 A 
ATOM     12  C   UNL     1       5.711   5.858  17.068  0.00  0.00    +0.000 A 
BRANCH   9  13
ATOM     13  O   UNL     1       6.212   3.247  13.879  0.00  0.00    +0.000 OA
ATOM     14  C   UNL     1       5.362   3.404  12.749  0.00  0.00    +0.000 C 
ENDBRANCH   9  13
BRANCH  10  15
ATOM     15  O   UNL     1       8.021   5.115  14.266  0.00  0.00    +0.000 OA
ATOM     16  C   UNL     1       7.833   5.848  13.060  0.00  0.00    +0.000 C 
ENDBRANCH  10  15
BRANCH  11  17
ATOM     17  O   UNL     1       7.792   6.936  16.464  0.00  0.00    +0.000 OA
ATOM     18  C   UNL     1       7.743   7.638  17.703  0.00  0.00    +0.000 C 
ENDBRANCH  11  17
ENDBRANCH   6   7
BRANCH   1  19
ATOM     19  C   UNL     1       4.319   3.797  19.763  0.00  0.00    +0.000 C 
ATOM     20  O   UNL     1       5.538   3.861  19.715  0.00  0.00    +0.000 OA
BRANCH  19  22
ATOM     21  C   UNL     1       4.406   1.706  20.917  0.00  0.00    +0.000 C 
ATOM     22  O   UNL     1       3.643   2.739  20.288  0.00  0.00    +0.000 OA
ENDBRANCH  19  22
ENDBRANCH   1  19
BRANCH   1  23
ATOM     23  C   UNL     1       3.393   6.173  19.886  0.00  0.00    +0.000 C 
BRANCH  23  24
ATOM     24  C   UNL     1       2.584   7.373  19.396  0.00  0.00    +0.000 A 
ATOM     25  C   UNL     1       2.765   7.858  18.083  0.00  0.00    +0.000 A 
ATOM     26  C   UNL     1       1.974   8.855  17.510  0.00  0.00    +0.000 A 
ATOM     27  C   UNL     1       1.002   9.466  18.272  0.00  0.00    +0.000 A 
ATOM     28  C   UNL     1       0.882   9.109  19.611  0.00  0.00    +0.000 A 
ATOM     29  C   UNL     1       1.662   8.084  20.188  0.00  0.00    +0.000 A 
BRANCH  29  30
ATOM     30  O   UNL     1       1.448   8.029  21.537  0.00  0.00    +0.000 OA
ATOM     31  C   UNL     1       1.031   9.166  22.261  0.00  0.00    +0.000 C 
ENDBRANCH  29  30
ENDBRANCH  23  24
ENDBRANCH   1  23
TORSDOF 9
ENDMDL
MODEL 3
REMARK VINA RESULT:      -7.0      1.931      6.362
REMARK  Name = 
REMARK  14 active torsions:
REMARK  status: ('A' for Active; 'I' for Inactive)
REMARK    1  A    between atoms: C_1  and  O_2
REMARK    2  A    between atoms: O_2  and  C_3
REMARK    3  A    between atoms: C_3  and  C_5
REMARK    4  A    between atoms: C_5  and  C_6
REMARK    5  A    between atoms: C_6  and  C_7
REMARK    6  A    between atoms: C_12  and  O_13
REMARK    7  A    between atoms: O_13  and  C_14
REMARK    8  A    between atoms: C_19  and  C_20
REMARK    9  A    between atoms: C_22  and  O_23
REMARK   10  A    between atoms: O_23  and  C_24
REMARK   11  A    between atoms: C_25  and  O_26
REMARK   12  A    between atoms: O_26  and  C_27
REMARK   13  A    between atoms: C_28  and  O_29
REMARK   14  A    between atoms: O_29  and  C_30
REMARK                            x       y       z     vdW  Elec       q    Type
REMARK                         _______ _______ _______ _____ _____    ______ ____
ROOT
ATOM      1  C   UNL     1       3.307   4.092  18.720  0.00  0.00    +0.000 C 
ATOM      2  C   UNL     1       3.563   2.857  19.599  0.00  0.00    +0.000 C 
ATOM      3  C   UNL     1       3.054   3.266  20.944  0.00  0.00    +0.000 C 
ATOM      4  O   UNL     1       2.764   2.507  21.847  0.00  0.00    +0.000 OA
ATOM      5  O   UNL     1       3.011   4.616  21.054  0.00  0.00    +0.000 OA
ATOM      6  C   UNL     1       3.343   5.215  19.800  0.00  0.00    +0.000 C 
ENDROOT
BRANCH   6   7
ATOM      7  C   UNL     1       2.477   6.446  19.675  0.00  0.00    +0.000 A 
ATOM      8  C   UNL     1       1.581   6.811  20.687  0.00  0.00    +0.000 A 
ATOM      9  C   UNL     1       0.928   8.050  20.650  0.00  0.00    +0.000 A 
ATOM     10  C   UNL     1       1.151   8.932  19.566  0.00  0.00    +0.000 A 
ATOM     11  C   UNL     1       1.971   8.531  18.498  0.00  0.00    +0.000 A 
ATOM     12  C   UNL     1       2.575   7.273  18.554  0.00  0.00    +0.000 A 
BRANCH   9  13
ATOM     13  O   UNL     1       0.087   8.489  21.648  0.00  0.00    +0.000 OA
ATOM     14  C   UNL     1       0.678   9.237  22.705  0.00  0.00    +0.000 C 
ENDBRANCH   9  13
BRANCH  10  15
ATOM     15  O   UNL     1       0.479  10.134  19.635  0.00  0.00    +0.000 OA
ATOM     16  C   UNL     1      -0.778  10.195  18.970  0.00  0.00    +0.000 C 
ENDBRANCH  10  15
BRANCH  11  17
ATOM     17  O   UNL     1       2.140   9.371  17.430  0.00  0.00    +0.000 OA
ATOM     18  C   UNL     1       2.618  10.686  17.701  0.00  0.00    +0.000 C 
ENDBRANCH  11  17
ENDBRANCH   6   7
BRANCH   1  19
ATOM     19  C   UNL     1       1.978   3.748  18.022  0.00  0.00    +0.000 C 
ATOM     20  O   UNL     1       1.255   4.549  17.450  0.00  0.00    +0.000 OA
BRANCH  19  22
ATOM     21  C   UNL     1       0.365   2.191  18.852  0.00  0.00    +0.000 C 
ATOM     22  O   UNL     1       1.632   2.449  18.242  0.00  0.00    +0.000 OA
ENDBRANCH  19  22
ENDBRANCH   1  19
BRANCH   1  23
ATOM     23  C   UNL     1       4.448   4.277  17.651  0.00  0.00    +0.000 C 
BRANCH  23  24
ATOM     24  C   UNL     1       5.665   5.151  17.950  0.00  0.00    +0.000 A 
ATOM     25  C   UNL     1       6.231   5.155  19.243  0.00  0.00    +0.000 A 
ATOM     26  C   UNL     1       7.419   5.813  19.565  0.00  0.00    +0.000 A 
ATOM     27  C   UNL     1       8.055   6.567  18.603  0.00  0.00    +0.000 A 
ATOM     28  C   UNL     1       7.457   6.697  17.355  0.00  0.00    +0.000 A 
ATOM     29  C   UNL     1       6.269   6.014  17.016  0.00  0.00    +0.000 A 
BRANCH  29  30
ATOM     30  O   UNL     1       5.822   6.421  15.790  0.00  0.00    +0.000 OA
ATOM     31  C   UNL     1       4.652   7.199  15.657  0.00  0.00    +0.000 C 
ENDBRANCH  29  30
ENDBRANCH  23  24
ENDBRANCH   1  23
TORSDOF 9
ENDMDL
MODEL 4
REMARK VINA RESULT:      -6.8      1.761      7.392
REMARK  Name = 
REMARK  14 active torsions:
REMARK  status: ('A' for Active; 'I' for Inactive)
REMARK    1  A    between atoms: C_1  and  O_2
REMARK    2  A    between atoms: O_2  and  C_3
REMARK    3  A    between atoms: C_3  and  C_5
REMARK    4  A    between atoms: C_5  and  C_6
REMARK    5  A    between atoms: C_6  and  C_7
REMARK    6  A    between atoms: C_12  and  O_13
REMARK    7  A    between atoms: O_13  and  C_14
REMARK    8  A    between atoms: C_19  and  C_20
REMARK    9  A    between atoms: C_22  and  O_23
REMARK   10  A    between atoms: O_23  and  C_24
REMARK   11  A    between atoms: C_25  and  O_26
REMARK   12  A    between atoms: O_26  and  C_27
REMARK   13  A    between atoms: C_28  and  O_29
REMARK   14  A    between atoms: O_29  and  C_30
REMARK                            x       y       z     vdW  Elec       q    Type
REMARK                         _______ _______ _______ _____ _____    ______ ____
ROOT
ATOM      1  C   UNL     1       6.059   5.029  16.798  0.00  0.00    +0.000 C 
ATOM      2  C   UNL     1       7.074   6.156  16.549  0.00  0.00    +0.000 C 
ATOM      3  C   UNL     1       6.393   7.373  17.084  0.00  0.00    +0.000 C 
ATOM      4  O   UNL     1       6.945   8.413  17.385  0.00  0.00    +0.000 OA
ATOM      5  O   UNL     1       5.052   7.192  17.139  0.00  0.00    +0.000 OA
ATOM      6  C   UNL     1       4.731   5.843  16.790  0.00  0.00    +0.000 C 
ENDROOT
BRANCH   6   7
ATOM      7  C   UNL     1       3.565   5.445  17.664  0.00  0.00    +0.000 A 
ATOM      8  C   UNL     1       2.913   4.217  17.492  0.00  0.00    +0.000 A 
ATOM      9  C   UNL     1       1.966   3.776  18.424  0.00  0.00    +0.000 A 
ATOM     10  C   UNL     1       1.639   4.588  19.537  0.00  0.00    +0.000 A 
ATOM     11  C   UNL     1       2.216   5.863  19.662  0.00  0.00    +0.000 A 
ATOM     12  C   UNL     1       3.128   6.283  18.691  0.00  0.00    +0.000 A 
BRANCH   9  13
ATOM     13  O   UNL     1       1.341   2.552  18.342  0.00  0.00    +0.000 OA
ATOM     14  C   UNL     1       2.155   1.400  18.534  0.00  0.00    +0.000 C 
ENDBRANCH   9  13
BRANCH  10  15
ATOM     15  O   UNL     1       0.713   4.054  20.407  0.00  0.00    +0.000 OA
ATOM     16  C   UNL     1       1.226   3.240  21.456  0.00  0.00    +0.000 C 
ENDBRANCH  10  15
BRANCH  11  17
ATOM     17  O   UNL     1       1.855   6.662  20.715  0.00  0.00    +0.000 OA
ATOM     18  C   UNL     1       1.678   8.051  20.451  0.00  0.00    +0.000 C 
ENDBRANCH  11  17
ENDBRANCH   6   7
BRANCH   1  19
ATOM     19  C   UNL     1       6.560   4.399  18.112  0.00  0.00    +0.000 C 
ATOM     20  O   UNL     1       5.878   3.738  18.880  0.00  0.00    +0.000 OA
BRANCH  19  22
ATOM     21  C   UNL     1       8.073   5.466  19.624  0.00  0.00    +0.000 C 
ATOM     22  O   UNL     1       7.835   4.790  18.386  0.00  0.00    +0.000 OA
ENDBRANCH  19  22
ENDBRANCH   1  19
BRANCH   1  23
ATOM     23  C   UNL     1       6.094   3.963  15.640  0.00  0.00    +0.000 C 
BRANCH  23  24
ATOM     24  C   UNL     1       6.594   4.341  14.246  0.00  0.00    +0.000 A 
ATOM     25  C   UNL     1       7.659   5.256  14.101  0.00  0.00    +0.000 A 
ATOM     26  C   UNL     1       8.266   5.549  12.880  0.00  0.00    +0.000 A 
ATOM     27  C   UNL     1       7.770   4.981  11.726  0.00  0.00    +0.000 A 
ATOM     28  C   UNL     1       6.638   4.179  11.811  0.00  0.00    +0.000 A 
ATOM     29  C   UNL     1       6.035   3.859  13.047  0.00  0.00    +0.000 A 
BRANCH  29  30
ATOM     30  O   UNL     1       4.868   3.178  12.841  0.00  0.00    +0.000 OA
ATOM     31  C   UNL     1       4.297   3.069  11.555  0.00  0.00    +0.000 C 
ENDBRANCH  29  30
ENDBRANCH  23  24
ENDBRANCH   1  23
TORSDOF 9
ENDMDL
MODEL 5
REMARK VINA RESULT:      -6.6      6.319     10.716
REMARK  Name = 
REMARK  14 active torsions:
REMARK  status: ('A' for Active; 'I' for Inactive)
REMARK    1  A    between atoms: C_1  and  O_2
REMARK    2  A    between atoms: O_2  and  C_3
REMARK    3  A    between atoms: C_3  and  C_5
REMARK    4  A    between atoms: C_5  and  C_6
REMARK    5  A    between atoms: C_6  and  C_7
REMARK    6  A    between atoms: C_12  and  O_13
REMARK    7  A    between atoms: O_13  and  C_14
REMARK    8  A    between atoms: C_19  and  C_20
REMARK    9  A    between atoms: C_22  and  O_23
REMARK   10  A    between atoms: O_23  and  C_24
REMARK   11  A    between atoms: C_25  and  O_26
REMARK   12  A    between atoms: O_26  and  C_27
REMARK   13  A    between atoms: C_28  and  O_29
REMARK   14  A    between atoms: O_29  and  C_30
REMARK                            x       y       z     vdW  Elec       q    Type
REMARK                         _______ _______ _______ _____ _____    ______ ____
ROOT
ATOM      1  C   UNL     1      -0.177  10.902  19.734  0.00  0.00    +0.000 C 
ATOM      2  C   UNL     1       0.893  10.785  18.635  0.00  0.00    +0.000 C 
ATOM      3  C   UNL     1       1.547  12.129  18.633  0.00  0.00    +0.000 C 
ATOM      4  O   UNL     1       2.638  12.379  18.160  0.00  0.00    +0.000 OA
ATOM      5  O   UNL     1       0.735  13.063  19.182  0.00  0.00    +0.000 OA
ATOM      6  C   UNL     1      -0.438  12.437  19.707  0.00  0.00    +0.000 C 
ENDROOT
BRANCH   6   7
ATOM      7  C   UNL     1      -0.793  13.191  20.967  0.00  0.00    +0.000 A 
ATOM      8  C   UNL     1      -1.937  12.870  21.709  0.00  0.00    +0.000 A 
ATOM      9  C   UNL     1      -2.152  13.440  22.970  0.00  0.00    +0.000 A 
ATOM     10  C   UNL     1      -1.223  14.372  23.491  0.00  0.00    +0.000 A 
ATOM     11  C   UNL     1      -0.127  14.774  22.710  0.00  0.00    +0.000 A 
ATOM     12  C   UNL     1       0.034  14.210  21.442  0.00  0.00    +0.000 A 
BRANCH   9  13
ATOM     13  O   UNL     1      -3.224  13.115  23.771  0.00  0.00    +0.000 OA
ATOM     14  C   UNL     1      -4.462  12.857  23.117  0.00  0.00    +0.000 C 
ENDBRANCH   9  13
BRANCH  10  15
ATOM     15  O   UNL     1      -1.515  14.858  24.747  0.00  0.00    +0.000 OA
ATOM     16  C   UNL     1      -2.201  16.104  24.801  0.00  0.00    +0.000 C 
ENDBRANCH  10  15
BRANCH  11  17
ATOM     17  O   UNL     1       0.739  15.714  23.203  0.00  0.00    +0.000 OA
ATOM     18  C   UNL     1       0.751  16.990  22.566  0.00  0.00    +0.000 C 
ENDBRANCH  11  17
ENDBRANCH   6   7
BRANCH   1  19
ATOM     19  C   UNL     1       0.514  10.266  20.955  0.00  0.00    +0.000 C 
ATOM     20  O   UNL     1       1.320  10.829  21.679  0.00  0.00    +0.000 OA
BRANCH  19  22
ATOM     21  C   UNL     1       1.308   8.014  21.061  0.00  0.00    +0.000 C 
ATOM     22  O   UNL     1       0.218   8.940  21.049  0.00  0.00    +0.000 OA
ENDBRANCH  19  22
ENDBRANCH   1  19
BRANCH   1  23
ATOM     23  C   UNL     1      -1.470  10.086  19.358  0.00  0.00    +0.000 C 
BRANCH  23  24
ATOM     24  C   UNL     1      -2.285  10.441  18.115  0.00  0.00    +0.000 A 
ATOM     25  C   UNL     1      -1.896   9.947  16.851  0.00  0.00    +0.000 A 
ATOM     26  C   UNL     1      -2.656  10.106  15.691  0.00  0.00    +0.000 A 
ATOM     27  C   UNL     1      -3.818  10.845  15.743  0.00  0.00    +0.000 A 
ATOM     28  C   UNL     1      -4.165  11.461  16.940  0.00  0.00    +0.000 A 
ATOM     29  C   UNL     1      -3.414  11.283  18.122  0.00  0.00    +0.000 A 
BRANCH  29  30
ATOM     30  O   UNL     1      -3.884  12.101  19.110  0.00  0.00    +0.000 OA
ATOM     31  C   UNL     1      -5.265  12.351  19.261  0.00  0.00    +0.000 C 
ENDBRANCH  29  30
ENDBRANCH  23  24
ENDBRANCH   1  23
TORSDOF 9
ENDMDL
MODEL 6
REMARK VINA RESULT:      -6.5      1.999      6.550
REMARK  Name = 
REMARK  14 active torsions:
REMARK  status: ('A' for Active; 'I' for Inactive)
REMARK    1  A    between atoms: C_1  and  O_2
REMARK    2  A    between atoms: O_2  and  C_3
REMARK    3  A    between atoms: C_3  and  C_5
REMARK    4  A    between atoms: C_5  and  C_6
REMARK    5  A    between atoms: C_6  and  C_7
REMARK    6  A    between atoms: C_12  and  O_13
REMARK    7  A    between atoms: O_13  and  C_14
REMARK    8  A    between atoms: C_19  and  C_20
REMARK    9  A    between atoms: C_22  and  O_23
REMARK   10  A    between atoms: O_23  and  C_24
REMARK   11  A    between atoms: C_25  and  O_26
REMARK   12  A    between atoms: O_26  and  C_27
REMARK   13  A    between atoms: C_28  and  O_29
REMARK   14  A    between atoms: O_29  and  C_30
REMARK                            x       y       z     vdW  Elec       q    Type
REMARK                         _______ _______ _______ _____ _____    ______ ____
ROOT
ATOM      1  C   UNL     1       2.918   4.286  18.928  0.00  0.00    +0.000 C 
ATOM      2  C   UNL     1       3.039   3.036  19.816  0.00  0.00    +0.000 C 
ATOM      3  C   UNL     1       2.645   3.524  21.172  0.00  0.00    +0.000 C 
ATOM      4  O   UNL     1       2.291   2.819  22.096  0.00  0.00    +0.000 OA
ATOM      5  O   UNL     1       2.788   4.867  21.264  0.00  0.00    +0.000 OA
ATOM      6  C   UNL     1       3.147   5.404  19.989  0.00  0.00    +0.000 C 
ENDROOT
BRANCH   6   7
ATOM      7  C   UNL     1       2.450   6.740  19.879  0.00  0.00    +0.000 A 
ATOM      8  C   UNL     1       2.657   7.580  18.778  0.00  0.00    +0.000 A 
ATOM      9  C   UNL     1       1.865   8.720  18.592  0.00  0.00    +0.000 A 
ATOM     10  C   UNL     1       0.864   9.046  19.538  0.00  0.00    +0.000 A 
ATOM     11  C   UNL     1       0.718   8.263  20.696  0.00  0.00    +0.000 A 
ATOM     12  C   UNL     1       1.552   7.155  20.863  0.00  0.00    +0.000 A 
BRANCH   9  13
ATOM     13  O   UNL     1       1.980   9.547  17.497  0.00  0.00    +0.000 OA
ATOM     14  C   UNL     1       2.497  10.853  17.728  0.00  0.00    +0.000 C 
ENDBRANCH   9  13
BRANCH  10  15
ATOM     15  O   UNL     1       0.126  10.174  19.252  0.00  0.00    +0.000 OA
ATOM     16  C   UNL     1      -1.132   9.964  18.619  0.00  0.00    +0.000 C 
ENDBRANCH  10  15
BRANCH  11  17
ATOM     17  O   UNL     1      -0.219   8.616  21.630  0.00  0.00    +0.000 OA
ATOM     18  C   UNL     1       0.214   9.431  22.716  0.00  0.00    +0.000 C 
ENDBRANCH  11  17
ENDBRANCH   6   7
BRANCH   1  19
ATOM     19  C   UNL     1       1.528   4.118  18.286  0.00  0.00    +0.000 C 
ATOM     20  O   UNL     1       1.154   4.671  17.263  0.00  0.00    +0.000 OA
BRANCH  19  22
ATOM     21  C   UNL     1       0.424   2.035  18.679  0.00  0.00    +0.000 C 
ATOM     22  O   UNL     1       0.708   3.377  19.082  0.00  0.00    +0.000 OA
ENDBRANCH  19  22
ENDBRANCH   1  19
BRANCH   1  23
ATOM     23  C   UNL     1       4.030   4.305  17.814  0.00  0.00    +0.000 C 
BRANCH  23  24
ATOM     24  C   UNL     1       5.341   5.059  18.031  0.00  0.00    +0.000 A 
ATOM     25  C   UNL     1       5.927   5.103  19.315  0.00  0.00    +0.000 A 
ATOM     26  C   UNL     1       7.186   5.648  19.572  0.00  0.00    +0.000 A 
ATOM     27  C   UNL     1       7.884   6.247  18.546  0.00  0.00    +0.000 A 
ATOM     28  C   UNL     1       7.282   6.344  17.297  0.00  0.00    +0.000 A 
ATOM     29  C   UNL     1       6.020   5.772  17.024  0.00  0.00    +0.000 A 
BRANCH  29  30
ATOM     30  O   UNL     1       5.599   6.128  15.774  0.00  0.00    +0.000 OA
ATOM     31  C   UNL     1       4.674   7.176  15.581  0.00  0.00    +0.000 C 
ENDBRANCH  29  30
ENDBRANCH  23  24
ENDBRANCH   1  23
TORSDOF 9
ENDMDL
MODEL 7
REMARK VINA RESULT:      -6.5      1.648      7.195
REMARK  Name = 
REMARK  14 active torsions:
REMARK  status: ('A' for Active; 'I' for Inactive)
REMARK    1  A    between atoms: C_1  and  O_2
REMARK    2  A    between atoms: O_2  and  C_3
REMARK    3  A    between atoms: C_3  and  C_5
REMARK    4  A    between atoms: C_5  and  C_6
REMARK    5  A    between atoms: C_6  and  C_7
REMARK    6  A    between atoms: C_12  and  O_13
REMARK    7  A    between atoms: O_13  and  C_14
REMARK    8  A    between atoms: C_19  and  C_20
REMARK    9  A    between atoms: C_22  and  O_23
REMARK   10  A    between atoms: O_23  and  C_24
REMARK   11  A    between atoms: C_25  and  O_26
REMARK   12  A    between atoms: O_26  and  C_27
REMARK   13  A    between atoms: C_28  and  O_29
REMARK   14  A    between atoms: O_29  and  C_30
REMARK                            x       y       z     vdW  Elec       q    Type
REMARK                         _______ _______ _______ _____ _____    ______ ____
ROOT
ATOM      1  C   UNL     1       5.285   4.529  17.040  0.00  0.00    +0.000 C 
ATOM      2  C   UNL     1       6.815   4.412  17.150  0.00  0.00    +0.000 C 
ATOM      3  C   UNL     1       7.187   5.501  18.103  0.00  0.00    +0.000 C 
ATOM      4  O   UNL     1       8.232   5.569  18.719  0.00  0.00    +0.000 OA
ATOM      5  O   UNL     1       6.222   6.450  18.153  0.00  0.00    +0.000 OA
ATOM      6  C   UNL     1       5.097   6.039  17.374  0.00  0.00    +0.000 C 
ENDROOT
BRANCH   6   7
ATOM      7  C   UNL     1       3.871   6.529  18.108  0.00  0.00    +0.000 A 
ATOM      8  C   UNL     1       3.295   5.783  19.143  0.00  0.00    +0.000 A 
ATOM      9  C   UNL     1       2.283   6.331  19.940  0.00  0.00    +0.000 A 
ATOM     10  C   UNL     1       1.814   7.642  19.683  0.00  0.00    +0.000 A 
ATOM     11  C   UNL     1       2.317   8.358  18.584  0.00  0.00    +0.000 A 
ATOM     12  C   UNL     1       3.299   7.763  17.790  0.00  0.00    +0.000 A 
BRANCH   9  13
ATOM     13  O   UNL     1       1.725   5.670  21.011  0.00  0.00    +0.000 OA
ATOM     14  C   UNL     1       1.592   4.257  20.897  0.00  0.00    +0.000 C 
ENDBRANCH   9  13
BRANCH  10  15
ATOM     15  O   UNL     1       0.833   8.097  20.538  0.00  0.00    +0.000 OA
ATOM     16  C   UNL     1       1.268   8.894  21.634  0.00  0.00    +0.000 C 
ENDBRANCH  10  15
BRANCH  11  17
ATOM     17  O   UNL     1       1.820   9.606  18.313  0.00  0.00    +0.000 OA
ATOM     18  C   UNL     1       0.463   9.691  17.888  0.00  0.00    +0.000 C 
ENDBRANCH  11  17
ENDBRANCH   6   7
BRANCH   1  19
ATOM     19  C   UNL     1       4.787   3.460  18.031  0.00  0.00    +0.000 C 
ATOM     20  O   UNL     1       5.195   3.314  19.172  0.00  0.00    +0.000 OA
BRANCH  19  22
ATOM     21  C   UNL     1       2.852   2.068  18.212  0.00  0.00    +0.000 C 
ATOM     22  O   UNL     1       3.923   2.598  17.426  0.00  0.00    +0.000 OA
ENDBRANCH  19  22
ENDBRANCH   1  19
BRANCH   1  23
ATOM     23  C   UNL     1       4.791   4.190  15.584  0.00  0.00    +0.000 C 
BRANCH  23  24
ATOM     24  C   UNL     1       5.715   4.376  14.382  0.00  0.00    +0.000 A 
ATOM     25  C   UNL     1       6.867   5.185  14.495  0.00  0.00    +0.000 A 
ATOM     26  C   UNL     1       7.834   5.297  13.495  0.00  0.00    +0.000 A 
ATOM     27  C   UNL     1       7.641   4.650  12.294  0.00  0.00    +0.000 A 
ATOM     28  C   UNL     1       6.455   3.952  12.095  0.00  0.00    +0.000 A 
ATOM     29  C   UNL     1       5.485   3.814  13.111  0.00  0.00    +0.000 A 
BRANCH  29  30
ATOM     30  O   UNL     1       4.364   3.208  12.617  0.00  0.00    +0.000 OA
ATOM     31  C   UNL     1       4.185   3.016  11.230  0.00  0.00    +0.000 C 
ENDBRANCH  29  30
ENDBRANCH  23  24
ENDBRANCH   1  23
TORSDOF 9
ENDMDL
MODEL 8
REMARK VINA RESULT:      -6.4      1.318      2.667
REMARK  Name = 
REMARK  14 active torsions:
REMARK  status: ('A' for Active; 'I' for Inactive)
REMARK    1  A    between atoms: C_1  and  O_2
REMARK    2  A    between atoms: O_2  and  C_3
REMARK    3  A    between atoms: C_3  and  C_5
REMARK    4  A    between atoms: C_5  and  C_6
REMARK    5  A    between atoms: C_6  and  C_7
REMARK    6  A    between atoms: C_12  and  O_13
REMARK    7  A    between atoms: O_13  and  C_14
REMARK    8  A    between atoms: C_19  and  C_20
REMARK    9  A    between atoms: C_22  and  O_23
REMARK   10  A    between atoms: O_23  and  C_24
REMARK   11  A    between atoms: C_25  and  O_26
REMARK   12  A    between atoms: O_26  and  C_27
REMARK   13  A    between atoms: C_28  and  O_29
REMARK   14  A    between atoms: O_29  and  C_30
REMARK                            x       y       z     vdW  Elec       q    Type
REMARK                         _______ _______ _______ _____ _____    ______ ____
ROOT
ATOM      1  C   UNL     1       2.215   4.263  20.016  0.00  0.00    +0.000 C 
ATOM      2  C   UNL     1       0.801   3.669  19.904  0.00  0.00    +0.000 C 
ATOM      3  C   UNL     1       0.797   3.011  18.563  0.00  0.00    +0.000 C 
ATOM      4  O   UNL     1       0.012   2.157  18.201  0.00  0.00    +0.000 OA
ATOM      5  O   UNL     1       1.759   3.534  17.765  0.00  0.00    +0.000 OA
ATOM      6  C   UNL     1       2.555   4.459  18.509  0.00  0.00    +0.000 C 
ENDROOT
BRANCH   6   7
ATOM      7  C   UNL     1       3.969   4.306  18.001  0.00  0.00    +0.000 A 
ATOM      8  C   UNL     1       4.234   3.756  16.740  0.00  0.00    +0.000 A 
ATOM      9  C   UNL     1       5.527   3.797  16.202  0.00  0.00    +0.000 A 
ATOM     10  C   UNL     1       6.584   4.372  16.947  0.00  0.00    +0.000 A 
ATOM     11  C   UNL     1       6.345   4.835  18.252  0.00  0.00    +0.000 A 
ATOM     12  C   UNL     1       5.051   4.743  18.768  0.00  0.00    +0.000 A 
BRANCH   9  13
ATOM     13  O   UNL     1       5.834   3.330  14.944  0.00  0.00    +0.000 OA
ATOM     14  C   UNL     1       5.301   4.056  13.841  0.00  0.00    +0.000 C 
ENDBRANCH   9  13
BRANCH  10  15
ATOM     15  O   UNL     1       7.811   4.383  16.320  0.00  0.00    +0.000 OA
ATOM     16  C   UNL     1       7.982   5.339  15.279  0.00  0.00    +0.000 C 
ENDBRANCH  10  15
BRANCH  11  17
ATOM     17  O   UNL     1       7.386   5.343  18.984  0.00  0.00    +0.000 OA
ATOM     18  C   UNL     1       7.832   6.657  18.660  0.00  0.00    +0.000 C 
ENDBRANCH  11  17
ENDBRANCH   6   7
BRANCH   1  19
ATOM     19  C   UNL     1       2.970   3.200  20.837  0.00  0.00    +0.000 C 
ATOM     20  O   UNL     1       2.960   3.113  22.055  0.00  0.00    +0.000 OA
BRANCH  19  22
ATOM     21  C   UNL     1       4.821   1.697  20.661  0.00  0.00    +0.000 C 
ATOM     22  O   UNL     1       3.774   2.445  20.037  0.00  0.00    +0.000 OA
ENDBRANCH  19  22
ENDBRANCH   1  19
BRANCH   1  23
ATOM     23  C   UNL     1       2.198   5.633  20.791  0.00  0.00    +0.000 C 
BRANCH  23  24
ATOM     24  C   UNL     1       1.993   6.951  20.044  0.00  0.00    +0.000 A 
ATOM     25  C   UNL     1       2.480   7.099  18.728  0.00  0.00    +0.000 A 
ATOM     26  C   UNL     1       2.216   8.212  17.927  0.00  0.00    +0.000 A 
ATOM     27  C   UNL     1       1.506   9.269  18.453  0.00  0.00    +0.000 A 
ATOM     28  C   UNL     1       1.124   9.217  19.789  0.00  0.00    +0.000 A 
ATOM     29  C   UNL     1       1.365   8.084  20.596  0.00  0.00    +0.000 A 
BRANCH  29  30
ATOM     30  O   UNL     1       1.020   8.344  21.892  0.00  0.00    +0.000 OA
ATOM     31  C   UNL     1      -0.217   8.941  22.218  0.00  0.00    +0.000 C 
ENDBRANCH  29  30
ENDBRANCH  23  24
ENDBRANCH   1  23
TORSDOF 9
ENDMDL
MODEL 9
REMARK VINA RESULT:      -6.4      7.054     10.586
REMARK  Name = 
REMARK  14 active torsions:
REMARK  status: ('A' for Active; 'I' for Inactive)
REMARK    1  A    between atoms: C_1  and  O_2
REMARK    2  A    between atoms: O_2  and  C_3
REMARK    3  A    between atoms: C_3  and  C_5
REMARK    4  A    between atoms: C_5  and  C_6
REMARK    5  A    between atoms: C_6  and  C_7
REMARK    6  A    between atoms: C_12  and  O_13
REMARK    7  A    between atoms: O_13  and  C_14
REMARK    8  A    between atoms: C_19  and  C_20
REMARK    9  A    between atoms: C_22  and  O_23
REMARK   10  A    between atoms: O_23  and  C_24
REMARK   11  A    between atoms: C_25  and  O_26
REMARK   12  A    between atoms: O_26  and  C_27
REMARK   13  A    between atoms: C_28  and  O_29
REMARK   14  A    between atoms: O_29  and  C_30
REMARK                            x       y       z     vdW  Elec       q    Type
REMARK                         _______ _______ _______ _____ _____    ______ ____
ROOT
ATOM      1  C   UNL     1      -1.654  13.356  22.276  0.00  0.00    +0.000 C 
ATOM      2  C   UNL     1      -2.410  14.324  23.202  0.00  0.00    +0.000 C 
ATOM      3  C   UNL     1      -3.762  14.433  22.573  0.00  0.00    +0.000 C 
ATOM      4  O   UNL     1      -4.766  14.827  23.131  0.00  0.00    +0.000 OA
ATOM      5  O   UNL     1      -3.716  14.086  21.265  0.00  0.00    +0.000 OA
ATOM      6  C   UNL     1      -2.412  13.601  20.937  0.00  0.00    +0.000 C 
ENDROOT
BRANCH   6   7
ATOM      7  C   UNL     1      -2.612  12.486  19.938  0.00  0.00    +0.000 A 
ATOM      8  C   UNL     1      -3.861  12.253  19.348  0.00  0.00    +0.000 A 
ATOM      9  C   UNL     1      -3.990  11.349  18.287  0.00  0.00    +0.000 A 
ATOM     10  C   UNL     1      -2.857  10.640  17.821  0.00  0.00    +0.000 A 
ATOM     11  C   UNL     1      -1.622  10.795  18.473  0.00  0.00    +0.000 A 
ATOM     12  C   UNL     1      -1.541  11.679  19.552  0.00  0.00    +0.000 A 
BRANCH   9  13
ATOM     13  O   UNL     1      -5.178  11.127  17.627  0.00  0.00    +0.000 OA
ATOM     14  C   UNL     1      -5.915  12.276  17.224  0.00  0.00    +0.000 C 
ENDBRANCH   9  13
BRANCH  10  15
ATOM     15  O   UNL     1      -3.086   9.793  16.759  0.00  0.00    +0.000 OA
ATOM     16  C   UNL     1      -2.797  10.308  15.463  0.00  0.00    +0.000 C 
ENDBRANCH  10  15
BRANCH  11  17
ATOM     17  O   UNL     1      -0.543  10.067  18.046  0.00  0.00    +0.000 OA
ATOM     18  C   UNL     1       0.722  10.372  18.627  0.00  0.00    +0.000 C 
ENDBRANCH  11  17
ENDBRANCH   6   7
BRANCH   1  19
ATOM     19  C   UNL     1      -1.800  12.004  22.999  0.00  0.00    +0.000 C 
ATOM     20  O   UNL     1      -2.835  11.573  23.483  0.00  0.00    +0.000 OA
BRANCH  19  22
ATOM     21  C   UNL     1      -0.535   9.976  23.052  0.00  0.00    +0.000 C 
ATOM     22  O   UNL     1      -0.589  11.401  23.158  0.00  0.00    +0.000 OA
ENDBRANCH  19  22
ENDBRANCH   1  19
BRANCH   1  23
ATOM     23  C   UNL     1      -0.133  13.748  22.163  0.00  0.00    +0.000 C 
BRANCH  23  24
ATOM     24  C   UNL     1       0.364  14.628  21.016  0.00  0.00    +0.000 A 
ATOM     25  C   UNL     1       1.187  14.078  20.010  0.00  0.00    +0.000 A 
ATOM     26  C   UNL     1       1.570  14.771  18.860  0.00  0.00    +0.000 A 
ATOM     27  C   UNL     1       1.196  16.089  18.710  0.00  0.00    +0.000 A 
ATOM     28  C   UNL     1       0.498  16.706  19.743  0.00  0.00    +0.000 A 
ATOM     29  C   UNL     1       0.087  16.003  20.896  0.00  0.00    +0.000 A 
BRANCH  29  30
ATOM     30  O   UNL     1      -0.452  16.866  21.808  0.00  0.00    +0.000 OA
ATOM     31  C   UNL     1      -1.622  17.602  21.522  0.00  0.00    +0.000 C 
ENDBRANCH  29  30
ENDBRANCH  23  24
ENDBRANCH   1  23
TORSDOF 9
ENDMDL
