MODEL 1
REMARK VINA RESULT:      -7.4      0.000      0.000
REMARK  Name = 
REMARK  8 active torsions:
REMARK  status: ('A' for Active; 'I' for Inactive)
REMARK    1  A    between atoms: C_2  and  C_19
REMARK    2  A    between atoms: N_3  and  N_4
REMARK    3  A    between atoms: C_5  and  C_6
REMARK    4  A    between atoms: C_6  and  C_7
REMARK    5  A    between atoms: C_7  and  C_8
REMARK    6  A    between atoms: C_8  and  C_9
REMARK    7  A    between atoms: N_10  and  N_11
REMARK    8  A    between atoms: C_12  and  C_14
REMARK                            x       y       z     vdW  Elec       q    Type
REMARK                         _______ _______ _______ _____ _____    ______ ____
ROOT
ATOM      1  C   UNL     1       7.187   7.664  17.408  0.00  0.00    +0.000 C 
ENDROOT
BRANCH   1   3
ATOM      2  N   UNL     1       7.526   6.060  15.615  0.00  0.00    +0.000 NA
ATOM      3  C   UNL     1       6.731   6.534  16.518  0.00  0.00    +0.000 C 
BRANCH   2   6
ATOM      4  O   UNL     1       8.044   5.859  12.897  0.00  0.00    +0.000 OA
ATOM      5  C   UNL     1       7.337   5.037  13.472  0.00  0.00    +0.000 C 
ATOM      6  N   UNL     1       7.019   5.065  14.826  0.00  0.00    +0.000 N 
ATOM      7  H   UNL     1       6.320   4.440  15.208  0.00  0.00    +0.000 HD
BRANCH   5   8
ATOM      8  C   UNL     1       6.732   3.925  12.680  0.00  0.00    +0.000 A 
ATOM      9  C   UNL     1       7.509   2.972  12.009  0.00  0.00    +0.000 A 
ATOM     10  C   UNL     1       6.892   1.962  11.264  0.00  0.00    +0.000 A 
ATOM     11  C   UNL     1       5.501   1.903  11.177  0.00  0.00    +0.000 A 
ATOM     12  C   UNL     1       4.722   2.857  11.829  0.00  0.00    +0.000 A 
ATOM     13  C   UNL     1       5.334   3.867  12.574  0.00  0.00    +0.000 A 
ENDBRANCH   5   8
ENDBRANCH   2   6
ENDBRANCH   1   3
BRANCH   1  14
ATOM     14  C   UNL     1       8.131   7.173  18.505  0.00  0.00    +0.000 C 
BRANCH  14  15
ATOM     15  C   UNL     1       7.982   5.667  18.715  0.00  0.00    +0.000 C 
BRANCH  15  16
ATOM     16  C   UNL     1       6.573   5.291  19.107  0.00  0.00    +0.000 C 
ATOM     17  N   UNL     1       6.172   4.071  18.966  0.00  0.00    +0.000 NA
BRANCH  17  18
ATOM     18  N   UNL     1       4.870   3.820  19.302  0.00  0.00    +0.000 N 
ATOM     19  C   UNL     1       3.873   3.845  18.333  0.00  0.00    +0.000 C 
ATOM     20  O   UNL     1       4.076   4.079  17.142  0.00  0.00    +0.000 OA
ATOM     21  H   UNL     1       4.605   3.642  20.266  0.00  0.00    +0.000 HD
BRANCH  19  22
ATOM     22  C   UNL     1       2.548   3.567  18.854  0.00  0.00    +0.000 A 
ATOM     23  C   UNL     1       1.621   2.603  18.498  0.00  0.00    +0.000 A 
ATOM     24  C   UNL     1       0.501   2.779  19.345  0.00  0.00    +0.000 A 
ATOM     25  C   UNL     1       0.805   3.840  20.164  0.00  0.00    +0.000 A 
ATOM     26  O   UNL     1       2.041   4.328  19.877  0.00  0.00    +0.000 OA
ENDBRANCH  19  22
ENDBRANCH  17  18
ENDBRANCH  15  16
ENDBRANCH  14  15
ENDBRANCH   1  14
TORSDOF 8
ENDMDL
MODEL 2
REMARK VINA RESULT:      -7.3      4.173      7.384
REMARK  Name = 
REMARK  8 active torsions:
REMARK  status: ('A' for Active; 'I' for Inactive)
REMARK    1  A    between atoms: C_2  and  C_19
REMARK    2  A    between atoms: N_3  and  N_4
REMARK    3  A    between atoms: C_5  and  C_6
REMARK    4  A    between atoms: C_6  and  C_7
REMARK    5  A    between atoms: C_7  and  C_8
REMARK    6  A    between atoms: C_8  and  C_9
REMARK    7  A    between atoms: N_10  and  N_11
REMARK    8  A    between atoms: C_12  and  C_14
REMARK                            x       y       z     vdW  Elec       q    Type
REMARK                         _______ _______ _______ _____ _____    ______ ____
ROOT
ATOM      1  C   UNL     1       6.880   7.116  17.006  0.00  0.00    +0.000 C 
ENDROOT
BRANCH   1   3
ATOM      2  N   UNL     1       7.789   9.238  17.766  0.00  0.00    +0.000 NA
ATOM      3  C   UNL     1       7.979   7.971  17.587  0.00  0.00    +0.000 C 
BRANCH   2   6
ATOM      4  O   UNL     1       8.120  11.964  17.370  0.00  0.00    +0.000 OA
ATOM      5  C   UNL     1       8.933  11.312  18.018  0.00  0.00    +0.000 C 
ATOM      6  N   UNL     1       8.851   9.944  18.258  0.00  0.00    +0.000 N 
ATOM      7  H   UNL     1       9.624   9.444  18.679  0.00  0.00    +0.000 HD
BRANCH   5   8
ATOM      8  C   UNL     1      10.130  12.005  18.581  0.00  0.00    +0.000 A 
ATOM      9  C   UNL     1      11.242  11.305  19.068  0.00  0.00    +0.000 A 
ATOM     10  C   UNL     1      12.330  12.003  19.604  0.00  0.00    +0.000 A 
ATOM     11  C   UNL     1      12.310  13.396  19.665  0.00  0.00    +0.000 A 
ATOM     12  C   UNL     1      11.201  14.097  19.197  0.00  0.00    +0.000 A 
ATOM     13  C   UNL     1      10.113  13.405  18.660  0.00  0.00    +0.000 A 
ENDBRANCH   5   8
ENDBRANCH   2   6
ENDBRANCH   1   3
BRANCH   1  14
ATOM     14  C   UNL     1       7.434   6.051  16.060  0.00  0.00    +0.000 C 
BRANCH  14  15
ATOM     15  C   UNL     1       7.220   4.652  16.633  0.00  0.00    +0.000 C 
BRANCH  15  16
ATOM     16  C   UNL     1       5.914   4.545  17.384  0.00  0.00    +0.000 C 
ATOM     17  N   UNL     1       5.816   3.743  18.391  0.00  0.00    +0.000 NA
BRANCH  17  18
ATOM     18  N   UNL     1       4.589   3.671  18.991  0.00  0.00    +0.000 N 
ATOM     19  C   UNL     1       4.358   2.766  20.022  0.00  0.00    +0.000 C 
ATOM     20  O   UNL     1       5.208   1.993  20.463  0.00  0.00    +0.000 OA
ATOM     21  H   UNL     1       3.819   4.253  18.675  0.00  0.00    +0.000 HD
BRANCH  19  22
ATOM     22  C   UNL     1       3.005   2.810  20.542  0.00  0.00    +0.000 A 
ATOM     23  C   UNL     1       1.802   3.071  19.911  0.00  0.00    +0.000 A 
ATOM     24  C   UNL     1       0.791   2.970  20.897  0.00  0.00    +0.000 A 
ATOM     25  C   UNL     1       1.434   2.658  22.071  0.00  0.00    +0.000 A 
ATOM     26  O   UNL     1       2.775   2.560  21.872  0.00  0.00    +0.000 OA
ENDBRANCH  19  22
ENDBRANCH  17  18
ENDBRANCH  15  16
ENDBRANCH  14  15
ENDBRANCH   1  14
TORSDOF 8
ENDMDL
MODEL 3
REMARK VINA RESULT:      -7.2      3.828      6.876
REMARK  Name = 
REMARK  8 active torsions:
REMARK  status: ('A' for Active; 'I' for Inactive)
REMARK    1  A    between atoms: C_2  and  C_19
REMARK    2  A    between atoms: N_3  and  N_4
REMARK    3  A    between atoms: C_5  and  C_6
REMARK    4  A    between atoms: C_6  and  C_7
REMARK    5  A    between atoms: C_7  and  C_8
REMARK    6  A    between atoms: C_8  and  C_9
REMARK    7  A    between atoms: N_10  and  N_11
REMARK    8  A    between atoms: C_12  and  C_14
REMARK                            x       y       z     vdW  Elec       q    Type
REMARK                         _______ _______ _______ _____ _____    ______ ____
ROOT
ATOM      1  C   UNL     1       6.106   6.630  16.766  0.00  0.00    +0.000 C 
ENDROOT
BRANCH   1   3
ATOM      2  N   UNL     1       3.808   7.004  17.461  0.00  0.00    +0.000 NA
ATOM      3  C   UNL     1       5.031   7.424  17.466  0.00  0.00    +0.000 C 
BRANCH   2   6
ATOM      4  O   UNL     1       2.734   6.438  19.956  0.00  0.00    +0.000 OA
ATOM      5  C   UNL     1       2.411   7.449  19.339  0.00  0.00    +0.000 C 
ATOM      6  N   UNL     1       2.892   7.806  18.083  0.00  0.00    +0.000 N 
ATOM      7  H   UNL     1       2.482   8.576  17.571  0.00  0.00    +0.000 HD
BRANCH   5   8
ATOM      8  C   UNL     1       1.405   8.373  19.942  0.00  0.00    +0.000 A 
ATOM      9  C   UNL     1       0.853   9.448  19.233  0.00  0.00    +0.000 A 
ATOM     10  C   UNL     1      -0.071  10.296  19.851  0.00  0.00    +0.000 A 
ATOM     11  C   UNL     1      -0.442  10.082  21.180  0.00  0.00    +0.000 A 
ATOM     12  C   UNL     1       0.115   9.025  21.895  0.00  0.00    +0.000 A 
ATOM     13  C   UNL     1       1.038   8.175  21.282  0.00  0.00    +0.000 A 
ENDBRANCH   5   8
ENDBRANCH   2   6
ENDBRANCH   1   3
BRANCH   1  14
ATOM     14  C   UNL     1       7.487   6.898  17.366  0.00  0.00    +0.000 C 
BRANCH  14  15
ATOM     15  C   UNL     1       7.829   5.856  18.429  0.00  0.00    +0.000 C 
BRANCH  15  16
ATOM     16  C   UNL     1       6.607   5.414  19.198  0.00  0.00    +0.000 C 
ATOM     17  N   UNL     1       6.065   4.270  18.941  0.00  0.00    +0.000 NA
BRANCH  17  18
ATOM     18  N   UNL     1       4.936   3.963  19.650  0.00  0.00    +0.000 N 
ATOM     19  C   UNL     1       3.893   3.265  19.049  0.00  0.00    +0.000 C 
ATOM     20  O   UNL     1       3.905   2.879  17.881  0.00  0.00    +0.000 OA
ATOM     21  H   UNL     1       4.827   4.263  20.613  0.00  0.00    +0.000 HD
BRANCH  19  22
ATOM     22  C   UNL     1       2.768   3.026  19.933  0.00  0.00    +0.000 A 
ATOM     23  C   UNL     1       2.727   2.728  21.283  0.00  0.00    +0.000 A 
ATOM     24  C   UNL     1       1.362   2.611  21.636  0.00  0.00    +0.000 A 
ATOM     25  C   UNL     1       0.649   2.840  20.484  0.00  0.00    +0.000 A 
ATOM     26  O   UNL     1       1.487   3.092  19.444  0.00  0.00    +0.000 OA
ENDBRANCH  19  22
ENDBRANCH  17  18
ENDBRANCH  15  16
ENDBRANCH  14  15
ENDBRANCH   1  14
TORSDOF 8
ENDMDL
MODEL 4
REMARK VINA RESULT:      -7.2      5.063      9.802
REMARK  Name = 
REMARK  8 active torsions:
REMARK  status: ('A' for Active; 'I' for Inactive)
REMARK    1  A    between atoms: C_2  and  C_19
REMARK    2  A    between atoms: N_3  and  N_4
REMARK    3  A    between atoms: C_5  and  C_6
REMARK    4  A    between atoms: C_6  and  C_7
REMARK    5  A    between atoms: C_7  and  C_8
REMARK    6  A    between atoms: C_8  and  C_9
REMARK    7  A    between atoms: N_10  and  N_11
REMARK    8  A    between atoms: C_12  and  C_14
REMARK                            x       y       z     vdW  Elec       q    Type
REMARK                         _______ _______ _______ _____ _____    ______ ____
ROOT
ATOM      1  C   UNL     1       2.796   6.188  18.695  0.00  0.00    +0.000 C 
ENDROOT
BRANCH   1   3
ATOM      2  N   UNL     1       1.652   7.705  20.209  0.00  0.00    +0.000 NA
ATOM      3  C   UNL     1       2.382   7.566  19.151  0.00  0.00    +0.000 C 
BRANCH   2   6
ATOM      4  O   UNL     1      -0.471   8.311  21.890  0.00  0.00    +0.000 OA
ATOM      5  C   UNL     1       0.214   9.196  21.386  0.00  0.00    +0.000 C 
ATOM      6  N   UNL     1       1.288   8.984  20.528  0.00  0.00    +0.000 N 
ATOM      7  H   UNL     1       1.721   9.757  20.037  0.00  0.00    +0.000 HD
BRANCH   5   8
ATOM      8  C   UNL     1      -0.125  10.623  21.671  0.00  0.00    +0.000 A 
ATOM      9  C   UNL     1       0.454  11.687  20.967  0.00  0.00    +0.000 A 
ATOM     10  C   UNL     1       0.117  13.005  21.288  0.00  0.00    +0.000 A 
ATOM     11  C   UNL     1      -0.788  13.269  22.317  0.00  0.00    +0.000 A 
ATOM     12  C   UNL     1      -1.355  12.216  23.031  0.00  0.00    +0.000 A 
ATOM     13  C   UNL     1      -1.022  10.898  22.714  0.00  0.00    +0.000 A 
ENDBRANCH   5   8
ENDBRANCH   2   6
ENDBRANCH   1   3
BRANCH   1  14
ATOM     14  C   UNL     1       2.746   5.176  19.840  0.00  0.00    +0.000 C 
BRANCH  14  15
ATOM     15  C   UNL     1       3.883   4.164  19.720  0.00  0.00    +0.000 C 
BRANCH  15  16
ATOM     16  C   UNL     1       4.334   3.991  18.289  0.00  0.00    +0.000 C 
ATOM     17  N   UNL     1       5.580   4.145  17.985  0.00  0.00    +0.000 NA
BRANCH  17  18
ATOM     18  N   UNL     1       5.901   4.015  16.662  0.00  0.00    +0.000 N 
ATOM     19  C   UNL     1       6.478   5.074  15.968  0.00  0.00    +0.000 C 
ATOM     20  O   UNL     1       6.741   6.165  16.471  0.00  0.00    +0.000 OA
ATOM     21  H   UNL     1       5.697   3.158  16.157  0.00  0.00    +0.000 HD
BRANCH  19  22
ATOM     22  C   UNL     1       6.748   4.776  14.574  0.00  0.00    +0.000 A 
ATOM     23  C   UNL     1       6.164   3.862  13.715  0.00  0.00    +0.000 A 
ATOM     24  C   UNL     1       6.808   4.006  12.463  0.00  0.00    +0.000 A 
ATOM     25  C   UNL     1       7.749   4.994  12.630  0.00  0.00    +0.000 A 
ATOM     26  O   UNL     1       7.724   5.469  13.903  0.00  0.00    +0.000 OA
ENDBRANCH  19  22
ENDBRANCH  17  18
ENDBRANCH  15  16
ENDBRANCH  14  15
ENDBRANCH   1  14
TORSDOF 8
ENDMDL
MODEL 5
REMARK VINA RESULT:      -7.1      5.895      9.737
REMARK  Name = 
REMARK  8 active torsions:
REMARK  status: ('A' for Active; 'I' for Inactive)
REMARK    1  A    between atoms: C_2  and  C_19
REMARK    2  A    between atoms: N_3  and  N_4
REMARK    3  A    between atoms: C_5  and  C_6
REMARK    4  A    between atoms: C_6  and  C_7
REMARK    5  A    between atoms: C_7  and  C_8
REMARK    6  A    between atoms: C_8  and  C_9
REMARK    7  A    between atoms: N_10  and  N_11
REMARK    8  A    between atoms: C_12  and  C_14
REMARK                            x       y       z     vdW  Elec       q    Type
REMARK                         _______ _______ _______ _____ _____    ______ ____
ROOT
ATOM      1  C   UNL     1       7.962   7.730  17.488  0.00  0.00    +0.000 C 
ENDROOT
BRANCH   1   3
ATOM      2  N   UNL     1       6.535   5.763  17.458  0.00  0.00    +0.000 NA
ATOM      3  C   UNL     1       6.626   7.042  17.627  0.00  0.00    +0.000 C 
BRANCH   2   6
ATOM      4  O   UNL     1       5.829   3.898  19.387  0.00  0.00    +0.000 OA
ATOM      5  C   UNL     1       5.012   4.303  18.566  0.00  0.00    +0.000 C 
ATOM      6  N   UNL     1       5.281   5.228  17.561  0.00  0.00    +0.000 N 
ATOM      7  H   UNL     1       4.604   5.414  16.832  0.00  0.00    +0.000 HD
BRANCH   5   8
ATOM      8  C   UNL     1       3.622   3.759  18.600  0.00  0.00    +0.000 A 
ATOM      9  C   UNL     1       3.274   2.636  19.362  0.00  0.00    +0.000 A 
ATOM     10  C   UNL     1       1.961   2.155  19.343  0.00  0.00    +0.000 A 
ATOM     11  C   UNL     1       0.993   2.784  18.559  0.00  0.00    +0.000 A 
ATOM     12  C   UNL     1       1.336   3.892  17.787  0.00  0.00    +0.000 A 
ATOM     13  C   UNL     1       2.646   4.377  17.804  0.00  0.00    +0.000 A 
ENDBRANCH   5   8
ENDBRANCH   2   6
ENDBRANCH   1   3
BRANCH   1  14
ATOM     14  C   UNL     1       7.863   9.223  17.802  0.00  0.00    +0.000 C 
BRANCH  14  15
ATOM     15  C   UNL     1       9.002   9.661  18.720  0.00  0.00    +0.000 C 
BRANCH  15  16
ATOM     16  C   UNL     1       9.562  11.005  18.320  0.00  0.00    +0.000 C 
ATOM     17  N   UNL     1       9.012  12.088  18.760  0.00  0.00    +0.000 NA
BRANCH  17  18
ATOM     18  N   UNL     1       9.551  13.264  18.317  0.00  0.00    +0.000 N 
ATOM     19  C   UNL     1       9.165  14.475  18.883  0.00  0.00    +0.000 C 
ATOM     20  O   UNL     1       8.347  14.579  19.795  0.00  0.00    +0.000 OA
ATOM     21  H   UNL     1      10.216  13.277  17.550  0.00  0.00    +0.000 HD
BRANCH  19  22
ATOM     22  C   UNL     1       9.823  15.627  18.295  0.00  0.00    +0.000 A 
ATOM     23  C   UNL     1       9.810  16.960  18.663  0.00  0.00    +0.000 A 
ATOM     24  C   UNL     1      10.639  17.647  17.745  0.00  0.00    +0.000 A 
ATOM     25  C   UNL     1      11.107  16.697  16.869  0.00  0.00    +0.000 A 
ATOM     26  O   UNL     1      10.620  15.469  17.190  0.00  0.00    +0.000 OA
ENDBRANCH  19  22
ENDBRANCH  17  18
ENDBRANCH  15  16
ENDBRANCH  14  15
ENDBRANCH   1  14
TORSDOF 8
ENDMDL
MODEL 6
REMARK VINA RESULT:      -7.1      4.975      7.754
REMARK  Name = 
REMARK  8 active torsions:
REMARK  status: ('A' for Active; 'I' for Inactive)
REMARK    1  A    between atoms: C_2  and  C_19
REMARK    2  A    between atoms: N_3  and  N_4
REMARK    3  A    between atoms: C_5  and  C_6
REMARK    4  A    between atoms: C_6  and  C_7
REMARK    5  A    between atoms: C_7  and  C_8
REMARK    6  A    between atoms: C_8  and  C_9
REMARK    7  A    between atoms: N_10  and  N_11
REMARK    8  A    between atoms: C_12  and  C_14
REMARK                            x       y       z     vdW  Elec       q    Type
REMARK                         _______ _______ _______ _____ _____    ______ ____
ROOT
ATOM      1  C   UNL     1       7.082   6.541  17.784  0.00  0.00    +0.000 C 
ENDROOT
BRANCH   1   3
ATOM      2  N   UNL     1       8.335   8.555  18.311  0.00  0.00    +0.000 NA
ATOM      3  C   UNL     1       7.643   7.898  17.438  0.00  0.00    +0.000 C 
BRANCH   2   6
ATOM      4  O   UNL     1       9.425  10.398  20.076  0.00  0.00    +0.000 OA
ATOM      5  C   UNL     1       9.311  10.653  18.880  0.00  0.00    +0.000 C 
ATOM      6  N   UNL     1       8.770   9.793  17.928  0.00  0.00    +0.000 N 
ATOM      7  H   UNL     1       8.577  10.116  16.989  0.00  0.00    +0.000 HD
BRANCH   5   8
ATOM      8  C   UNL     1       9.750  11.990  18.381  0.00  0.00    +0.000 A 
ATOM      9  C   UNL     1      10.901  12.158  17.600  0.00  0.00    +0.000 A 
ATOM     10  C   UNL     1      11.279  13.436  17.175  0.00  0.00    +0.000 A 
ATOM     11  C   UNL     1      10.519  14.549  17.533  0.00  0.00    +0.000 A 
ATOM     12  C   UNL     1       9.382  14.390  18.323  0.00  0.00    +0.000 A 
ATOM     13  C   UNL     1       9.000  13.117  18.749  0.00  0.00    +0.000 A 
ENDBRANCH   5   8
ENDBRANCH   2   6
ENDBRANCH   1   3
BRANCH   1  14
ATOM     14  C   UNL     1       6.882   5.678  16.538  0.00  0.00    +0.000 C 
BRANCH  14  15
ATOM     15  C   UNL     1       5.468   5.103  16.497  0.00  0.00    +0.000 C 
BRANCH  15  16
ATOM     16  C   UNL     1       4.597   5.672  17.592  0.00  0.00    +0.000 C 
ATOM     17  N   UNL     1       3.705   6.562  17.307  0.00  0.00    +0.000 NA
BRANCH  17  18
ATOM     18  N   UNL     1       2.988   7.059  18.359  0.00  0.00    +0.000 N 
ATOM     19  C   UNL     1       2.311   8.269  18.244  0.00  0.00    +0.000 C 
ATOM     20  O   UNL     1       2.299   8.957  17.224  0.00  0.00    +0.000 OA
ATOM     21  H   UNL     1       2.961   6.572  19.249  0.00  0.00    +0.000 HD
BRANCH  19  22
ATOM     22  C   UNL     1       1.607   8.659  19.451  0.00  0.00    +0.000 A 
ATOM     23  C   UNL     1       0.700   9.679  19.679  0.00  0.00    +0.000 A 
ATOM     24  C   UNL     1       0.318   9.591  21.039  0.00  0.00    +0.000 A 
ATOM     25  C   UNL     1       1.015   8.528  21.563  0.00  0.00    +0.000 A 
ATOM     26  O   UNL     1       1.800   7.955  20.613  0.00  0.00    +0.000 OA
ENDBRANCH  19  22
ENDBRANCH  17  18
ENDBRANCH  15  16
ENDBRANCH  14  15
ENDBRANCH   1  14
TORSDOF 8
ENDMDL
MODEL 7
REMARK VINA RESULT:      -7.1      3.371      6.861
REMARK  Name = 
REMARK  8 active torsions:
REMARK  status: ('A' for Active; 'I' for Inactive)
REMARK    1  A    between atoms: C_2  and  C_19
REMARK    2  A    between atoms: N_3  and  N_4
REMARK    3  A    between atoms: C_5  and  C_6
REMARK    4  A    between atoms: C_6  and  C_7
REMARK    5  A    between atoms: C_7  and  C_8
REMARK    6  A    between atoms: C_8  and  C_9
REMARK    7  A    between atoms: N_10  and  N_11
REMARK    8  A    between atoms: C_12  and  C_14
REMARK                            x       y       z     vdW  Elec       q    Type
REMARK                         _______ _______ _______ _____ _____    ______ ____
ROOT
ATOM      1  C   UNL     1       6.250   6.390  16.830  0.00  0.00    +0.000 C 
ENDROOT
BRANCH   1   3
ATOM      2  N   UNL     1       7.947   7.161  18.389  0.00  0.00    +0.000 NA
ATOM      3  C   UNL     1       7.201   7.431  17.368  0.00  0.00    +0.000 C 
BRANCH   2   6
ATOM      4  O   UNL     1       7.644   9.804  17.599  0.00  0.00    +0.000 OA
ATOM      5  C   UNL     1       8.521   9.473  18.393  0.00  0.00    +0.000 C 
ATOM      6  N   UNL     1       8.749   8.174  18.835  0.00  0.00    +0.000 N 
ATOM      7  H   UNL     1       9.573   7.949  19.378  0.00  0.00    +0.000 HD
BRANCH   5   8
ATOM      8  C   UNL     1       9.449  10.518  18.920  0.00  0.00    +0.000 A 
ATOM      9  C   UNL     1       9.554  10.809  20.286  0.00  0.00    +0.000 A 
ATOM     10  C   UNL     1      10.424  11.811  20.725  0.00  0.00    +0.000 A 
ATOM     11  C   UNL     1      11.186  12.532  19.806  0.00  0.00    +0.000 A 
ATOM     12  C   UNL     1      11.075  12.259  18.444  0.00  0.00    +0.000 A 
ATOM     13  C   UNL     1      10.208  11.259  18.002  0.00  0.00    +0.000 A 
ENDBRANCH   5   8
ENDBRANCH   2   6
ENDBRANCH   1   3
BRANCH   1  14
ATOM     14  C   UNL     1       6.854   5.631  15.649  0.00  0.00    +0.000 C 
BRANCH  14  15
ATOM     15  C   UNL     1       6.058   4.361  15.356  0.00  0.00    +0.000 C 
BRANCH  15  16
ATOM     16  C   UNL     1       5.337   3.853  16.581  0.00  0.00    +0.000 C 
ATOM     17  N   UNL     1       4.047   3.786  16.587  0.00  0.00    +0.000 NA
BRANCH  17  18
ATOM     18  N   UNL     1       3.468   3.358  17.749  0.00  0.00    +0.000 N 
ATOM     19  C   UNL     1       2.997   4.275  18.684  0.00  0.00    +0.000 C 
ATOM     20  O   UNL     1       3.056   5.495  18.541  0.00  0.00    +0.000 OA
ATOM     21  H   UNL     1       3.399   2.368  17.963  0.00  0.00    +0.000 HD
BRANCH  19  22
ATOM     22  C   UNL     1       2.420   3.658  19.863  0.00  0.00    +0.000 A 
ATOM     23  C   UNL     1       1.111   3.609  20.308  0.00  0.00    +0.000 A 
ATOM     24  C   UNL     1       1.114   2.864  21.511  0.00  0.00    +0.000 A 
ATOM     25  C   UNL     1       2.422   2.505  21.733  0.00  0.00    +0.000 A 
ATOM     26  O   UNL     1       3.224   2.980  20.744  0.00  0.00    +0.000 OA
ENDBRANCH  19  22
ENDBRANCH  17  18
ENDBRANCH  15  16
ENDBRANCH  14  15
ENDBRANCH   1  14
TORSDOF 8
ENDMDL
MODEL 8
REMARK VINA RESULT:      -7.1      4.876      9.622
REMARK  Name = 
REMARK  8 active torsions:
REMARK  status: ('A' for Active; 'I' for Inactive)
REMARK    1  A    between atoms: C_2  and  C_19
REMARK    2  A    between atoms: N_3  and  N_4
REMARK    3  A    between atoms: C_5  and  C_6
REMARK    4  A    between atoms: C_6  and  C_7
REMARK    5  A    between atoms: C_7  and  C_8
REMARK    6  A    between atoms: C_8  and  C_9
REMARK    7  A    between atoms: N_10  and  N_11
REMARK    8  A    between atoms: C_12  and  C_14
REMARK                            x       y       z     vdW  Elec       q    Type
REMARK                         _______ _______ _______ _____ _____    ______ ____
ROOT
ATOM      1  C   UNL     1       2.368   5.011  20.816  0.00  0.00    +0.000 C 
ENDROOT
BRANCH   1   3
ATOM      2  N   UNL     1       1.871   7.389  20.776  0.00  0.00    +0.000 NA
ATOM      3  C   UNL     1       1.414   6.180  20.792  0.00  0.00    +0.000 C 
BRANCH   2   6
ATOM      4  O   UNL     1       1.644   9.219  22.850  0.00  0.00    +0.000 OA
ATOM      5  C   UNL     1       0.899   9.267  21.875  0.00  0.00    +0.000 C 
ATOM      6  N   UNL     1       0.937   8.388  20.797  0.00  0.00    +0.000 N 
ATOM      7  H   UNL     1       0.207   8.396  20.096  0.00  0.00    +0.000 HD
BRANCH   5   8
ATOM      8  C   UNL     1      -0.158  10.320  21.825  0.00  0.00    +0.000 A 
ATOM      9  C   UNL     1      -0.514  10.971  20.636  0.00  0.00    +0.000 A 
ATOM     10  C   UNL     1      -1.497  11.965  20.648  0.00  0.00    +0.000 A 
ATOM     11  C   UNL     1      -2.123  12.321  21.843  0.00  0.00    +0.000 A 
ATOM     12  C   UNL     1      -1.763  11.689  23.031  0.00  0.00    +0.000 A 
ATOM     13  C   UNL     1      -0.782  10.695  23.024  0.00  0.00    +0.000 A 
ENDBRANCH   5   8
ENDBRANCH   2   6
ENDBRANCH   1   3
BRANCH   1  14
ATOM     14  C   UNL     1       1.668   3.719  21.235  0.00  0.00    +0.000 C 
BRANCH  14  15
ATOM     15  C   UNL     1       2.411   2.499  20.694  0.00  0.00    +0.000 C 
BRANCH  15  16
ATOM     16  C   UNL     1       3.418   2.877  19.635  0.00  0.00    +0.000 C 
ATOM     17  N   UNL     1       3.134   2.705  18.387  0.00  0.00    +0.000 NA
BRANCH  17  18
ATOM     18  N   UNL     1       4.115   3.031  17.493  0.00  0.00    +0.000 N 
ATOM     19  C   UNL     1       4.218   4.327  16.997  0.00  0.00    +0.000 C 
ATOM     20  O   UNL     1       3.467   5.247  17.317  0.00  0.00    +0.000 OA
ATOM     21  H   UNL     1       4.765   2.329  17.152  0.00  0.00    +0.000 HD
BRANCH  19  22
ATOM     22  C   UNL     1       5.305   4.504  16.053  0.00  0.00    +0.000 A 
ATOM     23  C   UNL     1       5.351   4.321  14.682  0.00  0.00    +0.000 A 
ATOM     24  C   UNL     1       6.662   4.653  14.268  0.00  0.00    +0.000 A 
ATOM     25  C   UNL     1       7.341   5.016  15.406  0.00  0.00    +0.000 A 
ATOM     26  O   UNL     1       6.532   4.929  16.495  0.00  0.00    +0.000 OA
ENDBRANCH  19  22
ENDBRANCH  17  18
ENDBRANCH  15  16
ENDBRANCH  14  15
ENDBRANCH   1  14
TORSDOF 8
ENDMDL
MODEL 9
REMARK VINA RESULT:      -7.1      3.299      5.045
REMARK  Name = 
REMARK  8 active torsions:
REMARK  status: ('A' for Active; 'I' for Inactive)
REMARK    1  A    between atoms: C_2  and  C_19
REMARK    2  A    between atoms: N_3  and  N_4
REMARK    3  A    between atoms: C_5  and  C_6
REMARK    4  A    between atoms: C_6  and  C_7
REMARK    5  A    between atoms: C_7  and  C_8
REMARK    6  A    between atoms: C_8  and  C_9
REMARK    7  A    between atoms: N_10  and  N_11
REMARK    8  A    between atoms: C_12  and  C_14
REMARK                            x       y       z     vdW  Elec       q    Type
REMARK                         _______ _______ _______ _____ _____    ______ ____
ROOT
ATOM      1  C   UNL     1       1.924   2.637  18.724  0.00  0.00    +0.000 C 
ENDROOT
BRANCH   1   3
ATOM      2  N   UNL     1       3.891   3.280  17.450  0.00  0.00    +0.000 NA
ATOM      3  C   UNL     1       2.748   2.675  17.460  0.00  0.00    +0.000 C 
BRANCH   2   6
ATOM      4  O   UNL     1       5.282   5.493  16.519  0.00  0.00    +0.000 OA
ATOM      5  C   UNL     1       5.231   4.454  15.867  0.00  0.00    +0.000 C 
ATOM      6  N   UNL     1       4.551   3.302  16.253  0.00  0.00    +0.000 N 
ATOM      7  H   UNL     1       4.432   2.530  15.609  0.00  0.00    +0.000 HD
BRANCH   5   8
ATOM      8  C   UNL     1       5.915   4.397  14.541  0.00  0.00    +0.000 A 
ATOM      9  C   UNL     1       5.474   3.566  13.503  0.00  0.00    +0.000 A 
ATOM     10  C   UNL     1       6.163   3.536  12.287  0.00  0.00    +0.000 A 
ATOM     11  C   UNL     1       7.299   4.326  12.104  0.00  0.00    +0.000 A 
ATOM     12  C   UNL     1       7.752   5.143  13.137  0.00  0.00    +0.000 A 
ATOM     13  C   UNL     1       7.066   5.177  14.352  0.00  0.00    +0.000 A 
ENDBRANCH   5   8
ENDBRANCH   2   6
ENDBRANCH   1   3
BRANCH   1  14
ATOM     14  C   UNL     1       2.775   2.272  19.940  0.00  0.00    +0.000 C 
BRANCH  14  15
ATOM     15  C   UNL     1       2.098   2.725  21.232  0.00  0.00    +0.000 C 
BRANCH  15  16
ATOM     16  C   UNL     1       1.575   4.138  21.128  0.00  0.00    +0.000 C 
ATOM     17  N   UNL     1       2.373   5.095  20.788  0.00  0.00    +0.000 NA
BRANCH  17  18
ATOM     18  N   UNL     1       1.833   6.351  20.758  0.00  0.00    +0.000 N 
ATOM     19  C   UNL     1       2.187   7.249  19.756  0.00  0.00    +0.000 C 
ATOM     20  O   UNL     1       2.977   6.992  18.849  0.00  0.00    +0.000 OA
ATOM     21  H   UNL     1       1.191   6.660  21.481  0.00  0.00    +0.000 HD
BRANCH  19  22
ATOM     22  C   UNL     1       1.534   8.539  19.873  0.00  0.00    +0.000 A 
ATOM     23  C   UNL     1       0.997   9.183  20.974  0.00  0.00    +0.000 A 
ATOM     24  C   UNL     1       0.498  10.426  20.518  0.00  0.00    +0.000 A 
ATOM     25  C   UNL     1       0.753  10.468  19.168  0.00  0.00    +0.000 A 
ATOM     26  O   UNL     1       1.379   9.331  18.764  0.00  0.00    +0.000 OA
ENDBRANCH  19  22
ENDBRANCH  17  18
ENDBRANCH  15  16
ENDBRANCH  14  15
ENDBRANCH   1  14
TORSDOF 8
ENDMDL
