MODEL 1
REMARK VINA RESULT:      -8.1      0.000      0.000
REMARK  Name = 
REMARK  4 active torsions:
REMARK  status: ('A' for Active; 'I' for Inactive)
REMARK    1  A    between atoms: N_8  and  C_9
REMARK    2  A    between atoms: N_19  and  C_20
REMARK    3  A    between atoms: C_20  and  C_21
REMARK    4  A    between atoms: C_21  and  N_22
REMARK                            x       y       z     vdW  Elec       q    Type
REMARK                         _______ _______ _______ _____ _____    ______ ____
ROOT
ATOM      1  O   UNL     1       4.727   6.846  16.280  0.00  0.00    +0.000 OA
ATOM      2  C   UNL     1       4.419   6.408  17.384  0.00  0.00    +0.000 A 
ATOM      3  C   UNL     1       3.346   7.055  18.159  0.00  0.00    +0.000 A 
ATOM      4  C   UNL     1       2.812   8.286  17.757  0.00  0.00    +0.000 A 
ATOM      5  C   UNL     1       1.901   8.951  18.581  0.00  0.00    +0.000 A 
ATOM      6  N   UNL     1       1.452  10.221  18.204  0.00  0.00    +0.000 NA
ATOM      7  N   UNL     1       0.773  10.900  19.003  0.00  0.00    +0.000 NA
ATOM      8  N   UNL     1       0.385  10.407  20.217  0.00  0.00    +0.000 N 
ATOM      9  C   UNL     1       0.619   9.107  20.628  0.00  0.00    +0.000 A 
ATOM     10  O   UNL     1       0.171   8.592  21.650  0.00  0.00    +0.000 OA
ATOM     11  C   UNL     1       1.505   8.336  19.761  0.00  0.00    +0.000 A 
ATOM     12  C   UNL     1       1.997   7.080  20.140  0.00  0.00    +0.000 A 
ATOM     13  C   UNL     1       2.951   6.445  19.349  0.00  0.00    +0.000 A 
ATOM     14  N   UNL     1       3.534   5.257  19.807  0.00  0.00    +0.000 NA
ATOM     15  C   UNL     1       4.539   4.786  19.147  0.00  0.00    +0.000 A 
ATOM     16  N   UNL     1       5.052   5.336  17.996  0.00  0.00    +0.000 N 
ENDROOT
BRANCH   8  17
ATOM     17  C   UNL     1      -0.440  11.297  20.988  0.00  0.00    +0.000 C 
ATOM     18  C   UNL     1      -0.514  12.778  20.711  0.00  0.00    +0.000 C 
ATOM     19  C   UNL     1      -1.693  11.905  20.406  0.00  0.00    +0.000 C 
ENDBRANCH   8  17
BRANCH  16  20
ATOM     20  C   UNL     1       6.208   4.728  17.333  0.00  0.00    +0.000 C 
BRANCH  20  21
ATOM     21  C   UNL     1       5.819   3.882  16.121  0.00  0.00    +0.000 C 
BRANCH  21  22
ATOM     22  N   UNL     1       6.503   4.330  14.933  0.00  0.00    +0.000 N 
ATOM     23  N   UNL     1       6.210   3.848  13.709  0.00  0.00    +0.000 NA
ATOM     24  C   UNL     1       7.095   4.541  12.982  0.00  0.00    +0.000 A 
ATOM     25  N   UNL     1       7.852   5.408  13.713  0.00  0.00    +0.000 NA
ATOM     26  N   UNL     1       7.458   5.272  14.972  0.00  0.00    +0.000 NA
ENDBRANCH  21  22
ENDBRANCH  20  21
ENDBRANCH  16  20
TORSDOF 4
ENDMDL
MODEL 2
REMARK VINA RESULT:      -8.1      0.802      1.048
REMARK  Name = 
REMARK  4 active torsions:
REMARK  status: ('A' for Active; 'I' for Inactive)
REMARK    1  A    between atoms: N_8  and  C_9
REMARK    2  A    between atoms: N_19  and  C_20
REMARK    3  A    between atoms: C_20  and  C_21
REMARK    4  A    between atoms: C_21  and  N_22
REMARK                            x       y       z     vdW  Elec       q    Type
REMARK                         _______ _______ _______ _____ _____    ______ ____
ROOT
ATOM      1  O   UNL     1       5.027   6.827  15.740  0.00  0.00    +0.000 OA
ATOM      2  C   UNL     1       4.763   6.287  16.809  0.00  0.00    +0.000 A 
ATOM      3  C   UNL     1       3.724   6.857  17.685  0.00  0.00    +0.000 A 
ATOM      4  C   UNL     1       3.178   8.120  17.422  0.00  0.00    +0.000 A 
ATOM      5  C   UNL     1       2.303   8.704  18.343  0.00  0.00    +0.000 A 
ATOM      6  N   UNL     1       1.843  10.003  18.105  0.00  0.00    +0.000 NA
ATOM      7  N   UNL     1       1.199  10.603  18.991  0.00  0.00    +0.000 NA
ATOM      8  N   UNL     1       0.859   9.998  20.168  0.00  0.00    +0.000 N 
ATOM      9  C   UNL     1       1.106   8.665  20.445  0.00  0.00    +0.000 A 
ATOM     10  O   UNL     1       0.698   8.056  21.432  0.00  0.00    +0.000 OA
ATOM     11  C   UNL     1       1.954   7.980  19.474  0.00  0.00    +0.000 A 
ATOM     12  C   UNL     1       2.457   6.694  19.713  0.00  0.00    +0.000 A 
ATOM     13  C   UNL     1       3.376   6.137  18.828  0.00  0.00    +0.000 A 
ATOM     14  N   UNL     1       3.974   4.912  19.147  0.00  0.00    +0.000 NA
ATOM     15  C   UNL     1       4.950   4.507  18.405  0.00  0.00    +0.000 A 
ATOM     16  N   UNL     1       5.417   5.163  17.292  0.00  0.00    +0.000 N 
ENDROOT
BRANCH   8  17
ATOM     17  C   UNL     1       0.069  10.810  21.053  0.00  0.00    +0.000 C 
ATOM     18  C   UNL     1       0.029  12.315  20.952  0.00  0.00    +0.000 C 
ATOM     19  C   UNL     1      -1.177  11.511  20.569  0.00  0.00    +0.000 C 
ENDBRANCH   8  17
BRANCH  16  20
ATOM     20  C   UNL     1       6.543   4.621  16.527  0.00  0.00    +0.000 C 
BRANCH  20  21
ATOM     21  C   UNL     1       6.099   3.755  15.349  0.00  0.00    +0.000 C 
BRANCH  21  22
ATOM     22  N   UNL     1       6.696   4.208  14.116  0.00  0.00    +0.000 N 
ATOM     23  N   UNL     1       7.577   5.226  14.075  0.00  0.00    +0.000 NA
ATOM     24  C   UNL     1       7.809   5.263  12.757  0.00  0.00    +0.000 A 
ATOM     25  N   UNL     1       7.138   4.309  12.051  0.00  0.00    +0.000 NA
ATOM     26  N   UNL     1       6.426   3.626  12.937  0.00  0.00    +0.000 NA
ENDBRANCH  21  22
ENDBRANCH  20  21
ENDBRANCH  16  20
TORSDOF 4
ENDMDL
MODEL 3
REMARK VINA RESULT:      -8.1      0.987      1.086
REMARK  Name = 
REMARK  4 active torsions:
REMARK  status: ('A' for Active; 'I' for Inactive)
REMARK    1  A    between atoms: N_8  and  C_9
REMARK    2  A    between atoms: N_19  and  C_20
REMARK    3  A    between atoms: C_20  and  C_21
REMARK    4  A    between atoms: C_21  and  N_22
REMARK                            x       y       z     vdW  Elec       q    Type
REMARK                         _______ _______ _______ _____ _____    ______ ____
ROOT
ATOM      1  O   UNL     1       3.974   6.283  16.830  0.00  0.00    +0.000 OA
ATOM      2  C   UNL     1       3.613   6.019  17.972  0.00  0.00    +0.000 A 
ATOM      3  C   UNL     1       2.714   6.938  18.692  0.00  0.00    +0.000 A 
ATOM      4  C   UNL     1       2.431   8.211  18.181  0.00  0.00    +0.000 A 
ATOM      5  C   UNL     1       1.696   9.120  18.946  0.00  0.00    +0.000 A 
ATOM      6  N   UNL     1       1.504  10.415  18.456  0.00  0.00    +0.000 NA
ATOM      7  N   UNL     1       0.997  11.288  19.193  0.00  0.00    +0.000 NA
ATOM      8  N   UNL     1       0.550  10.996  20.450  0.00  0.00    +0.000 N 
ATOM      9  C   UNL     1       0.526   9.718  20.979  0.00  0.00    +0.000 A 
ATOM     10  O   UNL     1       0.010   9.399  22.048  0.00  0.00    +0.000 OA
ATOM     11  C   UNL     1       1.214   8.707  20.181  0.00  0.00    +0.000 A 
ATOM     12  C   UNL     1       1.451   7.416  20.672  0.00  0.00    +0.000 A 
ATOM     13  C   UNL     1       2.235   6.531  19.937  0.00  0.00    +0.000 A 
ATOM     14  N   UNL     1       2.577   5.295  20.498  0.00  0.00    +0.000 NA
ATOM     15  C   UNL     1       3.448   4.572  19.878  0.00  0.00    +0.000 A 
ATOM     16  N   UNL     1       4.031   4.899  18.677  0.00  0.00    +0.000 N 
ENDROOT
BRANCH   8  17
ATOM     17  C   UNL     1      -0.057  12.100  21.142  0.00  0.00    +0.000 C 
ATOM     18  C   UNL     1      -0.538  13.339  20.426  0.00  0.00    +0.000 C 
ATOM     19  C   UNL     1      -1.534  12.387  21.016  0.00  0.00    +0.000 C 
ENDBRANCH   8  17
BRANCH  16  20
ATOM     20  C   UNL     1       5.022   4.011  18.065  0.00  0.00    +0.000 C 
BRANCH  20  21
ATOM     21  C   UNL     1       6.369   4.695  17.834  0.00  0.00    +0.000 C 
BRANCH  21  22
ATOM     22  N   UNL     1       6.683   4.765  16.427  0.00  0.00    +0.000 N 
ATOM     23  N   UNL     1       6.139   3.923  15.526  0.00  0.00    +0.000 NA
ATOM     24  C   UNL     1       6.739   4.372  14.417  0.00  0.00    +0.000 A 
ATOM     25  N   UNL     1       7.566   5.435  14.627  0.00  0.00    +0.000 NA
ATOM     26  N   UNL     1       7.518   5.689  15.928  0.00  0.00    +0.000 NA
ENDBRANCH  21  22
ENDBRANCH  20  21
ENDBRANCH  16  20
TORSDOF 4
ENDMDL
MODEL 4
REMARK VINA RESULT:      -8.0      1.595      2.145
REMARK  Name = 
REMARK  4 active torsions:
REMARK  status: ('A' for Active; 'I' for Inactive)
REMARK    1  A    between atoms: N_8  and  C_9
REMARK    2  A    between atoms: N_19  and  C_20
REMARK    3  A    between atoms: C_20  and  C_21
REMARK    4  A    between atoms: C_21  and  N_22
REMARK                            x       y       z     vdW  Elec       q    Type
REMARK                         _______ _______ _______ _____ _____    ______ ____
ROOT
ATOM      1  O   UNL     1       4.390   6.598  16.177  0.00  0.00    +0.000 OA
ATOM      2  C   UNL     1       4.156   6.174  17.304  0.00  0.00    +0.000 A 
ATOM      3  C   UNL     1       3.200   6.883  18.173  0.00  0.00    +0.000 A 
ATOM      4  C   UNL     1       2.713   8.148  17.822  0.00  0.00    +0.000 A 
ATOM      5  C   UNL     1       1.924   8.865  18.726  0.00  0.00    +0.000 A 
ATOM      6  N   UNL     1       1.526  10.163  18.392  0.00  0.00    +0.000 NA
ATOM      7  N   UNL     1       0.966  10.879  19.250  0.00  0.00    +0.000 NA
ATOM      8  N   UNL     1       0.658  10.404  20.493  0.00  0.00    +0.000 N 
ATOM      9  C   UNL     1       0.844   9.089  20.880  0.00  0.00    +0.000 A 
ATOM     10  O   UNL     1       0.457   8.597  21.938  0.00  0.00    +0.000 OA
ATOM     11  C   UNL     1       1.597   8.269  19.936  0.00  0.00    +0.000 A 
ATOM     12  C   UNL     1       2.039   6.981  20.268  0.00  0.00    +0.000 A 
ATOM     13  C   UNL     1       2.875   6.291  19.394  0.00  0.00    +0.000 A 
ATOM     14  N   UNL     1       3.420   5.065  19.796  0.00  0.00    +0.000 NA
ATOM     15  C   UNL     1       4.329   4.536  19.047  0.00  0.00    +0.000 A 
ATOM     16  N   UNL     1       4.770   5.059  17.856  0.00  0.00    +0.000 N 
ENDROOT
BRANCH   8  17
ATOM     17  C   UNL     1      -0.035  11.339  21.336  0.00  0.00    +0.000 C 
ATOM     18  C   UNL     1       0.056  12.832  21.137  0.00  0.00    +0.000 C 
ATOM     19  C   UNL     1      -1.225  12.117  20.830  0.00  0.00    +0.000 C 
ENDBRANCH   8  17
BRANCH  16  20
ATOM     20  C   UNL     1       5.820   4.383  17.090  0.00  0.00    +0.000 C 
BRANCH  20  21
ATOM     21  C   UNL     1       7.214   4.592  17.683  0.00  0.00    +0.000 C 
BRANCH  21  22
ATOM     22  N   UNL     1       7.565   5.991  17.708  0.00  0.00    +0.000 N 
ATOM     23  N   UNL     1       7.955   6.615  18.837  0.00  0.00    +0.000 NA
ATOM     24  C   UNL     1       8.141   7.849  18.353  0.00  0.00    +0.000 A 
ATOM     25  N   UNL     1       7.909   7.958  17.013  0.00  0.00    +0.000 NA
ATOM     26  N   UNL     1       7.545   6.751  16.602  0.00  0.00    +0.000 NA
ENDBRANCH  21  22
ENDBRANCH  20  21
ENDBRANCH  16  20
TORSDOF 4
ENDMDL
MODEL 5
REMARK VINA RESULT:      -7.9      2.083      3.236
REMARK  Name = 
REMARK  4 active torsions:
REMARK  status: ('A' for Active; 'I' for Inactive)
REMARK    1  A    between atoms: N_8  and  C_9
REMARK    2  A    between atoms: N_19  and  C_20
REMARK    3  A    between atoms: C_20  and  C_21
REMARK    4  A    between atoms: C_21  and  N_22
REMARK                            x       y       z     vdW  Elec       q    Type
REMARK                         _______ _______ _______ _____ _____    ______ ____
ROOT
ATOM      1  O   UNL     1       2.338   8.869  17.212  0.00  0.00    +0.000 OA
ATOM      2  C   UNL     1       2.193   8.345  18.312  0.00  0.00    +0.000 A 
ATOM      3  C   UNL     1       1.373   9.009  19.340  0.00  0.00    +0.000 A 
ATOM      4  C   UNL     1       0.929  10.326  19.165  0.00  0.00    +0.000 A 
ATOM      5  C   UNL     1       0.279  10.986  20.211  0.00  0.00    +0.000 A 
ATOM      6  N   UNL     1      -0.072  12.329  20.046  0.00  0.00    +0.000 NA
ATOM      7  N   UNL     1      -0.500  12.981  21.022  0.00  0.00    +0.000 NA
ATOM      8  N   UNL     1      -0.710  12.399  22.241  0.00  0.00    +0.000 N 
ATOM      9  C   UNL     1      -0.565  11.044  22.478  0.00  0.00    +0.000 A 
ATOM     10  O   UNL     1      -0.873  10.467  23.519  0.00  0.00    +0.000 OA
ATOM     11  C   UNL     1       0.040  10.287  21.387  0.00  0.00    +0.000 A 
ATOM     12  C   UNL     1       0.435   8.952  21.546  0.00  0.00    +0.000 A 
ATOM     13  C   UNL     1       1.137   8.314  20.526  0.00  0.00    +0.000 A 
ATOM     14  N   UNL     1       1.645   7.028  20.750  0.00  0.00    +0.000 NA
ATOM     15  C   UNL     1       2.441   6.533  19.863  0.00  0.00    +0.000 A 
ATOM     16  N   UNL     1       2.792   7.151  18.687  0.00  0.00    +0.000 N 
ENDROOT
BRANCH   8  17
ATOM     17  C   UNL     1      -1.258  13.277  23.238  0.00  0.00    +0.000 C 
ATOM     18  C   UNL     1      -1.924  14.585  22.888  0.00  0.00    +0.000 C 
ATOM     19  C   UNL     1      -2.749  13.444  23.400  0.00  0.00    +0.000 C 
ENDBRANCH   8  17
BRANCH  16  20
ATOM     20  C   UNL     1       3.718   6.505  17.754  0.00  0.00    +0.000 C 
BRANCH  20  21
ATOM     21  C   UNL     1       4.132   5.104  18.204  0.00  0.00    +0.000 C 
BRANCH  21  22
ATOM     22  N   UNL     1       5.541   4.883  17.985  0.00  0.00    +0.000 N 
ATOM     23  N   UNL     1       6.079   4.837  16.750  0.00  0.00    +0.000 NA
ATOM     24  C   UNL     1       7.356   4.603  17.076  0.00  0.00    +0.000 A 
ATOM     25  N   UNL     1       7.583   4.543  18.419  0.00  0.00    +0.000 NA
ATOM     26  N   UNL     1       6.406   4.734  19.001  0.00  0.00    +0.000 NA
ENDBRANCH  21  22
ENDBRANCH  20  21
ENDBRANCH  16  20
TORSDOF 4
ENDMDL
MODEL 6
REMARK VINA RESULT:      -7.9      2.544      3.674
REMARK  Name = 
REMARK  4 active torsions:
REMARK  status: ('A' for Active; 'I' for Inactive)
REMARK    1  A    between atoms: N_8  and  C_9
REMARK    2  A    between atoms: N_19  and  C_20
REMARK    3  A    between atoms: C_20  and  C_21
REMARK    4  A    between atoms: C_21  and  N_22
REMARK                            x       y       z     vdW  Elec       q    Type
REMARK                         _______ _______ _______ _____ _____    ______ ____
ROOT
ATOM      1  O   UNL     1       2.587   5.532  20.577  0.00  0.00    +0.000 OA
ATOM      2  C   UNL     1       2.485   6.383  19.699  0.00  0.00    +0.000 A 
ATOM      3  C   UNL     1       1.876   7.689  20.007  0.00  0.00    +0.000 A 
ATOM      4  C   UNL     1       1.219   7.905  21.225  0.00  0.00    +0.000 A 
ATOM      5  C   UNL     1       0.524   9.098  21.438  0.00  0.00    +0.000 A 
ATOM      6  N   UNL     1      -0.201   9.254  22.623  0.00  0.00    +0.000 NA
ATOM      7  N   UNL     1      -0.961  10.237  22.759  0.00  0.00    +0.000 NA
ATOM      8  N   UNL     1      -1.050  11.215  21.809  0.00  0.00    +0.000 N 
ATOM      9  C   UNL     1      -0.255  11.260  20.678  0.00  0.00    +0.000 A 
ATOM     10  O   UNL     1      -0.212  12.189  19.874  0.00  0.00    +0.000 OA
ATOM     11  C   UNL     1       0.555  10.068  20.445  0.00  0.00    +0.000 A 
ATOM     12  C   UNL     1       1.256   9.876  19.247  0.00  0.00    +0.000 A 
ATOM     13  C   UNL     1       1.898   8.663  19.009  0.00  0.00    +0.000 A 
ATOM     14  N   UNL     1       2.479   8.433  17.756  0.00  0.00    +0.000 NA
ATOM     15  C   UNL     1       2.905   7.242  17.500  0.00  0.00    +0.000 A 
ATOM     16  N   UNL     1       2.880   6.190  18.383  0.00  0.00    +0.000 N 
ENDROOT
BRANCH   8  17
ATOM     17  C   UNL     1      -1.927  12.302  22.148  0.00  0.00    +0.000 C 
ATOM     18  C   UNL     1      -2.727  12.328  23.427  0.00  0.00    +0.000 C 
ATOM     19  C   UNL     1      -1.578  13.275  23.249  0.00  0.00    +0.000 C 
ENDBRANCH   8  17
BRANCH  16  20
ATOM     20  C   UNL     1       3.378   4.871  17.984  0.00  0.00    +0.000 C 
BRANCH  20  21
ATOM     21  C   UNL     1       4.685   4.945  17.196  0.00  0.00    +0.000 C 
BRANCH  21  22
ATOM     22  N   UNL     1       5.797   5.260  18.060  0.00  0.00    +0.000 N 
ATOM     23  N   UNL     1       6.723   6.182  17.733  0.00  0.00    +0.000 NA
ATOM     24  C   UNL     1       7.513   6.092  18.809  0.00  0.00    +0.000 A 
ATOM     25  N   UNL     1       7.077   5.197  19.742  0.00  0.00    +0.000 NA
ATOM     26  N   UNL     1       5.963   4.669  19.253  0.00  0.00    +0.000 NA
ENDBRANCH  21  22
ENDBRANCH  20  21
ENDBRANCH  16  20
TORSDOF 4
ENDMDL
MODEL 7
REMARK VINA RESULT:      -7.7      2.570      4.281
REMARK  Name = 
REMARK  4 active torsions:
REMARK  status: ('A' for Active; 'I' for Inactive)
REMARK    1  A    between atoms: N_8  and  C_9
REMARK    2  A    between atoms: N_19  and  C_20
REMARK    3  A    between atoms: C_20  and  C_21
REMARK    4  A    between atoms: C_21  and  N_22
REMARK                            x       y       z     vdW  Elec       q    Type
REMARK                         _______ _______ _______ _____ _____    ______ ____
ROOT
ATOM      1  O   UNL     1       2.262   6.564  20.706  0.00  0.00    +0.000 OA
ATOM      2  C   UNL     1       2.053   7.435  19.868  0.00  0.00    +0.000 A 
ATOM      3  C   UNL     1       1.345   8.669  20.248  0.00  0.00    +0.000 A 
ATOM      4  C   UNL     1       0.718   8.782  21.496  0.00  0.00    +0.000 A 
ATOM      5  C   UNL     1      -0.070   9.900  21.780  0.00  0.00    +0.000 A 
ATOM      6  N   UNL     1      -0.760   9.948  22.995  0.00  0.00    +0.000 NA
ATOM      7  N   UNL     1      -1.596  10.854  23.197  0.00  0.00    +0.000 NA
ATOM      8  N   UNL     1      -1.806  11.854  22.290  0.00  0.00    +0.000 N 
ATOM      9  C   UNL     1      -1.062  12.011  21.135  0.00  0.00    +0.000 A 
ATOM     10  O   UNL     1      -1.131  12.969  20.368  0.00  0.00    +0.000 OA
ATOM     11  C   UNL     1      -0.161  10.905  20.827  0.00  0.00    +0.000 A 
ATOM     12  C   UNL     1       0.508  10.819  19.598  0.00  0.00    +0.000 A 
ATOM     13  C   UNL     1       1.243   9.677  19.290  0.00  0.00    +0.000 A 
ATOM     14  N   UNL     1       1.793   9.546  18.009  0.00  0.00    +0.000 NA
ATOM     15  C   UNL     1       2.312   8.407  17.691  0.00  0.00    +0.000 A 
ATOM     16  N   UNL     1       2.412   7.325  18.532  0.00  0.00    +0.000 N 
ENDROOT
BRANCH   8  17
ATOM     17  C   UNL     1      -2.760  12.846  22.703  0.00  0.00    +0.000 C 
ATOM     18  C   UNL     1      -3.491  12.769  24.022  0.00  0.00    +0.000 C 
ATOM     19  C   UNL     1      -2.445  13.823  23.811  0.00  0.00    +0.000 C 
ENDBRANCH   8  17
BRANCH  16  20
ATOM     20  C   UNL     1       3.007   6.072  18.063  0.00  0.00    +0.000 C 
BRANCH  20  21
ATOM     21  C   UNL     1       4.301   6.286  17.278  0.00  0.00    +0.000 C 
BRANCH  21  22
ATOM     22  N   UNL     1       5.457   5.990  18.089  0.00  0.00    +0.000 N 
ATOM     23  N   UNL     1       6.697   6.393  17.749  0.00  0.00    +0.000 NA
ATOM     24  C   UNL     1       7.385   5.875  18.773  0.00  0.00    +0.000 A 
ATOM     25  N   UNL     1       6.610   5.228  19.690  0.00  0.00    +0.000 NA
ATOM     26  N   UNL     1       5.363   5.314  19.245  0.00  0.00    +0.000 NA
ENDBRANCH  21  22
ENDBRANCH  20  21
ENDBRANCH  16  20
TORSDOF 4
ENDMDL
MODEL 8
REMARK VINA RESULT:      -7.7      1.893      2.702
REMARK  Name = 
REMARK  4 active torsions:
REMARK  status: ('A' for Active; 'I' for Inactive)
REMARK    1  A    between atoms: N_8  and  C_9
REMARK    2  A    between atoms: N_19  and  C_20
REMARK    3  A    between atoms: C_20  and  C_21
REMARK    4  A    between atoms: C_21  and  N_22
REMARK                            x       y       z     vdW  Elec       q    Type
REMARK                         _______ _______ _______ _____ _____    ______ ____
ROOT
ATOM      1  O   UNL     1       2.346   8.512  17.072  0.00  0.00    +0.000 OA
ATOM      2  C   UNL     1       2.237   8.035  18.196  0.00  0.00    +0.000 A 
ATOM      3  C   UNL     1       1.473   8.753  19.231  0.00  0.00    +0.000 A 
ATOM      4  C   UNL     1       1.044  10.070  19.021  0.00  0.00    +0.000 A 
ATOM      5  C   UNL     1       0.449  10.782  20.067  0.00  0.00    +0.000 A 
ATOM      6  N   UNL     1       0.113  12.124  19.863  0.00  0.00    +0.000 NA
ATOM      7  N   UNL     1      -0.262  12.821  20.829  0.00  0.00    +0.000 NA
ATOM      8  N   UNL     1      -0.431  12.291  22.077  0.00  0.00    +0.000 N 
ATOM      9  C   UNL     1      -0.299  10.944  22.362  0.00  0.00    +0.000 A 
ATOM     10  O   UNL     1      -0.572  10.414  23.437  0.00  0.00    +0.000 OA
ATOM     11  C   UNL     1       0.247  10.134  21.277  0.00  0.00    +0.000 A 
ATOM     12  C   UNL     1       0.627   8.799  21.473  0.00  0.00    +0.000 A 
ATOM     13  C   UNL     1       1.275   8.109  20.452  0.00  0.00    +0.000 A 
ATOM     14  N   UNL     1       1.770   6.824  20.705  0.00  0.00    +0.000 NA
ATOM     15  C   UNL     1       2.520   6.280  19.806  0.00  0.00    +0.000 A 
ATOM     16  N   UNL     1       2.832   6.846  18.594  0.00  0.00    +0.000 N 
ENDROOT
BRANCH   8  17
ATOM     17  C   UNL     1      -0.922  13.217  23.060  0.00  0.00    +0.000 C 
ATOM     18  C   UNL     1      -1.633  14.494  22.686  0.00  0.00    +0.000 C 
ATOM     19  C   UNL     1      -2.401  13.373  23.319  0.00  0.00    +0.000 C 
ENDBRANCH   8  17
BRANCH  16  20
ATOM     20  C   UNL     1       3.707   6.147  17.650  0.00  0.00    +0.000 C 
BRANCH  20  21
ATOM     21  C   UNL     1       5.118   6.733  17.603  0.00  0.00    +0.000 C 
BRANCH  21  22
ATOM     22  N   UNL     1       5.906   6.110  16.567  0.00  0.00    +0.000 N 
ATOM     23  N   UNL     1       5.369   5.268  15.663  0.00  0.00    +0.000 NA
ATOM     24  C   UNL     1       6.470   4.965  14.965  0.00  0.00    +0.000 A 
ATOM     25  N   UNL     1       7.593   5.605  15.397  0.00  0.00    +0.000 NA
ATOM     26  N   UNL     1       7.219   6.351  16.429  0.00  0.00    +0.000 NA
ENDBRANCH  21  22
ENDBRANCH  20  21
ENDBRANCH  16  20
TORSDOF 4
ENDMDL
MODEL 9
REMARK VINA RESULT:      -7.7      1.934      2.799
REMARK  Name = 
REMARK  4 active torsions:
REMARK  status: ('A' for Active; 'I' for Inactive)
REMARK    1  A    between atoms: N_8  and  C_9
REMARK    2  A    between atoms: N_19  and  C_20
REMARK    3  A    between atoms: C_20  and  C_21
REMARK    4  A    between atoms: C_21  and  N_22
REMARK                            x       y       z     vdW  Elec       q    Type
REMARK                         _______ _______ _______ _____ _____    ______ ____
ROOT
ATOM      1  O   UNL     1       2.870   5.141  20.425  0.00  0.00    +0.000 OA
ATOM      2  C   UNL     1       2.801   5.993  19.545  0.00  0.00    +0.000 A 
ATOM      3  C   UNL     1       2.182   7.299  19.833  0.00  0.00    +0.000 A 
ATOM      4  C   UNL     1       1.482   7.514  21.027  0.00  0.00    +0.000 A 
ATOM      5  C   UNL     1       0.780   8.708  21.216  0.00  0.00    +0.000 A 
ATOM      6  N   UNL     1       0.013   8.863  22.375  0.00  0.00    +0.000 NA
ATOM      7  N   UNL     1      -0.750   9.846  22.485  0.00  0.00    +0.000 NA
ATOM      8  N   UNL     1      -0.804  10.825  21.534  0.00  0.00    +0.000 N 
ATOM      9  C   UNL     1       0.031  10.871  20.432  0.00  0.00    +0.000 A 
ATOM     10  O   UNL     1       0.104  11.802  19.632  0.00  0.00    +0.000 OA
ATOM     11  C   UNL     1       0.848   9.679  20.227  0.00  0.00    +0.000 A 
ATOM     12  C   UNL     1       1.592   9.488  19.054  0.00  0.00    +0.000 A 
ATOM     13  C   UNL     1       2.241   8.275  18.838  0.00  0.00    +0.000 A 
ATOM     14  N   UNL     1       2.866   8.046  17.606  0.00  0.00    +0.000 NA
ATOM     15  C   UNL     1       3.301   6.855  17.364  0.00  0.00    +0.000 A 
ATOM     16  N   UNL     1       3.242   5.802  18.244  0.00  0.00    +0.000 N 
ENDROOT
BRANCH   8  17
ATOM     17  C   UNL     1      -1.691  11.912  21.843  0.00  0.00    +0.000 C 
ATOM     18  C   UNL     1      -2.393  12.032  23.173  0.00  0.00    +0.000 C 
ATOM     19  C   UNL     1      -1.296  12.992  22.822  0.00  0.00    +0.000 C 
ENDBRANCH   8  17
BRANCH  16  20
ATOM     20  C   UNL     1       3.753   4.483  17.861  0.00  0.00    +0.000 C 
BRANCH  20  21
ATOM     21  C   UNL     1       5.260   4.345  18.077  0.00  0.00    +0.000 C 
BRANCH  21  22
ATOM     22  N   UNL     1       5.984   4.559  16.847  0.00  0.00    +0.000 N 
ATOM     23  N   UNL     1       5.707   3.871  15.721  0.00  0.00    +0.000 NA
ATOM     24  C   UNL     1       6.627   4.404  14.908  0.00  0.00    +0.000 A 
ATOM     25  N   UNL     1       7.388   5.373  15.492  0.00  0.00    +0.000 NA
ATOM     26  N   UNL     1       6.961   5.473  16.744  0.00  0.00    +0.000 NA
ENDBRANCH  21  22
ENDBRANCH  20  21
ENDBRANCH  16  20
TORSDOF 4
ENDMDL
