MODEL 1
REMARK VINA RESULT:      -6.1      0.000      0.000
REMARK  Name = 
REMARK  5 active torsions:
REMARK  status: ('A' for Active; 'I' for Inactive)
REMARK    1  A    between atoms: C_2  and  N_3
REMARK    2  A    between atoms: C_2  and  N_10
REMARK    3  A    between atoms: N_3  and  C_4
REMARK    4  A    between atoms: C_4  and  C_5
REMARK    5  A    between atoms: N_10  and  C_11
REMARK                            x       y       z     vdW  Elec       q    Type
REMARK                         _______ _______ _______ _____ _____    ______ ____
ROOT
ATOM      1  S   UNL     1       3.748   5.928  17.634  0.00  0.00    +0.000 S 
ATOM      2  C   UNL     1       4.081   4.294  17.546  0.00  0.00    +0.000 C 
ENDROOT
BRANCH   2   3
ATOM      3  N   UNL     1       5.292   3.737  17.279  0.00  0.00    +0.000 N 
ATOM      4  H   UNL     1       5.673   3.105  17.970  0.00  0.00    +0.000 HD
BRANCH   3   5
ATOM      5  C   UNL     1       6.256   4.199  16.279  0.00  0.00    +0.000 C 
BRANCH   5   6
ATOM      6  C   UNL     1       7.356   5.055  16.909  0.00  0.00    +0.000 C 
ATOM      7  C   UNL     1       7.319   5.111  18.427  0.00  0.00    +0.000 C 
ATOM      8  C   UNL     1       7.984   6.435  18.707  0.00  0.00    +0.000 C 
ATOM      9  C   UNL     1       7.524   7.290  17.547  0.00  0.00    +0.000 C 
ATOM     10  O   UNL     1       7.253   6.415  16.445  0.00  0.00    +0.000 OA
ENDBRANCH   5   6
ENDBRANCH   3   5
ENDBRANCH   2   3
BRANCH   2  11
ATOM     11  N   UNL     1       3.040   3.439  17.707  0.00  0.00    +0.000 N 
ATOM     12  H   UNL     1       2.605   3.192  16.825  0.00  0.00    +0.000 HD
BRANCH  11  13
ATOM     13  C   UNL     1       2.482   2.837  18.905  0.00  0.00    +0.000 C 
ATOM     14  C   UNL     1       3.401   3.052  20.105  0.00  0.00    +0.000 C 
ATOM     15  C   UNL     1       2.522   2.732  21.302  0.00  0.00    +0.000 C 
ATOM     16  C   UNL     1       1.096   3.076  20.869  0.00  0.00    +0.000 C 
ATOM     17  C   UNL     1       1.176   3.463  19.392  0.00  0.00    +0.000 C 
ENDBRANCH  11  13
ENDBRANCH   2  11
TORSDOF 5
ENDMDL
MODEL 2
REMARK VINA RESULT:      -5.9      2.245      5.568
REMARK  Name = 
REMARK  5 active torsions:
REMARK  status: ('A' for Active; 'I' for Inactive)
REMARK    1  A    between atoms: C_2  and  N_3
REMARK    2  A    between atoms: C_2  and  N_10
REMARK    3  A    between atoms: N_3  and  C_4
REMARK    4  A    between atoms: C_4  and  C_5
REMARK    5  A    between atoms: N_10  and  C_11
REMARK                            x       y       z     vdW  Elec       q    Type
REMARK                         _______ _______ _______ _____ _____    ______ ____
ROOT
ATOM      1  S   UNL     1       2.447   7.143  18.356  0.00  0.00    +0.000 S 
ATOM      2  C   UNL     1       2.789   5.528  18.104  0.00  0.00    +0.000 C 
ENDROOT
BRANCH   2   3
ATOM      3  N   UNL     1       1.891   4.562  17.778  0.00  0.00    +0.000 N 
ATOM      4  H   UNL     1       0.912   4.813  17.799  0.00  0.00    +0.000 HD
BRANCH   3   5
ATOM      5  C   UNL     1       2.149   3.121  17.727  0.00  0.00    +0.000 C 
BRANCH   5   6
ATOM      6  C   UNL     1       1.927   2.460  19.087  0.00  0.00    +0.000 C 
ATOM      7  C   UNL     1       0.854   3.118  19.940  0.00  0.00    +0.000 C 
ATOM      8  C   UNL     1       1.296   2.753  21.335  0.00  0.00    +0.000 C 
ATOM      9  C   UNL     1       2.804   2.780  21.223  0.00  0.00    +0.000 C 
ATOM     10  O   UNL     1       3.142   2.494  19.860  0.00  0.00    +0.000 OA
ENDBRANCH   5   6
ENDBRANCH   3   5
ENDBRANCH   2   3
BRANCH   2  11
ATOM     11  N   UNL     1       4.073   5.130  18.289  0.00  0.00    +0.000 N 
ATOM     12  H   UNL     1       4.198   4.624  19.159  0.00  0.00    +0.000 HD
BRANCH  11  13
ATOM     13  C   UNL     1       5.249   5.302  17.454  0.00  0.00    +0.000 C 
ATOM     14  C   UNL     1       6.475   4.656  18.094  0.00  0.00    +0.000 C 
ATOM     15  C   UNL     1       7.482   4.576  16.960  0.00  0.00    +0.000 C 
ATOM     16  C   UNL     1       6.653   4.451  15.682  0.00  0.00    +0.000 C 
ATOM     17  C   UNL     1       5.189   4.593  16.102  0.00  0.00    +0.000 C 
ENDBRANCH  11  13
ENDBRANCH   2  11
TORSDOF 5
ENDMDL
MODEL 3
REMARK VINA RESULT:      -5.9      2.072      5.521
REMARK  Name = 
REMARK  5 active torsions:
REMARK  status: ('A' for Active; 'I' for Inactive)
REMARK    1  A    between atoms: C_2  and  N_3
REMARK    2  A    between atoms: C_2  and  N_10
REMARK    3  A    between atoms: N_3  and  C_4
REMARK    4  A    between atoms: C_4  and  C_5
REMARK    5  A    between atoms: N_10  and  C_11
REMARK                            x       y       z     vdW  Elec       q    Type
REMARK                         _______ _______ _______ _____ _____    ______ ____
ROOT
ATOM      1  S   UNL     1       5.608   3.840  15.343  0.00  0.00    +0.000 S 
ATOM      2  C   UNL     1       4.925   3.915  16.865  0.00  0.00    +0.000 C 
ENDROOT
BRANCH   2   3
ATOM      3  N   UNL     1       4.475   2.860  17.593  0.00  0.00    +0.000 N 
ATOM      4  H   UNL     1       5.156   2.168  17.875  0.00  0.00    +0.000 HD
BRANCH   3   5
ATOM      5  C   UNL     1       3.081   2.433  17.730  0.00  0.00    +0.000 C 
BRANCH   5   6
ATOM      6  C   UNL     1       2.562   2.650  19.152  0.00  0.00    +0.000 C 
ATOM      7  C   UNL     1       1.097   3.046  19.234  0.00  0.00    +0.000 C 
ATOM      8  C   UNL     1       1.051   3.804  20.538  0.00  0.00    +0.000 C 
ATOM      9  C   UNL     1       2.398   4.493  20.569  0.00  0.00    +0.000 C 
ATOM     10  O   UNL     1       3.308   3.699  19.798  0.00  0.00    +0.000 OA
ENDBRANCH   5   6
ENDBRANCH   3   5
ENDBRANCH   2   3
BRANCH   2  11
ATOM     11  N   UNL     1       4.758   5.146  17.409  0.00  0.00    +0.000 N 
ATOM     12  H   UNL     1       3.795   5.460  17.363  0.00  0.00    +0.000 HD
BRANCH  11  13
ATOM     13  C   UNL     1       5.712   6.045  18.036  0.00  0.00    +0.000 C 
ATOM     14  C   UNL     1       6.922   5.279  18.563  0.00  0.00    +0.000 C 
ATOM     15  C   UNL     1       7.960   6.360  18.813  0.00  0.00    +0.000 C 
ATOM     16  C   UNL     1       7.650   7.469  17.807  0.00  0.00    +0.000 C 
ATOM     17  C   UNL     1       6.363   7.054  17.092  0.00  0.00    +0.000 C 
ENDBRANCH  11  13
ENDBRANCH   2  11
TORSDOF 5
ENDMDL
MODEL 4
REMARK VINA RESULT:      -5.9      1.906      3.006
REMARK  Name = 
REMARK  5 active torsions:
REMARK  status: ('A' for Active; 'I' for Inactive)
REMARK    1  A    between atoms: C_2  and  N_3
REMARK    2  A    between atoms: C_2  and  N_10
REMARK    3  A    between atoms: N_3  and  C_4
REMARK    4  A    between atoms: C_4  and  C_5
REMARK    5  A    between atoms: N_10  and  C_11
REMARK                            x       y       z     vdW  Elec       q    Type
REMARK                         _______ _______ _______ _____ _____    ______ ____
ROOT
ATOM      1  S   UNL     1       5.462   5.521  19.118  0.00  0.00    +0.000 S 
ATOM      2  C   UNL     1       5.465   4.170  18.136  0.00  0.00    +0.000 C 
ENDROOT
BRANCH   2   3
ATOM      3  N   UNL     1       6.324   3.929  17.111  0.00  0.00    +0.000 N 
ATOM      4  H   UNL     1       6.657   2.980  17.000  0.00  0.00    +0.000 HD
BRANCH   3   5
ATOM      5  C   UNL     1       7.082   4.931  16.361  0.00  0.00    +0.000 C 
BRANCH   5   6
ATOM      6  C   UNL     1       6.601   5.036  14.913  0.00  0.00    +0.000 C 
ATOM      7  C   UNL     1       6.138   3.721  14.307  0.00  0.00    +0.000 C 
ATOM      8  C   UNL     1       6.372   3.956  12.836  0.00  0.00    +0.000 C 
ATOM      9  C   UNL     1       7.622   4.808  12.831  0.00  0.00    +0.000 C 
ATOM     10  O   UNL     1       7.663   5.524  14.071  0.00  0.00    +0.000 OA
ENDBRANCH   5   6
ENDBRANCH   3   5
ENDBRANCH   2   3
BRANCH   2  11
ATOM     11  N   UNL     1       4.492   3.249  18.346  0.00  0.00    +0.000 N 
ATOM     12  H   UNL     1       4.805   2.306  18.144  0.00  0.00    +0.000 HD
BRANCH  11  13
ATOM     13  C   UNL     1       3.124   3.402  18.810  0.00  0.00    +0.000 C 
ATOM     14  C   UNL     1       2.174   2.508  18.019  0.00  0.00    +0.000 C 
ATOM     15  C   UNL     1       0.908   2.485  18.858  0.00  0.00    +0.000 C 
ATOM     16  C   UNL     1       1.369   2.677  20.303  0.00  0.00    +0.000 C 
ATOM     17  C   UNL     1       2.875   2.936  20.244  0.00  0.00    +0.000 C 
ENDBRANCH  11  13
ENDBRANCH   2  11
TORSDOF 5
ENDMDL
MODEL 5
REMARK VINA RESULT:      -5.9      2.205      5.708
REMARK  Name = 
REMARK  5 active torsions:
REMARK  status: ('A' for Active; 'I' for Inactive)
REMARK    1  A    between atoms: C_2  and  N_3
REMARK    2  A    between atoms: C_2  and  N_10
REMARK    3  A    between atoms: N_3  and  C_4
REMARK    4  A    between atoms: C_4  and  C_5
REMARK    5  A    between atoms: N_10  and  C_11
REMARK                            x       y       z     vdW  Elec       q    Type
REMARK                         _______ _______ _______ _____ _____    ______ ____
ROOT
ATOM      1  S   UNL     1       2.563   6.358  19.408  0.00  0.00    +0.000 S 
ATOM      2  C   UNL     1       2.954   5.259  18.213  0.00  0.00    +0.000 C 
ENDROOT
BRANCH   2   3
ATOM      3  N   UNL     1       2.129   4.313  17.695  0.00  0.00    +0.000 N 
ATOM      4  H   UNL     1       1.187   4.597  17.464  0.00  0.00    +0.000 HD
BRANCH   3   5
ATOM      5  C   UNL     1       2.333   2.864  17.744  0.00  0.00    +0.000 C 
BRANCH   5   6
ATOM      6  C   UNL     1       2.034   2.299  19.134  0.00  0.00    +0.000 C 
ATOM      7  C   UNL     1       0.900   2.996  19.867  0.00  0.00    +0.000 C 
ATOM      8  C   UNL     1       1.257   2.742  21.310  0.00  0.00    +0.000 C 
ATOM      9  C   UNL     1       2.769   2.790  21.290  0.00  0.00    +0.000 C 
ATOM     10  O   UNL     1       3.197   2.412  19.976  0.00  0.00    +0.000 OA
ENDBRANCH   5   6
ENDBRANCH   3   5
ENDBRANCH   2   3
BRANCH   2  11
ATOM     11  N   UNL     1       4.229   5.277  17.748  0.00  0.00    +0.000 N 
ATOM     12  H   UNL     1       4.379   4.598  17.010  0.00  0.00    +0.000 HD
BRANCH  11  13
ATOM     13  C   UNL     1       5.366   6.098  18.126  0.00  0.00    +0.000 C 
ATOM     14  C   UNL     1       6.493   5.244  18.701  0.00  0.00    +0.000 C 
ATOM     15  C   UNL     1       7.702   6.162  18.669  0.00  0.00    +0.000 C 
ATOM     16  C   UNL     1       7.465   7.115  17.496  0.00  0.00    +0.000 C 
ATOM     17  C   UNL     1       6.065   6.804  16.965  0.00  0.00    +0.000 C 
ENDBRANCH  11  13
ENDBRANCH   2  11
TORSDOF 5
ENDMDL
MODEL 6
REMARK VINA RESULT:      -5.9      2.665      3.706
REMARK  Name = 
REMARK  5 active torsions:
REMARK  status: ('A' for Active; 'I' for Inactive)
REMARK    1  A    between atoms: C_2  and  N_3
REMARK    2  A    between atoms: C_2  and  N_10
REMARK    3  A    between atoms: N_3  and  C_4
REMARK    4  A    between atoms: C_4  and  C_5
REMARK    5  A    between atoms: N_10  and  C_11
REMARK                            x       y       z     vdW  Elec       q    Type
REMARK                         _______ _______ _______ _____ _____    ______ ____
ROOT
ATOM      1  S   UNL     1       2.468   7.785  18.260  0.00  0.00    +0.000 S 
ATOM      2  C   UNL     1       3.188   6.552  19.128  0.00  0.00    +0.000 C 
ENDROOT
BRANCH   2   3
ATOM      3  N   UNL     1       4.256   5.813  18.731  0.00  0.00    +0.000 N 
ATOM      4  H   UNL     1       5.138   5.987  19.195  0.00  0.00    +0.000 HD
BRANCH   3   5
ATOM      5  C   UNL     1       4.363   5.039  17.493  0.00  0.00    +0.000 C 
BRANCH   5   6
ATOM      6  C   UNL     1       4.646   3.562  17.773  0.00  0.00    +0.000 C 
ATOM      7  C   UNL     1       3.471   2.635  17.507  0.00  0.00    +0.000 C 
ATOM      8  C   UNL     1       3.764   1.485  18.438  0.00  0.00    +0.000 C 
ATOM      9  C   UNL     1       4.395   2.174  19.628  0.00  0.00    +0.000 C 
ATOM     10  O   UNL     1       5.008   3.380  19.155  0.00  0.00    +0.000 OA
ENDBRANCH   5   6
ENDBRANCH   3   5
ENDBRANCH   2   3
BRANCH   2  11
ATOM     11  N   UNL     1       2.627   6.223  20.318  0.00  0.00    +0.000 N 
ATOM     12  H   UNL     1       2.920   6.841  21.066  0.00  0.00    +0.000 HD
BRANCH  11  13
ATOM     13  C   UNL     1       1.694   5.165  20.668  0.00  0.00    +0.000 C 
ATOM     14  C   UNL     1       1.286   4.364  19.434  0.00  0.00    +0.000 C 
ATOM     15  C   UNL     1       0.657   3.105  20.006  0.00  0.00    +0.000 C 
ATOM     16  C   UNL     1       1.349   2.873  21.350  0.00  0.00    +0.000 C 
ATOM     17  C   UNL     1       2.265   4.076  21.576  0.00  0.00    +0.000 C 
ENDBRANCH  11  13
ENDBRANCH   2  11
TORSDOF 5
ENDMDL
MODEL 7
REMARK VINA RESULT:      -5.8      2.195      5.975
REMARK  Name = 
REMARK  5 active torsions:
REMARK  status: ('A' for Active; 'I' for Inactive)
REMARK    1  A    between atoms: C_2  and  N_3
REMARK    2  A    between atoms: C_2  and  N_10
REMARK    3  A    between atoms: N_3  and  C_4
REMARK    4  A    between atoms: C_4  and  C_5
REMARK    5  A    between atoms: N_10  and  C_11
REMARK                            x       y       z     vdW  Elec       q    Type
REMARK                         _______ _______ _______ _____ _____    ______ ____
ROOT
ATOM      1  S   UNL     1       4.505   5.104  19.537  0.00  0.00    +0.000 S 
ATOM      2  C   UNL     1       5.236   4.120  18.404  0.00  0.00    +0.000 C 
ENDROOT
BRANCH   2   3
ATOM      3  N   UNL     1       4.614   3.193  17.629  0.00  0.00    +0.000 N 
ATOM      4  H   UNL     1       5.177   2.431  17.277  0.00  0.00    +0.000 HD
BRANCH   3   5
ATOM      5  C   UNL     1       3.316   3.346  16.969  0.00  0.00    +0.000 C 
BRANCH   5   6
ATOM      6  C   UNL     1       2.185   2.746  17.805  0.00  0.00    +0.000 C 
ATOM      7  C   UNL     1       1.261   3.771  18.442  0.00  0.00    +0.000 C 
ATOM      8  C   UNL     1       0.741   3.020  19.643  0.00  0.00    +0.000 C 
ATOM      9  C   UNL     1       1.934   2.184  20.053  0.00  0.00    +0.000 C 
ATOM     10  O   UNL     1       2.727   1.957  18.882  0.00  0.00    +0.000 OA
ENDBRANCH   5   6
ENDBRANCH   3   5
ENDBRANCH   2   3
BRANCH   2  11
ATOM     11  N   UNL     1       6.583   4.215  18.277  0.00  0.00    +0.000 N 
ATOM     12  H   UNL     1       7.050   3.332  18.450  0.00  0.00    +0.000 HD
BRANCH  11  13
ATOM     13  C   UNL     1       7.426   5.347  17.930  0.00  0.00    +0.000 C 
ATOM     14  C   UNL     1       6.639   6.399  17.153  0.00  0.00    +0.000 C 
ATOM     15  C   UNL     1       7.518   7.636  17.218  0.00  0.00    +0.000 C 
ATOM     16  C   UNL     1       8.298   7.519  18.529  0.00  0.00    +0.000 C 
ATOM     17  C   UNL     1       7.943   6.154  19.120  0.00  0.00    +0.000 C 
ENDBRANCH  11  13
ENDBRANCH   2  11
TORSDOF 5
ENDMDL
MODEL 8
REMARK VINA RESULT:      -5.8      0.754      1.252
REMARK  Name = 
REMARK  5 active torsions:
REMARK  status: ('A' for Active; 'I' for Inactive)
REMARK    1  A    between atoms: C_2  and  N_3
REMARK    2  A    between atoms: C_2  and  N_10
REMARK    3  A    between atoms: N_3  and  C_4
REMARK    4  A    between atoms: C_4  and  C_5
REMARK    5  A    between atoms: N_10  and  C_11
REMARK                            x       y       z     vdW  Elec       q    Type
REMARK                         _______ _______ _______ _____ _____    ______ ____
ROOT
ATOM      1  S   UNL     1       3.635   6.737  17.805  0.00  0.00    +0.000 S 
ATOM      2  C   UNL     1       4.125   5.214  17.327  0.00  0.00    +0.000 C 
ENDROOT
BRANCH   2   3
ATOM      3  N   UNL     1       4.900   4.924  16.249  0.00  0.00    +0.000 N 
ATOM      4  H   UNL     1       4.473   5.008  15.336  0.00  0.00    +0.000 HD
BRANCH   3   5
ATOM      5  C   UNL     1       6.165   4.188  16.264  0.00  0.00    +0.000 C 
BRANCH   5   6
ATOM      6  C   UNL     1       7.281   4.997  16.926  0.00  0.00    +0.000 C 
ATOM      7  C   UNL     1       7.155   5.128  18.435  0.00  0.00    +0.000 C 
ATOM      8  C   UNL     1       7.893   6.417  18.700  0.00  0.00    +0.000 C 
ATOM      9  C   UNL     1       7.565   7.244  17.476  0.00  0.00    +0.000 C 
ATOM     10  O   UNL     1       7.302   6.338  16.399  0.00  0.00    +0.000 OA
ENDBRANCH   5   6
ENDBRANCH   3   5
ENDBRANCH   2   3
BRANCH   2  11
ATOM     11  N   UNL     1       3.670   4.160  18.050  0.00  0.00    +0.000 N 
ATOM     12  H   UNL     1       3.937   3.270  17.645  0.00  0.00    +0.000 HD
BRANCH  11  13
ATOM     13  C   UNL     1       2.896   4.116  19.279  0.00  0.00    +0.000 C 
ATOM     14  C   UNL     1       1.420   3.861  18.988  0.00  0.00    +0.000 C 
ATOM     15  C   UNL     1       0.845   3.458  20.335  0.00  0.00    +0.000 C 
ATOM     16  C   UNL     1       1.997   2.799  21.094  0.00  0.00    +0.000 C 
ATOM     17  C   UNL     1       3.238   2.957  20.215  0.00  0.00    +0.000 C 
ENDBRANCH  11  13
ENDBRANCH   2  11
TORSDOF 5
ENDMDL
MODEL 9
REMARK VINA RESULT:      -5.8      2.189      5.624
REMARK  Name = 
REMARK  5 active torsions:
REMARK  status: ('A' for Active; 'I' for Inactive)
REMARK    1  A    between atoms: C_2  and  N_3
REMARK    2  A    between atoms: C_2  and  N_10
REMARK    3  A    between atoms: N_3  and  C_4
REMARK    4  A    between atoms: C_4  and  C_5
REMARK    5  A    between atoms: N_10  and  C_11
REMARK                            x       y       z     vdW  Elec       q    Type
REMARK                         _______ _______ _______ _____ _____    ______ ____
ROOT
ATOM      1  S   UNL     1       3.501   7.383  17.637  0.00  0.00    +0.000 S 
ATOM      2  C   UNL     1       3.202   5.825  18.161  0.00  0.00    +0.000 C 
ENDROOT
BRANCH   2   3
ATOM      3  N   UNL     1       1.981   5.242  18.280  0.00  0.00    +0.000 N 
ATOM      4  H   UNL     1       1.306   5.700  18.877  0.00  0.00    +0.000 HD
BRANCH   3   5
ATOM      5  C   UNL     1       1.640   3.864  17.920  0.00  0.00    +0.000 C 
BRANCH   5   6
ATOM      6  C   UNL     1       1.558   2.963  19.152  0.00  0.00    +0.000 C 
ATOM      7  C   UNL     1       0.879   3.599  20.354  0.00  0.00    +0.000 C 
ATOM      8  C   UNL     1       1.505   2.846  21.501  0.00  0.00    +0.000 C 
ATOM      9  C   UNL     1       2.917   2.609  21.012  0.00  0.00    +0.000 C 
ATOM     10  O   UNL     1       2.880   2.585  19.580  0.00  0.00    +0.000 OA
ENDBRANCH   5   6
ENDBRANCH   3   5
ENDBRANCH   2   3
BRANCH   2  11
ATOM     11  N   UNL     1       4.271   5.087  18.551  0.00  0.00    +0.000 N 
ATOM     12  H   UNL     1       4.329   4.994  19.559  0.00  0.00    +0.000 HD
BRANCH  11  13
ATOM     13  C   UNL     1       5.301   4.422  17.771  0.00  0.00    +0.000 C 
ATOM     14  C   UNL     1       4.884   4.291  16.309  0.00  0.00    +0.000 C 
ATOM     15  C   UNL     1       6.177   3.957  15.586  0.00  0.00    +0.000 C 
ATOM     16  C   UNL     1       7.289   4.608  16.411  0.00  0.00    +0.000 C 
ATOM     17  C   UNL     1       6.618   5.189  17.656  0.00  0.00    +0.000 C 
ENDBRANCH  11  13
ENDBRANCH   2  11
TORSDOF 5
ENDMDL
