MODEL 1
REMARK VINA RESULT:      -8.7      0.000      0.000
REMARK  Name = 
REMARK  7 active torsions:
REMARK  status: ('A' for Active; 'I' for Inactive)
REMARK    1  A    between atoms: C_1  and  O_2
REMARK    2  A    between atoms: O_2  and  C_3
REMARK    3  A    between atoms: C_5  and  C_6
REMARK    4  A    between atoms: C_12  and  C_13
REMARK    5  A    between atoms: C_15  and  N_16
REMARK    6  A    between atoms: N_16  and  C_17
REMARK    7  A    between atoms: C_17  and  C_18
REMARK                            x       y       z     vdW  Elec       q    Type
REMARK                         _______ _______ _______ _____ _____    ______ ____
ROOT
ATOM      1  C   UNL     1       6.365   6.710  16.970  0.00  0.00    +0.000 A 
ATOM      2  C   UNL     1       6.552   5.765  15.982  0.00  0.00    +0.000 A 
ATOM      3  C   UNL     1       5.794   4.585  15.994  0.00  0.00    +0.000 A 
ATOM      4  C   UNL     1       6.008   3.598  14.872  0.00  0.00    +0.000 C 
ATOM      5  C   UNL     1       4.864   4.318  17.007  0.00  0.00    +0.000 A 
ATOM      6  N   UNL     1       4.215   3.152  16.926  0.00  0.00    +0.000 NA
ATOM      7  C   UNL     1       3.328   2.929  17.898  0.00  0.00    +0.000 A 
ATOM      8  N   UNL     1       2.553   1.810  18.002  0.00  0.00    +0.000 N 
ATOM      9  N   UNL     1       1.747   1.808  19.070  0.00  0.00    +0.000 NA
ATOM     10  C   UNL     1       2.010   2.981  19.667  0.00  0.00    +0.000 A 
ATOM     11  C   UNL     1       1.288   3.311  20.923  0.00  0.00    +0.000 C 
ATOM     12  C   UNL     1       3.002   3.743  18.963  0.00  0.00    +0.000 A 
ATOM     13  C   UNL     1       3.673   4.992  19.076  0.00  0.00    +0.000 A 
ATOM     14  C   UNL     1       4.644   5.274  18.038  0.00  0.00    +0.000 A 
ATOM     15  C   UNL     1       5.400   6.472  17.947  0.00  0.00    +0.000 A 
ATOM     16  H   UNL     1       2.548   1.023  17.365  0.00  0.00    +0.000 HD
ENDROOT
BRANCH   1  18
ATOM     17  C   UNL     1       8.084   7.925  18.063  0.00  0.00    +0.000 C 
ATOM     18  O   UNL     1       7.039   7.892  17.100  0.00  0.00    +0.000 OA
ENDBRANCH   1  18
BRANCH  13  19
ATOM     19  N   UNL     1       3.305   5.875  20.091  0.00  0.00    +0.000 N 
ATOM     20  H   UNL     1       3.988   6.601  20.269  0.00  0.00    +0.000 HD
BRANCH  19  21
ATOM     21  C   UNL     1       1.954   6.380  20.299  0.00  0.00    +0.000 C 
BRANCH  21  22
ATOM     22  C   UNL     1       1.809   7.774  19.721  0.00  0.00    +0.000 A 
ATOM     23  C   UNL     1       2.214   8.030  18.407  0.00  0.00    +0.000 A 
ATOM     24  C   UNL     1       1.998   9.293  17.872  0.00  0.00    +0.000 A 
ATOM     25  N   UNL     1       1.407  10.306  18.539  0.00  0.00    +0.000 NA
ATOM     26  C   UNL     1       1.016  10.045  19.802  0.00  0.00    +0.000 A 
ATOM     27  C   UNL     1       1.195   8.820  20.426  0.00  0.00    +0.000 A 
ENDBRANCH  21  22
ENDBRANCH  19  21
ENDBRANCH  13  19
TORSDOF 4
ENDMDL
MODEL 2
REMARK VINA RESULT:      -8.5      3.309      5.566
REMARK  Name = 
REMARK  7 active torsions:
REMARK  status: ('A' for Active; 'I' for Inactive)
REMARK    1  A    between atoms: C_1  and  O_2
REMARK    2  A    between atoms: O_2  and  C_3
REMARK    3  A    between atoms: C_5  and  C_6
REMARK    4  A    between atoms: C_12  and  C_13
REMARK    5  A    between atoms: C_15  and  N_16
REMARK    6  A    between atoms: N_16  and  C_17
REMARK    7  A    between atoms: C_17  and  C_18
REMARK                            x       y       z     vdW  Elec       q    Type
REMARK                         _______ _______ _______ _____ _____    ______ ____
ROOT
ATOM      1  C   UNL     1       5.727   3.389  12.444  0.00  0.00    +0.000 A 
ATOM      2  C   UNL     1       6.781   4.215  12.111  0.00  0.00    +0.000 A 
ATOM      3  C   UNL     1       7.409   4.979  13.105  0.00  0.00    +0.000 A 
ATOM      4  C   UNL     1       8.582   5.839  12.699  0.00  0.00    +0.000 C 
ATOM      5  C   UNL     1       6.974   4.955  14.437  0.00  0.00    +0.000 A 
ATOM      6  N   UNL     1       7.635   5.740  15.294  0.00  0.00    +0.000 NA
ATOM      7  C   UNL     1       7.206   5.688  16.556  0.00  0.00    +0.000 A 
ATOM      8  N   UNL     1       7.743   6.400  17.589  0.00  0.00    +0.000 N 
ATOM      9  N   UNL     1       7.135   6.191  18.763  0.00  0.00    +0.000 NA
ATOM     10  C   UNL     1       6.177   5.298  18.469  0.00  0.00    +0.000 A 
ATOM     11  C   UNL     1       5.278   4.843  19.560  0.00  0.00    +0.000 C 
ATOM     12  C   UNL     1       6.177   4.933  17.081  0.00  0.00    +0.000 A 
ATOM     13  C   UNL     1       5.457   4.085  16.196  0.00  0.00    +0.000 A 
ATOM     14  C   UNL     1       5.892   4.110  14.814  0.00  0.00    +0.000 A 
ATOM     15  C   UNL     1       5.329   3.320  13.777  0.00  0.00    +0.000 A 
ATOM     16  H   UNL     1       8.524   7.043  17.533  0.00  0.00    +0.000 HD
ENDROOT
BRANCH   1  18
ATOM     17  C   UNL     1       3.834   3.181  11.030  0.00  0.00    +0.000 C 
ATOM     18  O   UNL     1       5.009   2.605  11.586  0.00  0.00    +0.000 OA
ENDBRANCH   1  18
BRANCH  13  19
ATOM     19  N   UNL     1       4.468   3.245  16.710  0.00  0.00    +0.000 N 
ATOM     20  H   UNL     1       4.736   2.775  17.567  0.00  0.00    +0.000 HD
BRANCH  19  21
ATOM     21  C   UNL     1       3.044   3.550  16.716  0.00  0.00    +0.000 C 
BRANCH  21  22
ATOM     22  C   UNL     1       2.466   3.375  18.107  0.00  0.00    +0.000 A 
ATOM     23  C   UNL     1       1.691   4.391  18.674  0.00  0.00    +0.000 A 
ATOM     24  C   UNL     1       1.105   4.177  19.914  0.00  0.00    +0.000 A 
ATOM     25  N   UNL     1       1.227   3.034  20.620  0.00  0.00    +0.000 NA
ATOM     26  C   UNL     1       1.970   2.059  20.060  0.00  0.00    +0.000 A 
ATOM     27  C   UNL     1       2.600   2.181  18.831  0.00  0.00    +0.000 A 
ENDBRANCH  21  22
ENDBRANCH  19  21
ENDBRANCH  13  19
TORSDOF 4
ENDMDL
MODEL 3
REMARK VINA RESULT:      -8.1      2.048      5.272
REMARK  Name = 
REMARK  7 active torsions:
REMARK  status: ('A' for Active; 'I' for Inactive)
REMARK    1  A    between atoms: C_1  and  O_2
REMARK    2  A    between atoms: O_2  and  C_3
REMARK    3  A    between atoms: C_5  and  C_6
REMARK    4  A    between atoms: C_12  and  C_13
REMARK    5  A    between atoms: C_15  and  N_16
REMARK    6  A    between atoms: N_16  and  C_17
REMARK    7  A    between atoms: C_17  and  C_18
REMARK                            x       y       z     vdW  Elec       q    Type
REMARK                         _______ _______ _______ _____ _____    ______ ____
ROOT
ATOM      1  C   UNL     1       2.083   9.026  18.355  0.00  0.00    +0.000 A 
ATOM      2  C   UNL     1       1.542   9.209  19.612  0.00  0.00    +0.000 A 
ATOM      3  C   UNL     1       1.465   8.128  20.502  0.00  0.00    +0.000 A 
ATOM      4  C   UNL     1       0.900   8.386  21.878  0.00  0.00    +0.000 C 
ATOM      5  C   UNL     1       1.895   6.844  20.140  0.00  0.00    +0.000 A 
ATOM      6  N   UNL     1       1.754   5.888  21.064  0.00  0.00    +0.000 NA
ATOM      7  C   UNL     1       2.182   4.678  20.696  0.00  0.00    +0.000 A 
ATOM      8  N   UNL     1       2.138   3.565  21.485  0.00  0.00    +0.000 N 
ATOM      9  N   UNL     1       2.614   2.464  20.892  0.00  0.00    +0.000 NA
ATOM     10  C   UNL     1       2.989   2.895  19.677  0.00  0.00    +0.000 A 
ATOM     11  C   UNL     1       3.559   1.909  18.723  0.00  0.00    +0.000 C 
ATOM     12  C   UNL     1       2.746   4.298  19.496  0.00  0.00    +0.000 A 
ATOM     13  C   UNL     1       2.913   5.293  18.494  0.00  0.00    +0.000 A 
ATOM     14  C   UNL     1       2.462   6.622  18.854  0.00  0.00    +0.000 A 
ATOM     15  C   UNL     1       2.564   7.763  18.014  0.00  0.00    +0.000 A 
ATOM     16  H   UNL     1       1.788   3.516  22.433  0.00  0.00    +0.000 HD
ENDROOT
BRANCH   1  18
ATOM     17  C   UNL     1       2.247  11.328  17.809  0.00  0.00    +0.000 C 
ATOM     18  O   UNL     1       2.206   9.973  17.379  0.00  0.00    +0.000 OA
ENDBRANCH   1  18
BRANCH  13  19
ATOM     19  N   UNL     1       3.558   4.961  17.303  0.00  0.00    +0.000 N 
ATOM     20  H   UNL     1       3.400   5.623  16.553  0.00  0.00    +0.000 HD
BRANCH  19  21
ATOM     21  C   UNL     1       4.900   4.401  17.217  0.00  0.00    +0.000 C 
BRANCH  21  22
ATOM     22  C   UNL     1       5.935   5.424  17.645  0.00  0.00    +0.000 A 
ATOM     23  C   UNL     1       6.803   5.138  18.703  0.00  0.00    +0.000 A 
ATOM     24  C   UNL     1       7.794   6.056  19.026  0.00  0.00    +0.000 A 
ATOM     25  N   UNL     1       7.986   7.221  18.373  0.00  0.00    +0.000 NA
ATOM     26  C   UNL     1       7.148   7.482  17.351  0.00  0.00    +0.000 A 
ATOM     27  C   UNL     1       6.124   6.633  16.959  0.00  0.00    +0.000 A 
ENDBRANCH  21  22
ENDBRANCH  19  21
ENDBRANCH  13  19
TORSDOF 4
ENDMDL
MODEL 4
REMARK VINA RESULT:      -8.0      1.053      1.401
REMARK  Name = 
REMARK  7 active torsions:
REMARK  status: ('A' for Active; 'I' for Inactive)
REMARK    1  A    between atoms: C_1  and  O_2
REMARK    2  A    between atoms: O_2  and  C_3
REMARK    3  A    between atoms: C_5  and  C_6
REMARK    4  A    between atoms: C_12  and  C_13
REMARK    5  A    between atoms: C_15  and  N_16
REMARK    6  A    between atoms: N_16  and  C_17
REMARK    7  A    between atoms: C_17  and  C_18
REMARK                            x       y       z     vdW  Elec       q    Type
REMARK                         _______ _______ _______ _____ _____    ______ ____
ROOT
ATOM      1  C   UNL     1       6.292   6.891  16.846  0.00  0.00    +0.000 A 
ATOM      2  C   UNL     1       6.666   5.813  16.071  0.00  0.00    +0.000 A 
ATOM      3  C   UNL     1       5.925   4.624  16.126  0.00  0.00    +0.000 A 
ATOM      4  C   UNL     1       6.350   3.485  15.232  0.00  0.00    +0.000 C 
ATOM      5  C   UNL     1       4.822   4.483  16.980  0.00  0.00    +0.000 A 
ATOM      6  N   UNL     1       4.205   3.297  16.963  0.00  0.00    +0.000 NA
ATOM      7  C   UNL     1       3.153   3.195  17.778  0.00  0.00    +0.000 A 
ATOM      8  N   UNL     1       2.377   2.080  17.911  0.00  0.00    +0.000 N 
ATOM      9  N   UNL     1       1.385   2.214  18.798  0.00  0.00    +0.000 NA
ATOM     10  C   UNL     1       1.525   3.473  19.242  0.00  0.00    +0.000 A 
ATOM     11  C   UNL     1       0.579   3.966  20.275  0.00  0.00    +0.000 C 
ATOM     12  C   UNL     1       2.628   4.151  18.623  0.00  0.00    +0.000 A 
ATOM     13  C   UNL     1       3.260   5.425  18.661  0.00  0.00    +0.000 A 
ATOM     14  C   UNL     1       4.408   5.578  17.790  0.00  0.00    +0.000 A 
ATOM     15  C   UNL     1       5.162   6.773  17.653  0.00  0.00    +0.000 A 
ATOM     16  H   UNL     1       2.496   1.205  17.415  0.00  0.00    +0.000 HD
ENDROOT
BRANCH   1  18
ATOM     17  C   UNL     1       8.004   8.206  17.831  0.00  0.00    +0.000 C 
ATOM     18  O   UNL     1       6.924   8.101  16.912  0.00  0.00    +0.000 OA
ENDBRANCH   1  18
BRANCH  13  19
ATOM     19  N   UNL     1       2.704   6.440  19.440  0.00  0.00    +0.000 N 
ATOM     20  H   UNL     1       3.314   6.770  20.178  0.00  0.00    +0.000 HD
BRANCH  19  21
ATOM     21  C   UNL     1       1.892   7.532  18.919  0.00  0.00    +0.000 C 
BRANCH  21  22
ATOM     22  C   UNL     1       1.533   8.505  20.025  0.00  0.00    +0.000 A 
ATOM     23  C   UNL     1       1.100   9.796  19.706  0.00  0.00    +0.000 A 
ATOM     24  C   UNL     1       0.700  10.643  20.731  0.00  0.00    +0.000 A 
ATOM     25  N   UNL     1       0.692  10.299  22.036  0.00  0.00    +0.000 NA
ATOM     26  C   UNL     1       1.104   9.050  22.330  0.00  0.00    +0.000 A 
ATOM     27  C   UNL     1       1.530   8.135  21.379  0.00  0.00    +0.000 A 
ENDBRANCH  21  22
ENDBRANCH  19  21
ENDBRANCH  13  19
TORSDOF 4
ENDMDL
MODEL 5
REMARK VINA RESULT:      -8.0      2.865      5.162
REMARK  Name = 
REMARK  7 active torsions:
REMARK  status: ('A' for Active; 'I' for Inactive)
REMARK    1  A    between atoms: C_1  and  O_2
REMARK    2  A    between atoms: O_2  and  C_3
REMARK    3  A    between atoms: C_5  and  C_6
REMARK    4  A    between atoms: C_12  and  C_13
REMARK    5  A    between atoms: C_15  and  N_16
REMARK    6  A    between atoms: N_16  and  C_17
REMARK    7  A    between atoms: C_17  and  C_18
REMARK                            x       y       z     vdW  Elec       q    Type
REMARK                         _______ _______ _______ _____ _____    ______ ____
ROOT
ATOM      1  C   UNL     1       5.649   3.395  12.568  0.00  0.00    +0.000 A 
ATOM      2  C   UNL     1       6.689   4.220  12.190  0.00  0.00    +0.000 A 
ATOM      3  C   UNL     1       7.357   4.987  13.155  0.00  0.00    +0.000 A 
ATOM      4  C   UNL     1       8.511   5.846  12.698  0.00  0.00    +0.000 C 
ATOM      5  C   UNL     1       6.977   4.967  14.504  0.00  0.00    +0.000 A 
ATOM      6  N   UNL     1       7.673   5.755  15.329  0.00  0.00    +0.000 NA
ATOM      7  C   UNL     1       7.296   5.708  16.609  0.00  0.00    +0.000 A 
ATOM      8  N   UNL     1       7.875   6.424  17.616  0.00  0.00    +0.000 N 
ATOM      9  N   UNL     1       7.316   6.219  18.815  0.00  0.00    +0.000 NA
ATOM     10  C   UNL     1       6.347   5.325  18.564  0.00  0.00    +0.000 A 
ATOM     11  C   UNL     1       5.493   4.873  19.692  0.00  0.00    +0.000 C 
ATOM     12  C   UNL     1       6.290   4.955  17.178  0.00  0.00    +0.000 A 
ATOM     13  C   UNL     1       5.533   4.103  16.326  0.00  0.00    +0.000 A 
ATOM     14  C   UNL     1       5.911   4.124  14.928  0.00  0.00    +0.000 A 
ATOM     15  C   UNL     1       5.307   3.330  13.918  0.00  0.00    +0.000 A 
ATOM     16  H   UNL     1       8.652   7.066  17.526  0.00  0.00    +0.000 HD
ENDROOT
BRANCH   1  18
ATOM     17  C   UNL     1       3.938   3.272  10.931  0.00  0.00    +0.000 C 
ATOM     18  O   UNL     1       4.897   2.608  11.744  0.00  0.00    +0.000 OA
ENDBRANCH   1  18
BRANCH  13  19
ATOM     19  N   UNL     1       4.567   3.265  16.883  0.00  0.00    +0.000 N 
ATOM     20  H   UNL     1       4.808   2.920  17.805  0.00  0.00    +0.000 HD
BRANCH  19  21
ATOM     21  C   UNL     1       3.129   3.471  16.772  0.00  0.00    +0.000 C 
BRANCH  21  22
ATOM     22  C   UNL     1       2.601   4.214  17.984  0.00  0.00    +0.000 A 
ATOM     23  C   UNL     1       2.177   3.502  19.109  0.00  0.00    +0.000 A 
ATOM     24  C   UNL     1       1.772   4.204  20.237  0.00  0.00    +0.000 A 
ATOM     25  N   UNL     1       1.767   5.551  20.326  0.00  0.00    +0.000 NA
ATOM     26  C   UNL     1       2.184   6.226  19.237  0.00  0.00    +0.000 A 
ATOM     27  C   UNL     1       2.599   5.615  18.063  0.00  0.00    +0.000 A 
ENDBRANCH  21  22
ENDBRANCH  19  21
ENDBRANCH  13  19
TORSDOF 4
ENDMDL
MODEL 6
REMARK VINA RESULT:      -8.0      2.268      5.997
REMARK  Name = 
REMARK  7 active torsions:
REMARK  status: ('A' for Active; 'I' for Inactive)
REMARK    1  A    between atoms: C_1  and  O_2
REMARK    2  A    between atoms: O_2  and  C_3
REMARK    3  A    between atoms: C_5  and  C_6
REMARK    4  A    between atoms: C_12  and  C_13
REMARK    5  A    between atoms: C_15  and  N_16
REMARK    6  A    between atoms: N_16  and  C_17
REMARK    7  A    between atoms: C_17  and  C_18
REMARK                            x       y       z     vdW  Elec       q    Type
REMARK                         _______ _______ _______ _____ _____    ______ ____
ROOT
ATOM      1  C   UNL     1       1.329  10.220  18.967  0.00  0.00    +0.000 A 
ATOM      2  C   UNL     1       0.750  10.116  20.215  0.00  0.00    +0.000 A 
ATOM      3  C   UNL     1       0.820   8.904  20.917  0.00  0.00    +0.000 A 
ATOM      4  C   UNL     1       0.205   8.851  22.295  0.00  0.00    +0.000 C 
ATOM      5  C   UNL     1       1.438   7.771  20.371  0.00  0.00    +0.000 A 
ATOM      6  N   UNL     1       1.425   6.666  21.123  0.00  0.00    +0.000 NA
ATOM      7  C   UNL     1       2.030   5.606  20.582  0.00  0.00    +0.000 A 
ATOM      8  N   UNL     1       2.139   4.384  21.181  0.00  0.00    +0.000 N 
ATOM      9  N   UNL     1       2.778   3.474  20.437  0.00  0.00    +0.000 NA
ATOM     10  C   UNL     1       3.102   4.146  19.322  0.00  0.00    +0.000 A 
ATOM     11  C   UNL     1       3.823   3.422  18.245  0.00  0.00    +0.000 C 
ATOM     12  C   UNL     1       2.660   5.511  19.358  0.00  0.00    +0.000 A 
ATOM     13  C   UNL     1       2.693   6.671  18.536  0.00  0.00    +0.000 A 
ATOM     14  C   UNL     1       2.048   7.846  19.087  0.00  0.00    +0.000 A 
ATOM     15  C   UNL     1       1.994   9.111  18.445  0.00  0.00    +0.000 A 
ATOM     16  H   UNL     1       1.787   4.131  22.096  0.00  0.00    +0.000 HD
ENDROOT
BRANCH   1  18
ATOM     17  C   UNL     1       1.952  12.490  18.676  0.00  0.00    +0.000 C 
ATOM     18  O   UNL     1       1.326  11.322  18.160  0.00  0.00    +0.000 OA
ENDBRANCH   1  18
BRANCH  13  19
ATOM     19  N   UNL     1       3.396   6.633  17.332  0.00  0.00    +0.000 N 
ATOM     20  H   UNL     1       2.813   6.760  16.514  0.00  0.00    +0.000 HD
BRANCH  19  21
ATOM     21  C   UNL     1       4.710   7.228  17.121  0.00  0.00    +0.000 C 
BRANCH  21  22
ATOM     22  C   UNL     1       5.776   6.152  17.042  0.00  0.00    +0.000 A 
ATOM     23  C   UNL     1       6.002   5.480  15.838  0.00  0.00    +0.000 A 
ATOM     24  C   UNL     1       7.037   4.557  15.767  0.00  0.00    +0.000 A 
ATOM     25  N   UNL     1       7.859   4.263  16.796  0.00  0.00    +0.000 NA
ATOM     26  C   UNL     1       7.636   4.923  17.949  0.00  0.00    +0.000 A 
ATOM     27  C   UNL     1       6.624   5.856  18.120  0.00  0.00    +0.000 A 
ENDBRANCH  21  22
ENDBRANCH  19  21
ENDBRANCH  13  19
TORSDOF 4
ENDMDL
MODEL 7
REMARK VINA RESULT:      -7.7      2.127      5.805
REMARK  Name = 
REMARK  7 active torsions:
REMARK  status: ('A' for Active; 'I' for Inactive)
REMARK    1  A    between atoms: C_1  and  O_2
REMARK    2  A    between atoms: O_2  and  C_3
REMARK    3  A    between atoms: C_5  and  C_6
REMARK    4  A    between atoms: C_12  and  C_13
REMARK    5  A    between atoms: C_15  and  N_16
REMARK    6  A    between atoms: N_16  and  C_17
REMARK    7  A    between atoms: C_17  and  C_18
REMARK                            x       y       z     vdW  Elec       q    Type
REMARK                         _______ _______ _______ _____ _____    ______ ____
ROOT
ATOM      1  C   UNL     1       2.021   9.108  18.402  0.00  0.00    +0.000 A 
ATOM      2  C   UNL     1       1.343   9.280  19.591  0.00  0.00    +0.000 A 
ATOM      3  C   UNL     1       1.238   8.212  20.494  0.00  0.00    +0.000 A 
ATOM      4  C   UNL     1       0.519   8.459  21.798  0.00  0.00    +0.000 C 
ATOM      5  C   UNL     1       1.778   6.950  20.208  0.00  0.00    +0.000 A 
ATOM      6  N   UNL     1       1.599   6.003  21.134  0.00  0.00    +0.000 NA
ATOM      7  C   UNL     1       2.132   4.816  20.840  0.00  0.00    +0.000 A 
ATOM      8  N   UNL     1       2.073   3.716  21.646  0.00  0.00    +0.000 N 
ATOM      9  N   UNL     1       2.672   2.635  21.131  0.00  0.00    +0.000 NA
ATOM     10  C   UNL     1       3.144   3.067  19.951  0.00  0.00    +0.000 A 
ATOM     11  C   UNL     1       3.867   2.102  19.084  0.00  0.00    +0.000 C 
ATOM     12  C   UNL     1       2.839   4.450  19.713  0.00  0.00    +0.000 A 
ATOM     13  C   UNL     1       3.050   5.437  18.711  0.00  0.00    +0.000 A 
ATOM     14  C   UNL     1       2.487   6.741  18.992  0.00  0.00    +0.000 A 
ATOM     15  C   UNL     1       2.608   7.871  18.141  0.00  0.00    +0.000 A 
ATOM     16  H   UNL     1       1.630   3.661  22.555  0.00  0.00    +0.000 HD
ENDROOT
BRANCH   1  18
ATOM     17  C   UNL     1       2.281  11.399  17.844  0.00  0.00    +0.000 C 
ATOM     18  O   UNL     1       2.189  10.045  17.421  0.00  0.00    +0.000 OA
ENDBRANCH   1  18
BRANCH  13  19
ATOM     19  N   UNL     1       3.834   5.124  17.600  0.00  0.00    +0.000 N 
ATOM     20  H   UNL     1       3.467   5.482  16.727  0.00  0.00    +0.000 HD
BRANCH  19  21
ATOM     21  C   UNL     1       5.291   5.133  17.586  0.00  0.00    +0.000 C 
BRANCH  21  22
ATOM     22  C   UNL     1       5.813   4.820  16.197  0.00  0.00    +0.000 A 
ATOM     23  C   UNL     1       4.989   4.176  15.270  0.00  0.00    +0.000 A 
ATOM     24  C   UNL     1       5.460   3.972  13.980  0.00  0.00    +0.000 A 
ATOM     25  N   UNL     1       6.676   4.365  13.548  0.00  0.00    +0.000 NA
ATOM     26  C   UNL     1       7.459   4.992  14.449  0.00  0.00    +0.000 A 
ATOM     27  C   UNL     1       7.081   5.234  15.761  0.00  0.00    +0.000 A 
ENDBRANCH  21  22
ENDBRANCH  19  21
ENDBRANCH  13  19
TORSDOF 4
ENDMDL
MODEL 8
REMARK VINA RESULT:      -7.7      1.981      5.520
REMARK  Name = 
REMARK  7 active torsions:
REMARK  status: ('A' for Active; 'I' for Inactive)
REMARK    1  A    between atoms: C_1  and  O_2
REMARK    2  A    between atoms: O_2  and  C_3
REMARK    3  A    between atoms: C_5  and  C_6
REMARK    4  A    between atoms: C_12  and  C_13
REMARK    5  A    between atoms: C_15  and  N_16
REMARK    6  A    between atoms: N_16  and  C_17
REMARK    7  A    between atoms: C_17  and  C_18
REMARK                            x       y       z     vdW  Elec       q    Type
REMARK                         _______ _______ _______ _____ _____    ______ ____
ROOT
ATOM      1  C   UNL     1       2.069   8.864  18.349  0.00  0.00    +0.000 A 
ATOM      2  C   UNL     1       1.633   9.127  19.632  0.00  0.00    +0.000 A 
ATOM      3  C   UNL     1       1.488   8.076  20.548  0.00  0.00    +0.000 A 
ATOM      4  C   UNL     1       1.044   8.419  21.950  0.00  0.00    +0.000 C 
ATOM      5  C   UNL     1       1.741   6.746  20.189  0.00  0.00    +0.000 A 
ATOM      6  N   UNL     1       1.548   5.826  21.140  0.00  0.00    +0.000 NA
ATOM      7  C   UNL     1       1.807   4.569  20.773  0.00  0.00    +0.000 A 
ATOM      8  N   UNL     1       1.684   3.481  21.587  0.00  0.00    +0.000 N 
ATOM      9  N   UNL     1       1.990   2.322  20.990  0.00  0.00    +0.000 NA
ATOM     10  C   UNL     1       2.335   2.688  19.746  0.00  0.00    +0.000 A 
ATOM     11  C   UNL     1       2.725   1.629  18.781  0.00  0.00    +0.000 C 
ATOM     12  C   UNL     1       2.246   4.107  19.549  0.00  0.00    +0.000 A 
ATOM     13  C   UNL     1       2.465   5.062  18.518  0.00  0.00    +0.000 A 
ATOM     14  C   UNL     1       2.195   6.440  18.875  0.00  0.00    +0.000 A 
ATOM     15  C   UNL     1       2.376   7.548  18.006  0.00  0.00    +0.000 A 
ATOM     16  H   UNL     1       1.391   3.486  22.556  0.00  0.00    +0.000 HD
ENDROOT
BRANCH   1  18
ATOM     17  C   UNL     1       2.293  11.143  17.733  0.00  0.00    +0.000 C 
ATOM     18  O   UNL     1       2.240   9.776  17.347  0.00  0.00    +0.000 OA
ENDBRANCH   1  18
BRANCH  13  19
ATOM     19  N   UNL     1       2.990   4.639  17.297  0.00  0.00    +0.000 N 
ATOM     20  H   UNL     1       2.992   5.356  16.581  0.00  0.00    +0.000 HD
BRANCH  19  21
ATOM     21  C   UNL     1       4.149   3.768  17.152  0.00  0.00    +0.000 C 
BRANCH  21  22
ATOM     22  C   UNL     1       5.314   4.526  16.546  0.00  0.00    +0.000 A 
ATOM     23  C   UNL     1       5.942   5.540  17.274  0.00  0.00    +0.000 A 
ATOM     24  C   UNL     1       7.057   6.166  16.733  0.00  0.00    +0.000 A 
ATOM     25  N   UNL     1       7.591   5.852  15.534  0.00  0.00    +0.000 NA
ATOM     26  C   UNL     1       6.982   4.868  14.844  0.00  0.00    +0.000 A 
ATOM     27  C   UNL     1       5.860   4.191  15.297  0.00  0.00    +0.000 A 
ENDBRANCH  21  22
ENDBRANCH  19  21
ENDBRANCH  13  19
TORSDOF 4
ENDMDL
MODEL 9
REMARK VINA RESULT:      -7.5      2.651      6.685
REMARK  Name = 
REMARK  7 active torsions:
REMARK  status: ('A' for Active; 'I' for Inactive)
REMARK    1  A    between atoms: C_1  and  O_2
REMARK    2  A    between atoms: O_2  and  C_3
REMARK    3  A    between atoms: C_5  and  C_6
REMARK    4  A    between atoms: C_12  and  C_13
REMARK    5  A    between atoms: C_15  and  N_16
REMARK    6  A    between atoms: N_16  and  C_17
REMARK    7  A    between atoms: C_17  and  C_18
REMARK                            x       y       z     vdW  Elec       q    Type
REMARK                         _______ _______ _______ _____ _____    ______ ____
ROOT
ATOM      1  C   UNL     1       0.010   9.106  21.538  0.00  0.00    +0.000 A 
ATOM      2  C   UNL     1      -0.103  10.089  20.576  0.00  0.00    +0.000 A 
ATOM      3  C   UNL     1       0.642   9.993  19.392  0.00  0.00    +0.000 A 
ATOM      4  C   UNL     1       0.458  11.073  18.353  0.00  0.00    +0.000 C 
ATOM      5  C   UNL     1       1.534   8.936  19.166  0.00  0.00    +0.000 A 
ATOM      6  N   UNL     1       2.205   8.960  18.010  0.00  0.00    +0.000 NA
ATOM      7  C   UNL     1       3.038   7.936  17.817  0.00  0.00    +0.000 A 
ATOM      8  N   UNL     1       3.812   7.761  16.707  0.00  0.00    +0.000 N 
ATOM      9  N   UNL     1       4.576   6.663  16.747  0.00  0.00    +0.000 NA
ATOM     10  C   UNL     1       4.268   6.106  17.929  0.00  0.00    +0.000 A 
ATOM     11  C   UNL     1       4.959   4.851  18.320  0.00  0.00    +0.000 C 
ATOM     12  C   UNL     1       3.288   6.866  18.653  0.00  0.00    +0.000 A 
ATOM     13  C   UNL     1       2.586   6.809  19.888  0.00  0.00    +0.000 A 
ATOM     14  C   UNL     1       1.670   7.904  20.137  0.00  0.00    +0.000 A 
ATOM     15  C   UNL     1       0.852   8.024  21.291  0.00  0.00    +0.000 A 
ATOM     16  H   UNL     1       3.849   8.372  15.900  0.00  0.00    +0.000 HD
ENDROOT
BRANCH   1  18
ATOM     17  C   UNL     1      -1.075  10.321  23.263  0.00  0.00    +0.000 C 
ATOM     18  O   UNL     1      -0.634   9.073  22.742  0.00  0.00    +0.000 OA
ENDBRANCH   1  18
BRANCH  13  19
ATOM     19  N   UNL     1       2.751   5.698  20.716  0.00  0.00    +0.000 N 
ATOM     20  H   UNL     1       3.111   5.924  21.636  0.00  0.00    +0.000 HD
BRANCH  19  21
ATOM     21  C   UNL     1       1.826   4.575  20.788  0.00  0.00    +0.000 C 
BRANCH  21  22
ATOM     22  C   UNL     1       2.325   3.416  19.948  0.00  0.00    +0.000 A 
ATOM     23  C   UNL     1       1.759   3.168  18.694  0.00  0.00    +0.000 A 
ATOM     24  C   UNL     1       2.286   2.152  17.908  0.00  0.00    +0.000 A 
ATOM     25  N   UNL     1       3.330   1.379  18.273  0.00  0.00    +0.000 NA
ATOM     26  C   UNL     1       3.872   1.632  19.480  0.00  0.00    +0.000 A 
ATOM     27  C   UNL     1       3.411   2.618  20.339  0.00  0.00    +0.000 A 
ENDBRANCH  21  22
ENDBRANCH  19  21
ENDBRANCH  13  19
TORSDOF 4
ENDMDL
