MODEL 1
REMARK VINA RESULT:      -7.6      0.000      0.000
REMARK  Name = 
REMARK  4 active torsions:
REMARK  status: ('A' for Active; 'I' for Inactive)
REMARK    1  A    between atoms: C_1  and  C_2
REMARK    2  A    between atoms: C_7  and  N_8
REMARK    3  A    between atoms: N_8  and  C_9
REMARK    4  A    between atoms: N_12  and  C_13
REMARK                            x       y       z     vdW  Elec       q    Type
REMARK                         _______ _______ _______ _____ _____    ______ ____
ROOT
ATOM      1  C   UNL     1       5.494   5.300  17.814  0.00  0.00    +0.000 A 
ATOM      2  N   UNL     1       5.083   4.997  16.561  0.00  0.00    +0.000 NA
ATOM      3  C   UNL     1       5.983   4.595  15.656  0.00  0.00    +0.000 A 
ATOM      4  N   UNL     1       5.470   4.377  14.378  0.00  0.00    +0.000 N 
ATOM      5  N   UNL     1       7.286   4.454  15.926  0.00  0.00    +0.000 NA
ATOM      6  C   UNL     1       7.673   4.733  17.191  0.00  0.00    +0.000 A 
ATOM      7  C   UNL     1       6.816   5.138  18.191  0.00  0.00    +0.000 A 
ATOM      8 CL   UNL     1       7.410   5.496  19.762  0.00  0.00    +0.000 Cl
ATOM      9  H   UNL     1       4.460   4.364  14.463  0.00  0.00    +0.000 HD
ENDROOT
BRANCH   4  10
ATOM     10  C   UNL     1       6.145   3.510  13.428  0.00  0.00    +0.000 C 
ATOM     11  C   UNL     1       5.574   3.232  12.068  0.00  0.00    +0.000 C 
ATOM     12  C   UNL     1       6.784   4.108  12.204  0.00  0.00    +0.000 C 
ENDBRANCH   4  10
BRANCH   1  13
ATOM     13  N   UNL     1       4.544   5.861  18.707  0.00  0.00    +0.000 N 
ATOM     14  H   UNL     1       4.919   6.664  19.194  0.00  0.00    +0.000 HD
BRANCH  13  21
ATOM     15  C   UNL     1       2.087   7.179  19.799  0.00  0.00    +0.000 C 
ATOM     16  C   UNL     1       2.393   5.714  19.932  0.00  0.00    +0.000 A 
ATOM     17  C   UNL     1       1.479   4.912  20.647  0.00  0.00    +0.000 A 
ATOM     18  C   UNL     1       1.676   3.537  20.786  0.00  0.00    +0.000 A 
ATOM     19  C   UNL     1       2.774   2.937  20.198  0.00  0.00    +0.000 A 
ATOM     20  C   UNL     1       3.694   3.723  19.506  0.00  0.00    +0.000 A 
ATOM     21  C   UNL     1       3.557   5.123  19.404  0.00  0.00    +0.000 A 
ENDBRANCH  13  21
ENDBRANCH   1  13
TORSDOF 3
ENDMDL
MODEL 2
REMARK VINA RESULT:      -7.5      1.043      1.053
REMARK  Name = 
REMARK  4 active torsions:
REMARK  status: ('A' for Active; 'I' for Inactive)
REMARK    1  A    between atoms: C_1  and  C_2
REMARK    2  A    between atoms: C_7  and  N_8
REMARK    3  A    between atoms: N_8  and  C_9
REMARK    4  A    between atoms: N_12  and  C_13
REMARK                            x       y       z     vdW  Elec       q    Type
REMARK                         _______ _______ _______ _____ _____    ______ ____
ROOT
ATOM      1  C   UNL     1       4.781   5.060  17.247  0.00  0.00    +0.000 A 
ATOM      2  N   UNL     1       4.648   4.757  15.936  0.00  0.00    +0.000 NA
ATOM      3  C   UNL     1       5.734   4.435  15.224  0.00  0.00    +0.000 A 
ATOM      4  N   UNL     1       5.500   4.211  13.868  0.00  0.00    +0.000 N 
ATOM      5  N   UNL     1       6.965   4.374  15.746  0.00  0.00    +0.000 NA
ATOM      6  C   UNL     1       7.074   4.651  17.065  0.00  0.00    +0.000 A 
ATOM      7  C   UNL     1       6.010   4.977  17.878  0.00  0.00    +0.000 A 
ATOM      8 CL   UNL     1       6.256   5.339  19.538  0.00  0.00    +0.000 Cl
ATOM      9  H   UNL     1       4.495   4.130  13.750  0.00  0.00    +0.000 HD
ENDROOT
BRANCH   4  10
ATOM     10  C   UNL     1       6.406   3.411  13.064  0.00  0.00    +0.000 C 
ATOM     11  C   UNL     1       5.957   2.740  11.798  0.00  0.00    +0.000 C 
ATOM     12  C   UNL     1       6.868   3.930  11.729  0.00  0.00    +0.000 C 
ENDBRANCH   4  10
BRANCH   1  13
ATOM     13  N   UNL     1       3.637   5.538  17.938  0.00  0.00    +0.000 N 
ATOM     14  H   UNL     1       3.808   6.439  18.365  0.00  0.00    +0.000 HD
BRANCH  13  21
ATOM     15  C   UNL     1       2.149   6.491  20.356  0.00  0.00    +0.000 C 
ATOM     16  C   UNL     1       1.975   5.135  19.734  0.00  0.00    +0.000 A 
ATOM     17  C   UNL     1       1.074   4.239  20.347  0.00  0.00    +0.000 A 
ATOM     18  C   UNL     1       0.832   2.974  19.810  0.00  0.00    +0.000 A 
ATOM     19  C   UNL     1       1.466   2.588  18.644  0.00  0.00    +0.000 A 
ATOM     20  C   UNL     1       2.373   3.459  18.040  0.00  0.00    +0.000 A 
ATOM     21  C   UNL     1       2.688   4.717  18.594  0.00  0.00    +0.000 A 
ENDBRANCH  13  21
ENDBRANCH   1  13
TORSDOF 3
ENDMDL
MODEL 3
REMARK VINA RESULT:      -7.5      1.117      2.030
REMARK  Name = 
REMARK  4 active torsions:
REMARK  status: ('A' for Active; 'I' for Inactive)
REMARK    1  A    between atoms: C_1  and  C_2
REMARK    2  A    between atoms: C_7  and  N_8
REMARK    3  A    between atoms: N_8  and  C_9
REMARK    4  A    between atoms: N_12  and  C_13
REMARK                            x       y       z     vdW  Elec       q    Type
REMARK                         _______ _______ _______ _____ _____    ______ ____
ROOT
ATOM      1  C   UNL     1       5.883   4.306  17.812  0.00  0.00    +0.000 A 
ATOM      2  N   UNL     1       5.366   3.870  16.641  0.00  0.00    +0.000 NA
ATOM      3  C   UNL     1       5.783   4.420  15.495  0.00  0.00    +0.000 A 
ATOM      4  N   UNL     1       5.137   3.952  14.351  0.00  0.00    +0.000 N 
ATOM      5  N   UNL     1       6.712   5.382  15.435  0.00  0.00    +0.000 NA
ATOM      6  C   UNL     1       7.239   5.784  16.613  0.00  0.00    +0.000 A 
ATOM      7  C   UNL     1       6.882   5.264  17.839  0.00  0.00    +0.000 A 
ATOM      8 CL   UNL     1       7.590   5.862  19.284  0.00  0.00    +0.000 Cl
ATOM      9  H   UNL     1       4.626   3.118  14.621  0.00  0.00    +0.000 HD
ENDROOT
BRANCH   4  10
ATOM     10  C   UNL     1       5.751   4.052  13.039  0.00  0.00    +0.000 C 
ATOM     11  C   UNL     1       6.244   2.840  12.303  0.00  0.00    +0.000 C 
ATOM     12  C   UNL     1       5.006   3.546  11.833  0.00  0.00    +0.000 C 
ENDBRANCH   4  10
BRANCH   1  13
ATOM     13  N   UNL     1       5.317   3.808  19.014  0.00  0.00    +0.000 N 
ATOM     14  H   UNL     1       5.827   3.007  19.363  0.00  0.00    +0.000 HD
BRANCH  13  21
ATOM     15  C   UNL     1       3.535   1.447  18.547  0.00  0.00    +0.000 C 
ATOM     16  C   UNL     1       3.074   2.755  19.125  0.00  0.00    +0.000 A 
ATOM     17  C   UNL     1       1.706   2.892  19.438  0.00  0.00    +0.000 A 
ATOM     18  C   UNL     1       1.208   4.065  20.009  0.00  0.00    +0.000 A 
ATOM     19  C   UNL     1       2.066   5.110  20.295  0.00  0.00    +0.000 A 
ATOM     20  C   UNL     1       3.417   4.992  19.972  0.00  0.00    +0.000 A 
ATOM     21  C   UNL     1       3.939   3.847  19.335  0.00  0.00    +0.000 A 
ENDBRANCH  13  21
ENDBRANCH   1  13
TORSDOF 3
ENDMDL
MODEL 4
REMARK VINA RESULT:      -7.5      2.710      4.501
REMARK  Name = 
REMARK  4 active torsions:
REMARK  status: ('A' for Active; 'I' for Inactive)
REMARK    1  A    between atoms: C_1  and  C_2
REMARK    2  A    between atoms: C_7  and  N_8
REMARK    3  A    between atoms: N_8  and  C_9
REMARK    4  A    between atoms: N_12  and  C_13
REMARK                            x       y       z     vdW  Elec       q    Type
REMARK                         _______ _______ _______ _____ _____    ______ ____
ROOT
ATOM      1  C   UNL     1       5.989   4.776  18.219  0.00  0.00    +0.000 A 
ATOM      2  N   UNL     1       6.753   5.718  18.817  0.00  0.00    +0.000 NA
ATOM      3  C   UNL     1       7.497   6.534  18.062  0.00  0.00    +0.000 A 
ATOM      4  N   UNL     1       8.302   7.421  18.777  0.00  0.00    +0.000 N 
ATOM      5  N   UNL     1       7.517   6.486  16.725  0.00  0.00    +0.000 NA
ATOM      6  C   UNL     1       6.724   5.558  16.143  0.00  0.00    +0.000 A 
ATOM      7  C   UNL     1       5.914   4.687  16.839  0.00  0.00    +0.000 A 
ATOM      8 CL   UNL     1       4.963   3.523  16.009  0.00  0.00    +0.000 Cl
ATOM      9  H   UNL     1       7.983   7.400  19.739  0.00  0.00    +0.000 HD
ENDROOT
BRANCH   4  10
ATOM     10  C   UNL     1       8.784   8.655  18.183  0.00  0.00    +0.000 C 
ATOM     11  C   UNL     1       7.906   9.866  18.054  0.00  0.00    +0.000 C 
ATOM     12  C   UNL     1       9.020   9.856  19.059  0.00  0.00    +0.000 C 
ENDBRANCH   4  10
BRANCH   1  13
ATOM     13  N   UNL     1       5.326   3.834  19.047  0.00  0.00    +0.000 N 
ATOM     14  H   UNL     1       5.742   2.915  18.975  0.00  0.00    +0.000 HD
BRANCH  13  21
ATOM     15  C   UNL     1       3.566   1.462  18.552  0.00  0.00    +0.000 C 
ATOM     16  C   UNL     1       3.090   2.764  19.132  0.00  0.00    +0.000 A 
ATOM     17  C   UNL     1       1.718   2.888  19.433  0.00  0.00    +0.000 A 
ATOM     18  C   UNL     1       1.205   4.053  20.005  0.00  0.00    +0.000 A 
ATOM     19  C   UNL     1       2.052   5.104  20.305  0.00  0.00    +0.000 A 
ATOM     20  C   UNL     1       3.407   4.998  19.994  0.00  0.00    +0.000 A 
ATOM     21  C   UNL     1       3.944   3.860  19.356  0.00  0.00    +0.000 A 
ENDBRANCH  13  21
ENDBRANCH   1  13
TORSDOF 3
ENDMDL
MODEL 5
REMARK VINA RESULT:      -7.4      1.084      1.192
REMARK  Name = 
REMARK  4 active torsions:
REMARK  status: ('A' for Active; 'I' for Inactive)
REMARK    1  A    between atoms: C_1  and  C_2
REMARK    2  A    between atoms: C_7  and  N_8
REMARK    3  A    between atoms: N_8  and  C_9
REMARK    4  A    between atoms: N_12  and  C_13
REMARK                            x       y       z     vdW  Elec       q    Type
REMARK                         _______ _______ _______ _____ _____    ______ ____
ROOT
ATOM      1  C   UNL     1       5.133   4.960  17.673  0.00  0.00    +0.000 A 
ATOM      2  N   UNL     1       4.848   4.630  16.393  0.00  0.00    +0.000 NA
ATOM      3  C   UNL     1       5.849   4.428  15.530  0.00  0.00    +0.000 A 
ATOM      4  N   UNL     1       5.449   4.164  14.220  0.00  0.00    +0.000 N 
ATOM      5  N   UNL     1       7.142   4.515  15.867  0.00  0.00    +0.000 NA
ATOM      6  C   UNL     1       7.408   4.816  17.158  0.00  0.00    +0.000 A 
ATOM      7  C   UNL     1       6.442   5.026  18.119  0.00  0.00    +0.000 A 
ATOM      8 CL   UNL     1       6.882   5.432  19.728  0.00  0.00    +0.000 Cl
ATOM      9  H   UNL     1       4.455   3.967  14.249  0.00  0.00    +0.000 HD
ENDROOT
BRANCH   4  10
ATOM     10  C   UNL     1       6.316   3.465  13.289  0.00  0.00    +0.000 C 
ATOM     11  C   UNL     1       5.835   3.032  11.934  0.00  0.00    +0.000 C 
ATOM     12  C   UNL     1       6.800   4.175  12.052  0.00  0.00    +0.000 C 
ENDBRANCH   4  10
BRANCH   1  13
ATOM     13  N   UNL     1       4.054   5.310  18.526  0.00  0.00    +0.000 N 
ATOM     14  H   UNL     1       4.243   6.162  19.037  0.00  0.00    +0.000 HD
BRANCH  13  21
ATOM     15  C   UNL     1       1.349   4.647  17.425  0.00  0.00    +0.000 C 
ATOM     16  C   UNL     1       1.922   4.053  18.681  0.00  0.00    +0.000 A 
ATOM     17  C   UNL     1       1.120   3.147  19.406  0.00  0.00    +0.000 A 
ATOM     18  C   UNL     1       1.595   2.528  20.564  0.00  0.00    +0.000 A 
ATOM     19  C   UNL     1       2.879   2.784  21.005  0.00  0.00    +0.000 A 
ATOM     20  C   UNL     1       3.673   3.692  20.306  0.00  0.00    +0.000 A 
ATOM     21  C   UNL     1       3.200   4.383  19.170  0.00  0.00    +0.000 A 
ENDBRANCH  13  21
ENDBRANCH   1  13
TORSDOF 3
ENDMDL
MODEL 6
REMARK VINA RESULT:      -7.3      2.394      6.782
REMARK  Name = 
REMARK  4 active torsions:
REMARK  status: ('A' for Active; 'I' for Inactive)
REMARK    1  A    between atoms: C_1  and  C_2
REMARK    2  A    between atoms: C_7  and  N_8
REMARK    3  A    between atoms: N_8  and  C_9
REMARK    4  A    between atoms: N_12  and  C_13
REMARK                            x       y       z     vdW  Elec       q    Type
REMARK                         _______ _______ _______ _____ _____    ______ ____
ROOT
ATOM      1  C   UNL     1       3.951   4.209  19.331  0.00  0.00    +0.000 A 
ATOM      2  N   UNL     1       3.710   5.491  19.686  0.00  0.00    +0.000 NA
ATOM      3  C   UNL     1       2.466   5.857  20.014  0.00  0.00    +0.000 A 
ATOM      4  N   UNL     1       2.309   7.215  20.294  0.00  0.00    +0.000 N 
ATOM      5  N   UNL     1       1.429   5.011  20.032  0.00  0.00    +0.000 NA
ATOM      6  C   UNL     1       1.695   3.726  19.704  0.00  0.00    +0.000 A 
ATOM      7  C   UNL     1       2.946   3.257  19.367  0.00  0.00    +0.000 A 
ATOM      8 CL   UNL     1       3.177   1.611  18.937  0.00  0.00    +0.000 Cl
ATOM      9  H   UNL     1       3.240   7.604  20.398  0.00  0.00    +0.000 HD
ENDROOT
BRANCH   4  10
ATOM     10  C   UNL     1       1.208   7.699  21.107  0.00  0.00    +0.000 C 
ATOM     11  C   UNL     1       1.356   8.891  22.008  0.00  0.00    +0.000 C 
ATOM     12  C   UNL     1       0.543   9.002  20.752  0.00  0.00    +0.000 C 
ENDBRANCH   4  10
BRANCH   1  13
ATOM     13  N   UNL     1       5.245   3.885  18.848  0.00  0.00    +0.000 N 
ATOM     14  H   UNL     1       5.917   3.810  19.601  0.00  0.00    +0.000 HD
BRANCH  13  21
ATOM     15  C   UNL     1       7.665   5.640  18.660  0.00  0.00    +0.000 C 
ATOM     16  C   UNL     1       6.900   5.121  17.476  0.00  0.00    +0.000 A 
ATOM     17  C   UNL     1       7.330   5.513  16.190  0.00  0.00    +0.000 A 
ATOM     18  C   UNL     1       6.692   5.047  15.040  0.00  0.00    +0.000 A 
ATOM     19  C   UNL     1       5.631   4.168  15.150  0.00  0.00    +0.000 A 
ATOM     20  C   UNL     1       5.185   3.790  16.415  0.00  0.00    +0.000 A 
ATOM     21  C   UNL     1       5.767   4.295  17.597  0.00  0.00    +0.000 A 
ENDBRANCH  13  21
ENDBRANCH   1  13
TORSDOF 3
ENDMDL
MODEL 7
REMARK VINA RESULT:      -7.2      1.296      1.949
REMARK  Name = 
REMARK  4 active torsions:
REMARK  status: ('A' for Active; 'I' for Inactive)
REMARK    1  A    between atoms: C_1  and  C_2
REMARK    2  A    between atoms: C_7  and  N_8
REMARK    3  A    between atoms: N_8  and  C_9
REMARK    4  A    between atoms: N_12  and  C_13
REMARK                            x       y       z     vdW  Elec       q    Type
REMARK                         _______ _______ _______ _____ _____    ______ ____
ROOT
ATOM      1  C   UNL     1       5.326   4.753  17.705  0.00  0.00    +0.000 A 
ATOM      2  N   UNL     1       5.029   4.397  16.435  0.00  0.00    +0.000 NA
ATOM      3  C   UNL     1       6.003   4.361  15.519  0.00  0.00    +0.000 A 
ATOM      4  N   UNL     1       5.581   4.053  14.227  0.00  0.00    +0.000 N 
ATOM      5  N   UNL     1       7.282   4.644  15.794  0.00  0.00    +0.000 NA
ATOM      6  C   UNL     1       7.566   4.969  17.075  0.00  0.00    +0.000 A 
ATOM      7  C   UNL     1       6.631   5.016  18.087  0.00  0.00    +0.000 A 
ATOM      8 CL   UNL     1       7.086   5.468  19.679  0.00  0.00    +0.000 Cl
ATOM      9  H   UNL     1       4.632   3.703  14.301  0.00  0.00    +0.000 HD
ENDROOT
BRANCH   4  10
ATOM     10  C   UNL     1       6.496   3.506  13.240  0.00  0.00    +0.000 C 
ATOM     11  C   UNL     1       6.019   3.031  11.898  0.00  0.00    +0.000 C 
ATOM     12  C   UNL     1       6.811   4.302  12.002  0.00  0.00    +0.000 C 
ENDBRANCH   4  10
BRANCH   1  13
ATOM     13  N   UNL     1       4.252   4.923  18.617  0.00  0.00    +0.000 N 
ATOM     14  H   UNL     1       4.558   5.353  19.480  0.00  0.00    +0.000 HD
BRANCH  13  21
ATOM     15  C   UNL     1       4.408   2.357  20.153  0.00  0.00    +0.000 C 
ATOM     16  C   UNL     1       3.180   2.841  19.435  0.00  0.00    +0.000 A 
ATOM     17  C   UNL     1       2.035   2.018  19.459  0.00  0.00    +0.000 A 
ATOM     18  C   UNL     1       0.846   2.413  18.844  0.00  0.00    +0.000 A 
ATOM     19  C   UNL     1       0.772   3.642  18.215  0.00  0.00    +0.000 A 
ATOM     20  C   UNL     1       1.904   4.455  18.169  0.00  0.00    +0.000 A 
ATOM     21  C   UNL     1       3.138   4.055  18.724  0.00  0.00    +0.000 A 
ENDBRANCH  13  21
ENDBRANCH   1  13
TORSDOF 3
ENDMDL
MODEL 8
REMARK VINA RESULT:      -7.2      2.432      4.275
REMARK  Name = 
REMARK  4 active torsions:
REMARK  status: ('A' for Active; 'I' for Inactive)
REMARK    1  A    between atoms: C_1  and  C_2
REMARK    2  A    between atoms: C_7  and  N_8
REMARK    3  A    between atoms: N_8  and  C_9
REMARK    4  A    between atoms: N_12  and  C_13
REMARK                            x       y       z     vdW  Elec       q    Type
REMARK                         _______ _______ _______ _____ _____    ______ ____
ROOT
ATOM      1  C   UNL     1       2.990   5.627  19.321  0.00  0.00    +0.000 A 
ATOM      2  N   UNL     1       4.092   5.770  18.551  0.00  0.00    +0.000 NA
ATOM      3  C   UNL     1       4.571   4.711  17.890  0.00  0.00    +0.000 A 
ATOM      4  N   UNL     1       5.750   4.946  17.183  0.00  0.00    +0.000 N 
ATOM      5  N   UNL     1       4.004   3.499  17.930  0.00  0.00    +0.000 NA
ATOM      6  C   UNL     1       2.887   3.382  18.682  0.00  0.00    +0.000 A 
ATOM      7  C   UNL     1       2.314   4.421  19.384  0.00  0.00    +0.000 A 
ATOM      8 CL   UNL     1       0.907   4.164  20.333  0.00  0.00    +0.000 Cl
ATOM      9  H   UNL     1       5.879   5.952  17.148  0.00  0.00    +0.000 HD
ENDROOT
BRANCH   4  10
ATOM     10  C   UNL     1       6.141   4.111  16.061  0.00  0.00    +0.000 C 
ATOM     11  C   UNL     1       5.573   4.316  14.687  0.00  0.00    +0.000 C 
ATOM     12  C   UNL     1       6.998   4.692  14.968  0.00  0.00    +0.000 C 
ENDBRANCH   4  10
BRANCH   1  13
ATOM     13  N   UNL     1       2.592   6.728  20.123  0.00  0.00    +0.000 N 
ATOM     14  H   UNL     1       2.319   6.435  21.052  0.00  0.00    +0.000 HD
BRANCH  13  21
ATOM     15  C   UNL     1       1.060   8.551  21.939  0.00  0.00    +0.000 C 
ATOM     16  C   UNL     1       1.225   8.770  20.462  0.00  0.00    +0.000 A 
ATOM     17  C   UNL     1       0.589   9.890  19.886  0.00  0.00    +0.000 A 
ATOM     18  C   UNL     1       0.723  10.179  18.528  0.00  0.00    +0.000 A 
ATOM     19  C   UNL     1       1.506   9.371  17.725  0.00  0.00    +0.000 A 
ATOM     20  C   UNL     1       2.123   8.250  18.280  0.00  0.00    +0.000 A 
ATOM     21  C   UNL     1       1.955   7.895  19.635  0.00  0.00    +0.000 A 
ENDBRANCH  13  21
ENDBRANCH   1  13
TORSDOF 3
ENDMDL
MODEL 9
REMARK VINA RESULT:      -7.2      1.313      1.497
REMARK  Name = 
REMARK  4 active torsions:
REMARK  status: ('A' for Active; 'I' for Inactive)
REMARK    1  A    between atoms: C_1  and  C_2
REMARK    2  A    between atoms: C_7  and  N_8
REMARK    3  A    between atoms: N_8  and  C_9
REMARK    4  A    between atoms: N_12  and  C_13
REMARK                            x       y       z     vdW  Elec       q    Type
REMARK                         _______ _______ _______ _____ _____    ______ ____
ROOT
ATOM      1  C   UNL     1       6.039   4.261  17.300  0.00  0.00    +0.000 A 
ATOM      2  N   UNL     1       5.471   3.747  16.185  0.00  0.00    +0.000 NA
ATOM      3  C   UNL     1       5.862   4.193  14.986  0.00  0.00    +0.000 A 
ATOM      4  N   UNL     1       5.165   3.653  13.905  0.00  0.00    +0.000 N 
ATOM      5  N   UNL     1       6.812   5.121  14.819  0.00  0.00    +0.000 NA
ATOM      6  C   UNL     1       7.389   5.601  15.943  0.00  0.00    +0.000 A 
ATOM      7  C   UNL     1       7.061   5.190  17.217  0.00  0.00    +0.000 A 
ATOM      8 CL   UNL     1       7.834   5.882  18.586  0.00  0.00    +0.000 Cl
ATOM      9  H   UNL     1       4.643   2.858  14.257  0.00  0.00    +0.000 HD
ENDROOT
BRANCH   4  10
ATOM     10  C   UNL     1       5.736   3.631  12.570  0.00  0.00    +0.000 C 
ATOM     11  C   UNL     1       5.969   2.345  11.831  0.00  0.00    +0.000 C 
ATOM     12  C   UNL     1       4.865   3.265  11.398  0.00  0.00    +0.000 C 
ENDBRANCH   4  10
BRANCH   1  13
ATOM     13  N   UNL     1       5.503   3.876  18.556  0.00  0.00    +0.000 N 
ATOM     14  H   UNL     1       6.134   3.269  19.062  0.00  0.00    +0.000 HD
BRANCH  13  21
ATOM     15  C   UNL     1       3.583   6.175  18.545  0.00  0.00    +0.000 C 
ATOM     16  C   UNL     1       3.198   4.751  18.830  0.00  0.00    +0.000 A 
ATOM     17  C   UNL     1       1.849   4.483  19.144  0.00  0.00    +0.000 A 
ATOM     18  C   UNL     1       1.407   3.182  19.388  0.00  0.00    +0.000 A 
ATOM     19  C   UNL     1       2.295   2.126  19.303  0.00  0.00    +0.000 A 
ATOM     20  C   UNL     1       3.634   2.382  19.011  0.00  0.00    +0.000 A 
ATOM     21  C   UNL     1       4.125   3.691  18.824  0.00  0.00    +0.000 A 
ENDBRANCH  13  21
ENDBRANCH   1  13
TORSDOF 3
ENDMDL
