MODEL 1
REMARK VINA RESULT:      -7.8      0.000      0.000
REMARK  Name = 
REMARK  6 active torsions:
REMARK  status: ('A' for Active; 'I' for Inactive)
REMARK    1  A    between atoms: C_1  and  C_2
REMARK    2  A    between atoms: C_5  and  N_6
REMARK    3  A    between atoms: C_7  and  C_9
REMARK    4  A    between atoms: N_13  and  C_14
REMARK    5  A    between atoms: C_14  and  C_15
REMARK    6  A    between atoms: C_15  and  C_16
REMARK                            x       y       z     vdW  Elec       q    Type
REMARK                         _______ _______ _______ _____ _____    ______ ____
ROOT
ATOM      1  C   UNL     1       0.855   9.455  21.951  0.00  0.00    +0.000 C 
ATOM      2  C   UNL     1      -0.114   9.737  23.084  0.00  0.00    +0.000 C 
ATOM      3  C   UNL     1      -0.814  11.016  22.691  0.00  0.00    +0.000 C 
ATOM      4  O   UNL     1      -1.625  11.602  23.390  0.00  0.00    +0.000 OA
ATOM      5  N   UNL     1      -0.371  11.410  21.441  0.00  0.00    +0.000 N 
ATOM      6  C   UNL     1       0.715  10.596  20.960  0.00  0.00    +0.000 C 
ENDROOT
BRANCH   1   8
ATOM      7  N   UNL     1       2.039   7.607  20.698  0.00  0.00    +0.000 N 
ATOM      8  C   UNL     1       0.856   8.136  21.191  0.00  0.00    +0.000 C 
ATOM      9  O   UNL     1      -0.229   7.544  21.165  0.00  0.00    +0.000 OA
ATOM     10  H   UNL     1       2.912   8.079  20.909  0.00  0.00    +0.000 HD
BRANCH   7  15
ATOM     11  C   UNL     1       2.273   2.553  17.885  0.00  0.00    +0.000 C 
ATOM     12  C   UNL     1       2.229   3.844  18.652  0.00  0.00    +0.000 A 
ATOM     13  C   UNL     1       2.498   5.038  17.983  0.00  0.00    +0.000 A 
ATOM     14  C   UNL     1       2.459   6.261  18.655  0.00  0.00    +0.000 A 
ATOM     15  C   UNL     1       2.135   6.354  20.010  0.00  0.00    +0.000 A 
ATOM     16  C   UNL     1       1.902   5.159  20.703  0.00  0.00    +0.000 A 
ATOM     17  C   UNL     1       1.940   3.920  20.030  0.00  0.00    +0.000 A 
ATOM     18 CL   UNL     1       1.599   2.485  20.936  0.00  0.00    +0.000 Cl
ENDBRANCH   7  15
ENDBRANCH   1   8
BRANCH   5  19
ATOM     19  C   UNL     1      -0.662  12.721  20.858  0.00  0.00    +0.000 C 
BRANCH  19  20
ATOM     20  C   UNL     1      -0.640  12.707  19.325  0.00  0.00    +0.000 C 
BRANCH  20  21
ATOM     21  C   UNL     1      -1.697  11.821  18.718  0.00  0.00    +0.000 A 
ATOM     22  C   UNL     1      -1.340  10.698  17.957  0.00  0.00    +0.000 A 
ATOM     23  C   UNL     1      -2.326   9.888  17.390  0.00  0.00    +0.000 A 
ATOM     24  C   UNL     1      -3.673  10.192  17.576  0.00  0.00    +0.000 A 
ATOM     25  C   UNL     1      -4.037  11.301  18.339  0.00  0.00    +0.000 A 
ATOM     26  C   UNL     1      -3.054  12.113  18.907  0.00  0.00    +0.000 A 
ENDBRANCH  20  21
ENDBRANCH  19  20
ENDBRANCH   5  19
TORSDOF 5
ENDMDL
MODEL 2
REMARK VINA RESULT:      -7.8      5.200      9.757
REMARK  Name = 
REMARK  6 active torsions:
REMARK  status: ('A' for Active; 'I' for Inactive)
REMARK    1  A    between atoms: C_1  and  C_2
REMARK    2  A    between atoms: C_5  and  N_6
REMARK    3  A    between atoms: C_7  and  C_9
REMARK    4  A    between atoms: N_13  and  C_14
REMARK    5  A    between atoms: C_14  and  C_15
REMARK    6  A    between atoms: C_15  and  C_16
REMARK                            x       y       z     vdW  Elec       q    Type
REMARK                         _______ _______ _______ _____ _____    ______ ____
ROOT
ATOM      1  C   UNL     1       4.399   4.382  17.741  0.00  0.00    +0.000 C 
ATOM      2  C   UNL     1       5.730   4.405  18.470  0.00  0.00    +0.000 C 
ATOM      3  C   UNL     1       6.769   4.555  17.384  0.00  0.00    +0.000 C 
ATOM      4  O   UNL     1       7.974   4.545  17.576  0.00  0.00    +0.000 OA
ATOM      5  N   UNL     1       6.132   4.682  16.163  0.00  0.00    +0.000 N 
ATOM      6  C   UNL     1       4.710   4.479  16.259  0.00  0.00    +0.000 C 
ENDROOT
BRANCH   1   8
ATOM      7  N   UNL     1       3.547   6.667  18.403  0.00  0.00    +0.000 N 
ATOM      8  C   UNL     1       3.272   5.348  18.076  0.00  0.00    +0.000 C 
ATOM      9  O   UNL     1       2.131   4.901  17.913  0.00  0.00    +0.000 OA
ATOM     10  H   UNL     1       4.506   6.995  18.350  0.00  0.00    +0.000 HD
BRANCH   7  15
ATOM     11  C   UNL     1      -0.383  10.743  19.608  0.00  0.00    +0.000 C 
ATOM     12  C   UNL     1       0.616   9.657  19.324  0.00  0.00    +0.000 A 
ATOM     13  C   UNL     1       1.137   9.537  18.035  0.00  0.00    +0.000 A 
ATOM     14  C   UNL     1       2.074   8.548  17.730  0.00  0.00    +0.000 A 
ATOM     15  C   UNL     1       2.546   7.651  18.690  0.00  0.00    +0.000 A 
ATOM     16  C   UNL     1       2.002   7.735  19.978  0.00  0.00    +0.000 A 
ATOM     17  C   UNL     1       1.055   8.732  20.293  0.00  0.00    +0.000 A 
ATOM     18 CL   UNL     1       0.455   8.809  21.915  0.00  0.00    +0.000 Cl
ENDBRANCH   7  15
ENDBRANCH   1   8
BRANCH   5  19
ATOM     19  C   UNL     1       6.831   4.612  14.878  0.00  0.00    +0.000 C 
BRANCH  19  20
ATOM     20  C   UNL     1       5.876   4.666  13.679  0.00  0.00    +0.000 C 
BRANCH  20  21
ATOM     21  C   UNL     1       6.127   3.581  12.664  0.00  0.00    +0.000 A 
ATOM     22  C   UNL     1       7.410   3.371  12.141  0.00  0.00    +0.000 A 
ATOM     23  C   UNL     1       7.630   2.370  11.193  0.00  0.00    +0.000 A 
ATOM     24  C   UNL     1       6.573   1.572  10.760  0.00  0.00    +0.000 A 
ATOM     25  C   UNL     1       5.295   1.767  11.282  0.00  0.00    +0.000 A 
ATOM     26  C   UNL     1       5.072   2.767  12.230  0.00  0.00    +0.000 A 
ENDBRANCH  20  21
ENDBRANCH  19  20
ENDBRANCH   5  19
TORSDOF 5
ENDMDL
MODEL 3
REMARK VINA RESULT:      -7.8      1.287      1.549
REMARK  Name = 
REMARK  6 active torsions:
REMARK  status: ('A' for Active; 'I' for Inactive)
REMARK    1  A    between atoms: C_1  and  C_2
REMARK    2  A    between atoms: C_5  and  N_6
REMARK    3  A    between atoms: C_7  and  C_9
REMARK    4  A    between atoms: N_13  and  C_14
REMARK    5  A    between atoms: C_14  and  C_15
REMARK    6  A    between atoms: C_15  and  C_16
REMARK                            x       y       z     vdW  Elec       q    Type
REMARK                         _______ _______ _______ _____ _____    ______ ____
ROOT
ATOM      1  C   UNL     1       1.296   9.392  21.574  0.00  0.00    +0.000 C 
ATOM      2  C   UNL     1       0.351   9.289  22.757  0.00  0.00    +0.000 C 
ATOM      3  C   UNL     1      -0.634  10.418  22.570  0.00  0.00    +0.000 C 
ATOM      4  O   UNL     1      -1.515  10.703  23.365  0.00  0.00    +0.000 OA
ATOM      5  N   UNL     1      -0.358  11.069  21.382  0.00  0.00    +0.000 N 
ATOM      6  C   UNL     1       0.853  10.597  20.764  0.00  0.00    +0.000 C 
ENDROOT
BRANCH   1   8
ATOM      7  N   UNL     1       1.726   6.942  21.126  0.00  0.00    +0.000 N 
ATOM      8  C   UNL     1       1.547   8.225  20.629  0.00  0.00    +0.000 C 
ATOM      9  O   UNL     1       1.454   8.493  19.426  0.00  0.00    +0.000 OA
ATOM     10  H   UNL     1       1.621   6.784  22.122  0.00  0.00    +0.000 HD
BRANCH   7  15
ATOM     11  C   UNL     1       2.641   2.209  17.923  0.00  0.00    +0.000 C 
ATOM     12  C   UNL     1       2.414   3.463  18.718  0.00  0.00    +0.000 A 
ATOM     13  C   UNL     1       1.413   3.475  19.689  0.00  0.00    +0.000 A 
ATOM     14  C   UNL     1       1.174   4.617  20.457  0.00  0.00    +0.000 A 
ATOM     15  C   UNL     1       1.925   5.784  20.308  0.00  0.00    +0.000 A 
ATOM     16  C   UNL     1       2.908   5.797  19.308  0.00  0.00    +0.000 A 
ATOM     17  C   UNL     1       3.154   4.648  18.528  0.00  0.00    +0.000 A 
ATOM     18 CL   UNL     1       4.411   4.718  17.341  0.00  0.00    +0.000 Cl
ENDBRANCH   7  15
ENDBRANCH   1   8
BRANCH   5  19
ATOM     19  C   UNL     1      -0.963  12.347  21.002  0.00  0.00    +0.000 C 
BRANCH  19  20
ATOM     20  C   UNL     1      -0.909  12.606  19.492  0.00  0.00    +0.000 C 
BRANCH  20  21
ATOM     21  C   UNL     1      -1.818  11.705  18.697  0.00  0.00    +0.000 A 
ATOM     22  C   UNL     1      -1.290  10.698  17.876  0.00  0.00    +0.000 A 
ATOM     23  C   UNL     1      -2.140   9.875  17.135  0.00  0.00    +0.000 A 
ATOM     24  C   UNL     1      -3.520  10.051  17.205  0.00  0.00    +0.000 A 
ATOM     25  C   UNL     1      -4.054  11.044  18.026  0.00  0.00    +0.000 A 
ATOM     26  C   UNL     1      -3.208  11.867  18.768  0.00  0.00    +0.000 A 
ENDBRANCH  20  21
ENDBRANCH  19  20
ENDBRANCH   5  19
TORSDOF 5
ENDMDL
MODEL 4
REMARK VINA RESULT:      -7.7      4.391      9.010
REMARK  Name = 
REMARK  6 active torsions:
REMARK  status: ('A' for Active; 'I' for Inactive)
REMARK    1  A    between atoms: C_1  and  C_2
REMARK    2  A    between atoms: C_5  and  N_6
REMARK    3  A    between atoms: C_7  and  C_9
REMARK    4  A    between atoms: N_13  and  C_14
REMARK    5  A    between atoms: C_14  and  C_15
REMARK    6  A    between atoms: C_15  and  C_16
REMARK                            x       y       z     vdW  Elec       q    Type
REMARK                         _______ _______ _______ _____ _____    ______ ____
ROOT
ATOM      1  C   UNL     1       2.894   4.888  19.384  0.00  0.00    +0.000 C 
ATOM      2  C   UNL     1       4.253   4.463  19.910  0.00  0.00    +0.000 C 
ATOM      3  C   UNL     1       5.208   4.707  18.766  0.00  0.00    +0.000 C 
ATOM      4  O   UNL     1       6.394   4.422  18.785  0.00  0.00    +0.000 OA
ATOM      5  N   UNL     1       4.517   5.278  17.712  0.00  0.00    +0.000 N 
ATOM      6  C   UNL     1       3.098   5.325  17.945  0.00  0.00    +0.000 C 
ENDROOT
BRANCH   1   8
ATOM      7  N   UNL     1       2.286   7.274  19.952  0.00  0.00    +0.000 N 
ATOM      8  C   UNL     1       2.031   5.919  20.098  0.00  0.00    +0.000 C 
ATOM      9  O   UNL     1       1.048   5.461  20.692  0.00  0.00    +0.000 OA
ATOM     10  H   UNL     1       3.013   7.569  19.310  0.00  0.00    +0.000 HD
BRANCH   7  15
ATOM     11  C   UNL     1      -1.017  11.366  22.372  0.00  0.00    +0.000 C 
ATOM     12  C   UNL     1      -0.149  10.333  21.711  0.00  0.00    +0.000 A 
ATOM     13  C   UNL     1       0.550   9.427  22.509  0.00  0.00    +0.000 A 
ATOM     14  C   UNL     1       1.362   8.445  21.935  0.00  0.00    +0.000 A 
ATOM     15  C   UNL     1       1.500   8.310  20.553  0.00  0.00    +0.000 A 
ATOM     16  C   UNL     1       0.834   9.239  19.742  0.00  0.00    +0.000 A 
ATOM     17  C   UNL     1       0.014  10.233  20.314  0.00  0.00    +0.000 A 
ATOM     18 CL   UNL     1      -0.815  11.322  19.254  0.00  0.00    +0.000 Cl
ENDBRANCH   7  15
ENDBRANCH   1   8
BRANCH   5  19
ATOM     19  C   UNL     1       5.078   5.430  16.368  0.00  0.00    +0.000 C 
BRANCH  19  20
ATOM     20  C   UNL     1       5.253   4.091  15.642  0.00  0.00    +0.000 C 
BRANCH  20  21
ATOM     21  C   UNL     1       5.999   4.210  14.338  0.00  0.00    +0.000 A 
ATOM     22  C   UNL     1       7.120   5.044  14.227  0.00  0.00    +0.000 A 
ATOM     23  C   UNL     1       7.798   5.156  13.012  0.00  0.00    +0.000 A 
ATOM     24  C   UNL     1       7.364   4.437  11.900  0.00  0.00    +0.000 A 
ATOM     25  C   UNL     1       6.255   3.598  12.004  0.00  0.00    +0.000 A 
ATOM     26  C   UNL     1       5.575   3.484  13.216  0.00  0.00    +0.000 A 
ENDBRANCH  20  21
ENDBRANCH  19  20
ENDBRANCH   5  19
TORSDOF 5
ENDMDL
MODEL 5
REMARK VINA RESULT:      -7.7      7.252      9.945
REMARK  Name = 
REMARK  6 active torsions:
REMARK  status: ('A' for Active; 'I' for Inactive)
REMARK    1  A    between atoms: C_1  and  C_2
REMARK    2  A    between atoms: C_5  and  N_6
REMARK    3  A    between atoms: C_7  and  C_9
REMARK    4  A    between atoms: N_13  and  C_14
REMARK    5  A    between atoms: C_14  and  C_15
REMARK    6  A    between atoms: C_15  and  C_16
REMARK                            x       y       z     vdW  Elec       q    Type
REMARK                         _______ _______ _______ _____ _____    ______ ____
ROOT
ATOM      1  C   UNL     1       7.861   6.995  17.738  0.00  0.00    +0.000 C 
ATOM      2  C   UNL     1       7.088   6.535  16.517  0.00  0.00    +0.000 C 
ATOM      3  C   UNL     1       5.982   5.661  17.059  0.00  0.00    +0.000 C 
ATOM      4  O   UNL     1       5.185   5.048  16.368  0.00  0.00    +0.000 OA
ATOM      5  N   UNL     1       6.043   5.660  18.442  0.00  0.00    +0.000 N 
ATOM      6  C   UNL     1       7.206   6.344  18.943  0.00  0.00    +0.000 C 
ENDROOT
BRANCH   1   8
ATOM      7  N   UNL     1       9.046   8.848  18.984  0.00  0.00    +0.000 N 
ATOM      8  C   UNL     1       8.103   8.468  18.041  0.00  0.00    +0.000 C 
ATOM      9  O   UNL     1       7.498   9.260  17.310  0.00  0.00    +0.000 OA
ATOM     10  H   UNL     1       9.618   8.133  19.420  0.00  0.00    +0.000 HD
BRANCH   7  15
ATOM     11  C   UNL     1      10.187  14.386  20.222  0.00  0.00    +0.000 C 
ATOM     12  C   UNL     1       9.924  12.949  19.871  0.00  0.00    +0.000 A 
ATOM     13  C   UNL     1       9.515  12.072  20.874  0.00  0.00    +0.000 A 
ATOM     14  C   UNL     1       9.252  10.730  20.589  0.00  0.00    +0.000 A 
ATOM     15  C   UNL     1       9.365  10.209  19.299  0.00  0.00    +0.000 A 
ATOM     16  C   UNL     1       9.813  11.071  18.289  0.00  0.00    +0.000 A 
ATOM     17  C   UNL     1      10.081  12.427  18.570  0.00  0.00    +0.000 A 
ATOM     18 CL   UNL     1      10.589  13.448  17.269  0.00  0.00    +0.000 Cl
ENDBRANCH   7  15
ENDBRANCH   1   8
BRANCH   5  19
ATOM     19  C   UNL     1       5.274   4.740  19.282  0.00  0.00    +0.000 C 
BRANCH  19  20
ATOM     20  C   UNL     1       3.906   5.304  19.684  0.00  0.00    +0.000 C 
BRANCH  20  21
ATOM     21  C   UNL     1       2.780   4.317  19.523  0.00  0.00    +0.000 A 
ATOM     22  C   UNL     1       2.639   3.575  18.342  0.00  0.00    +0.000 A 
ATOM     23  C   UNL     1       1.586   2.670  18.198  0.00  0.00    +0.000 A 
ATOM     24  C   UNL     1       0.666   2.498  19.230  0.00  0.00    +0.000 A 
ATOM     25  C   UNL     1       0.803   3.225  20.412  0.00  0.00    +0.000 A 
ATOM     26  C   UNL     1       1.854   4.130  20.559  0.00  0.00    +0.000 A 
ENDBRANCH  20  21
ENDBRANCH  19  20
ENDBRANCH   5  19
TORSDOF 5
ENDMDL
MODEL 6
REMARK VINA RESULT:      -7.7      4.382      8.980
REMARK  Name = 
REMARK  6 active torsions:
REMARK  status: ('A' for Active; 'I' for Inactive)
REMARK    1  A    between atoms: C_1  and  C_2
REMARK    2  A    between atoms: C_5  and  N_6
REMARK    3  A    between atoms: C_7  and  C_9
REMARK    4  A    between atoms: N_13  and  C_14
REMARK    5  A    between atoms: C_14  and  C_15
REMARK    6  A    between atoms: C_15  and  C_16
REMARK                            x       y       z     vdW  Elec       q    Type
REMARK                         _______ _______ _______ _____ _____    ______ ____
ROOT
ATOM      1  C   UNL     1       3.090   4.962  19.234  0.00  0.00    +0.000 C 
ATOM      2  C   UNL     1       4.401   4.536  19.869  0.00  0.00    +0.000 C 
ATOM      3  C   UNL     1       5.441   4.740  18.794  0.00  0.00    +0.000 C 
ATOM      4  O   UNL     1       6.619   4.441  18.909  0.00  0.00    +0.000 OA
ATOM      5  N   UNL     1       4.838   5.291  17.678  0.00  0.00    +0.000 N 
ATOM      6  C   UNL     1       3.406   5.360  17.803  0.00  0.00    +0.000 C 
ENDROOT
BRANCH   1   8
ATOM      7  N   UNL     1       2.343   7.359  19.524  0.00  0.00    +0.000 N 
ATOM      8  C   UNL     1       2.191   6.021  19.856  0.00  0.00    +0.000 C 
ATOM      9  O   UNL     1       1.271   5.584  20.556  0.00  0.00    +0.000 OA
ATOM     10  H   UNL     1       3.018   7.613  18.811  0.00  0.00    +0.000 HD
BRANCH   7  15
ATOM     11  C   UNL     1      -0.873  11.701  21.601  0.00  0.00    +0.000 C 
ATOM     12  C   UNL     1      -0.058  10.546  21.092  0.00  0.00    +0.000 A 
ATOM     13  C   UNL     1       0.254  10.486  19.734  0.00  0.00    +0.000 A 
ATOM     14  C   UNL     1       1.016   9.435  19.220  0.00  0.00    +0.000 A 
ATOM     15  C   UNL     1       1.515   8.413  20.030  0.00  0.00    +0.000 A 
ATOM     16  C   UNL     1       1.175   8.440  21.389  0.00  0.00    +0.000 A 
ATOM     17  C   UNL     1       0.405   9.499  21.915  0.00  0.00    +0.000 A 
ATOM     18 CL   UNL     1       0.058   9.495  23.611  0.00  0.00    +0.000 Cl
ENDBRANCH   7  15
ENDBRANCH   1   8
BRANCH   5  19
ATOM     19  C   UNL     1       5.499   5.402  16.376  0.00  0.00    +0.000 C 
BRANCH  19  20
ATOM     20  C   UNL     1       5.541   4.071  15.615  0.00  0.00    +0.000 C 
BRANCH  20  21
ATOM     21  C   UNL     1       6.169   4.181  14.250  0.00  0.00    +0.000 A 
ATOM     22  C   UNL     1       5.697   3.408  13.180  0.00  0.00    +0.000 A 
ATOM     23  C   UNL     1       6.291   3.509  11.921  0.00  0.00    +0.000 A 
ATOM     24  C   UNL     1       7.360   4.380  11.720  0.00  0.00    +0.000 A 
ATOM     25  C   UNL     1       7.829   5.160  12.776  0.00  0.00    +0.000 A 
ATOM     26  C   UNL     1       7.237   5.062  14.035  0.00  0.00    +0.000 A 
ENDBRANCH  20  21
ENDBRANCH  19  20
ENDBRANCH   5  19
TORSDOF 5
ENDMDL
MODEL 7
REMARK VINA RESULT:      -7.7      0.800      1.248
REMARK  Name = 
REMARK  6 active torsions:
REMARK  status: ('A' for Active; 'I' for Inactive)
REMARK    1  A    between atoms: C_1  and  C_2
REMARK    2  A    between atoms: C_5  and  N_6
REMARK    3  A    between atoms: C_7  and  C_9
REMARK    4  A    between atoms: N_13  and  C_14
REMARK    5  A    between atoms: C_14  and  C_15
REMARK    6  A    between atoms: C_15  and  C_16
REMARK                            x       y       z     vdW  Elec       q    Type
REMARK                         _______ _______ _______ _____ _____    ______ ____
ROOT
ATOM      1  C   UNL     1       1.131   9.686  21.669  0.00  0.00    +0.000 C 
ATOM      2  C   UNL     1       0.103   9.510  22.771  0.00  0.00    +0.000 C 
ATOM      3  C   UNL     1      -0.842  10.676  22.615  0.00  0.00    +0.000 C 
ATOM      4  O   UNL     1      -1.771  10.917  23.368  0.00  0.00    +0.000 OA
ATOM      5  N   UNL     1      -0.468  11.418  21.508  0.00  0.00    +0.000 N 
ATOM      6  C   UNL     1       0.773  10.967  20.936  0.00  0.00    +0.000 C 
ENDROOT
BRANCH   1   8
ATOM      7  N   UNL     1       1.856   7.344  21.057  0.00  0.00    +0.000 N 
ATOM      8  C   UNL     1       1.424   8.596  20.647  0.00  0.00    +0.000 C 
ATOM      9  O   UNL     1       1.132   8.878  19.480  0.00  0.00    +0.000 OA
ATOM     10  H   UNL     1       1.910   7.145  22.050  0.00  0.00    +0.000 HD
BRANCH   7  15
ATOM     11  C   UNL     1       2.783   2.981  17.368  0.00  0.00    +0.000 C 
ATOM     12  C   UNL     1       2.535   4.083  18.358  0.00  0.00    +0.000 A 
ATOM     13  C   UNL     1       3.275   5.260  18.259  0.00  0.00    +0.000 A 
ATOM     14  C   UNL     1       3.070   6.313  19.153  0.00  0.00    +0.000 A 
ATOM     15  C   UNL     1       2.114   6.251  20.168  0.00  0.00    +0.000 A 
ATOM     16  C   UNL     1       1.390   5.058  20.303  0.00  0.00    +0.000 A 
ATOM     17  C   UNL     1       1.593   3.990  19.404  0.00  0.00    +0.000 A 
ATOM     18 CL   UNL     1       0.636   2.561  19.599  0.00  0.00    +0.000 Cl
ENDBRANCH   7  15
ENDBRANCH   1   8
BRANCH   5  19
ATOM     19  C   UNL     1      -1.018  12.739  21.199  0.00  0.00    +0.000 C 
BRANCH  19  20
ATOM     20  C   UNL     1      -1.091  13.015  19.692  0.00  0.00    +0.000 C 
BRANCH  20  21
ATOM     21  C   UNL     1      -1.975  12.049  18.948  0.00  0.00    +0.000 A 
ATOM     22  C   UNL     1      -3.370  12.113  19.070  0.00  0.00    +0.000 A 
ATOM     23  C   UNL     1      -4.181  11.207  18.385  0.00  0.00    +0.000 A 
ATOM     24  C   UNL     1      -3.607  10.230  17.574  0.00  0.00    +0.000 A 
ATOM     25  C   UNL     1      -2.221  10.164  17.439  0.00  0.00    +0.000 A 
ATOM     26  C   UNL     1      -1.408  11.068  18.123  0.00  0.00    +0.000 A 
ENDBRANCH  20  21
ENDBRANCH  19  20
ENDBRANCH   5  19
TORSDOF 5
ENDMDL
MODEL 8
REMARK VINA RESULT:      -7.7      4.558      9.194
REMARK  Name = 
REMARK  6 active torsions:
REMARK  status: ('A' for Active; 'I' for Inactive)
REMARK    1  A    between atoms: C_1  and  C_2
REMARK    2  A    between atoms: C_5  and  N_6
REMARK    3  A    between atoms: C_7  and  C_9
REMARK    4  A    between atoms: N_13  and  C_14
REMARK    5  A    between atoms: C_14  and  C_15
REMARK    6  A    between atoms: C_15  and  C_16
REMARK                            x       y       z     vdW  Elec       q    Type
REMARK                         _______ _______ _______ _____ _____    ______ ____
ROOT
ATOM      1  C   UNL     1       2.856   6.069  18.723  0.00  0.00    +0.000 C 
ATOM      2  C   UNL     1       3.668   5.272  19.727  0.00  0.00    +0.000 C 
ATOM      3  C   UNL     1       4.947   4.920  19.006  0.00  0.00    +0.000 C 
ATOM      4  O   UNL     1       5.831   4.219  19.471  0.00  0.00    +0.000 OA
ATOM      5  N   UNL     1       4.932   5.500  17.750  0.00  0.00    +0.000 N 
ATOM      6  C   UNL     1       3.670   6.119  17.443  0.00  0.00    +0.000 C 
ENDROOT
BRANCH   1   8
ATOM      7  N   UNL     1       1.957   8.318  18.001  0.00  0.00    +0.000 N 
ATOM      8  C   UNL     1       2.326   7.463  19.028  0.00  0.00    +0.000 C 
ATOM      9  O   UNL     1       2.142   7.704  20.227  0.00  0.00    +0.000 OA
ATOM     10  H   UNL     1       1.984   7.976  17.046  0.00  0.00    +0.000 HD
BRANCH   7  15
ATOM     11  C   UNL     1      -0.250  13.582  18.963  0.00  0.00    +0.000 C 
ATOM     12  C   UNL     1       0.287  12.206  18.687  0.00  0.00    +0.000 A 
ATOM     13  C   UNL     1       1.667  12.027  18.586  0.00  0.00    +0.000 A 
ATOM     14  C   UNL     1       2.209  10.764  18.340  0.00  0.00    +0.000 A 
ATOM     15  C   UNL     1       1.411   9.627  18.200  0.00  0.00    +0.000 A 
ATOM     16  C   UNL     1       0.021   9.800  18.260  0.00  0.00    +0.000 A 
ATOM     17  C   UNL     1      -0.533  11.073  18.508  0.00  0.00    +0.000 A 
ATOM     18 CL   UNL     1      -2.255  11.211  18.614  0.00  0.00    +0.000 Cl
ENDBRANCH   7  15
ENDBRANCH   1   8
BRANCH   5  19
ATOM     19  C   UNL     1       5.902   5.176  16.701  0.00  0.00    +0.000 C 
BRANCH  19  20
ATOM     20  C   UNL     1       5.349   4.188  15.666  0.00  0.00    +0.000 C 
BRANCH  20  21
ATOM     21  C   UNL     1       6.068   4.241  14.343  0.00  0.00    +0.000 A 
ATOM     22  C   UNL     1       7.170   5.088  14.160  0.00  0.00    +0.000 A 
ATOM     23  C   UNL     1       7.824   5.138  12.927  0.00  0.00    +0.000 A 
ATOM     24  C   UNL     1       7.382   4.347  11.869  0.00  0.00    +0.000 A 
ATOM     25  C   UNL     1       6.293   3.495  12.045  0.00  0.00    +0.000 A 
ATOM     26  C   UNL     1       5.638   3.442  13.275  0.00  0.00    +0.000 A 
ENDBRANCH  20  21
ENDBRANCH  19  20
ENDBRANCH   5  19
TORSDOF 5
ENDMDL
MODEL 9
REMARK VINA RESULT:      -7.6      7.082      9.748
REMARK  Name = 
REMARK  6 active torsions:
REMARK  status: ('A' for Active; 'I' for Inactive)
REMARK    1  A    between atoms: C_1  and  C_2
REMARK    2  A    between atoms: C_5  and  N_6
REMARK    3  A    between atoms: C_7  and  C_9
REMARK    4  A    between atoms: N_13  and  C_14
REMARK    5  A    between atoms: C_14  and  C_15
REMARK    6  A    between atoms: C_15  and  C_16
REMARK                            x       y       z     vdW  Elec       q    Type
REMARK                         _______ _______ _______ _____ _____    ______ ____
ROOT
ATOM      1  C   UNL     1       7.347   6.143  17.676  0.00  0.00    +0.000 C 
ATOM      2  C   UNL     1       7.668   5.350  16.423  0.00  0.00    +0.000 C 
ATOM      3  C   UNL     1       6.395   4.610  16.091  0.00  0.00    +0.000 C 
ATOM      4  O   UNL     1       6.281   3.808  15.178  0.00  0.00    +0.000 OA
ATOM      5  N   UNL     1       5.411   4.974  16.992  0.00  0.00    +0.000 N 
ATOM      6  C   UNL     1       5.915   5.807  18.052  0.00  0.00    +0.000 C 
ENDROOT
BRANCH   1   8
ATOM      7  N   UNL     1       8.493   8.196  18.604  0.00  0.00    +0.000 N 
ATOM      8  C   UNL     1       7.540   7.651  17.756  0.00  0.00    +0.000 C 
ATOM      9  O   UNL     1       6.886   8.308  16.939  0.00  0.00    +0.000 OA
ATOM     10  H   UNL     1       9.103   7.571  19.119  0.00  0.00    +0.000 HD
BRANCH   7  15
ATOM     11  C   UNL     1       9.757  13.831  18.996  0.00  0.00    +0.000 C 
ATOM     12  C   UNL     1       9.414  12.369  18.937  0.00  0.00    +0.000 A 
ATOM     13  C   UNL     1       8.946  11.832  17.737  0.00  0.00    +0.000 A 
ATOM     14  C   UNL     1       8.624  10.477  17.636  0.00  0.00    +0.000 A 
ATOM     15  C   UNL     1       8.768   9.597  18.710  0.00  0.00    +0.000 A 
ATOM     16  C   UNL     1       9.200  10.131  19.931  0.00  0.00    +0.000 A 
ATOM     17  C   UNL     1       9.526  11.500  20.041  0.00  0.00    +0.000 A 
ATOM     18 CL   UNL     1      10.095  12.087  21.567  0.00  0.00    +0.000 Cl
ENDBRANCH   7  15
ENDBRANCH   1   8
BRANCH   5  19
ATOM     19  C   UNL     1       4.127   4.279  17.109  0.00  0.00    +0.000 C 
BRANCH  19  20
ATOM     20  C   UNL     1       3.056   5.124  17.810  0.00  0.00    +0.000 C 
BRANCH  20  21
ATOM     21  C   UNL     1       2.385   4.410  18.955  0.00  0.00    +0.000 A 
ATOM     22  C   UNL     1       2.791   4.637  20.278  0.00  0.00    +0.000 A 
ATOM     23  C   UNL     1       2.170   3.964  21.332  0.00  0.00    +0.000 A 
ATOM     24  C   UNL     1       1.142   3.060  21.074  0.00  0.00    +0.000 A 
ATOM     25  C   UNL     1       0.725   2.835  19.763  0.00  0.00    +0.000 A 
ATOM     26  C   UNL     1       1.343   3.506  18.708  0.00  0.00    +0.000 A 
ENDBRANCH  20  21
ENDBRANCH  19  20
ENDBRANCH   5  19
TORSDOF 5
ENDMDL
