MODEL 1
REMARK VINA RESULT:      -7.2      0.000      0.000
REMARK  Name = 
REMARK  12 active torsions:
REMARK  status: ('A' for Active; 'I' for Inactive)
REMARK    1  A    between atoms: C_1  and  N_2
REMARK    2  A    between atoms: N_2  and  C_3
REMARK    3  A    between atoms: C_3  and  C_4
REMARK    4  A    between atoms: C_4  and  C_5
REMARK    5  A    between atoms: C_7  and  C_9
REMARK    6  A    between atoms: C_9  and  O_10
REMARK    7  A    between atoms: O_10  and  C_11
REMARK    8  A    between atoms: C_11  and  C_13
REMARK    9  A    between atoms: C_18  and  S_19
REMARK   10  A    between atoms: S_19  and  N_22
REMARK   11  A    between atoms: N_22  and  C_23
REMARK   12  A    between atoms: N_22  and  C_24
REMARK                            x       y       z     vdW  Elec       q    Type
REMARK                         _______ _______ _______ _____ _____    ______ ____
ROOT
ATOM      1  C   UNL     1       1.974   7.477  18.937  0.00  0.00    +0.000 A 
ATOM      2  C   UNL     1       1.769   7.585  20.321  0.00  0.00    +0.000 A 
ATOM      3  C   UNL     1       1.754   6.429  21.099  0.00  0.00    +0.000 A 
ATOM      4  C   UNL     1       1.966   5.153  20.510  0.00  0.00    +0.000 A 
ATOM      5 CL   UNL     1       2.202   3.870  21.637  0.00  0.00    +0.000 Cl
ATOM      6  C   UNL     1       2.101   5.025  19.116  0.00  0.00    +0.000 A 
ATOM      7  C   UNL     1       2.063   6.204  18.345  0.00  0.00    +0.000 A 
ENDROOT
BRANCH   6   8
ATOM      8  S   UNL     1       1.987   3.501  18.160  0.00  0.00    +0.000 S 
ATOM      9  O   UNL     1       1.188   2.565  18.949  0.00  0.00    +0.000 OA
ATOM     10  O   UNL     1       1.501   3.878  16.851  0.00  0.00    +0.000 OA
BRANCH   8  11
ATOM     11  N   UNL     1       3.544   2.781  17.947  0.00  0.00    +0.000 N 
ATOM     12  C   UNL     1       3.809   1.529  18.677  0.00  0.00    +0.000 C 
BRANCH  11  13
ATOM     13  C   UNL     1       4.689   3.635  17.700  0.00  0.00    +0.000 A 
ATOM     14  C   UNL     1       5.382   4.171  18.777  0.00  0.00    +0.000 A 
ATOM     15  C   UNL     1       6.402   5.097  18.581  0.00  0.00    +0.000 A 
ATOM     16  C   UNL     1       6.780   5.467  17.291  0.00  0.00    +0.000 A 
ATOM     17  C   UNL     1       6.156   4.869  16.195  0.00  0.00    +0.000 A 
ATOM     18  C   UNL     1       5.108   3.958  16.390  0.00  0.00    +0.000 A 
ENDBRANCH  11  13
ENDBRANCH   8  11
ENDBRANCH   6   8
BRANCH   1  19
ATOM     19  C   UNL     1       2.152   8.716  18.159  0.00  0.00    +0.000 C 
ATOM     20  O   UNL     1       2.773   8.787  17.113  0.00  0.00    +0.000 OA
BRANCH  19  21
ATOM     21  O   UNL     1       1.481   9.730  18.762  0.00  0.00    +0.000 OA
BRANCH  21  22
ATOM     22  C   UNL     1       0.182  10.021  18.250  0.00  0.00    +0.000 C 
BRANCH  22  25
ATOM     23  C   UNL     1      -2.509  12.201  19.872  0.00  0.00    +0.000 C 
ATOM     24  N   UNL     1      -1.738  11.512  18.831  0.00  0.00    +0.000 N 
ATOM     25  C   UNL     1      -0.675  10.732  19.292  0.00  0.00    +0.000 C 
ATOM     26  O   UNL     1      -0.442  10.623  20.501  0.00  0.00    +0.000 OA
BRANCH  24  27
ATOM     27  C   UNL     1      -2.089  11.738  17.414  0.00  0.00    +0.000 C 
BRANCH  27  28
ATOM     28  C   UNL     1      -3.303  10.940  16.930  0.00  0.00    +0.000 C 
BRANCH  28  29
ATOM     29  C   UNL     1      -3.137  10.475  15.492  0.00  0.00    +0.000 C 
ATOM     30  N   UNL     1      -2.999  10.089  14.300  0.00  0.00    +0.000 NA
ENDBRANCH  28  29
ENDBRANCH  27  28
ENDBRANCH  24  27
ENDBRANCH  22  25
ENDBRANCH  21  22
ENDBRANCH  19  21
ENDBRANCH   1  19
TORSDOF 10
ENDMDL
MODEL 2
REMARK VINA RESULT:      -7.0      1.529      1.863
REMARK  Name = 
REMARK  12 active torsions:
REMARK  status: ('A' for Active; 'I' for Inactive)
REMARK    1  A    between atoms: C_1  and  N_2
REMARK    2  A    between atoms: N_2  and  C_3
REMARK    3  A    between atoms: C_3  and  C_4
REMARK    4  A    between atoms: C_4  and  C_5
REMARK    5  A    between atoms: C_7  and  C_9
REMARK    6  A    between atoms: C_9  and  O_10
REMARK    7  A    between atoms: O_10  and  C_11
REMARK    8  A    between atoms: C_11  and  C_13
REMARK    9  A    between atoms: C_18  and  S_19
REMARK   10  A    between atoms: S_19  and  N_22
REMARK   11  A    between atoms: N_22  and  C_23
REMARK   12  A    between atoms: N_22  and  C_24
REMARK                            x       y       z     vdW  Elec       q    Type
REMARK                         _______ _______ _______ _____ _____    ______ ____
ROOT
ATOM      1  C   UNL     1       2.145   7.092  19.043  0.00  0.00    +0.000 A 
ATOM      2  C   UNL     1       1.666   6.682  20.296  0.00  0.00    +0.000 A 
ATOM      3  C   UNL     1       1.924   5.384  20.733  0.00  0.00    +0.000 A 
ATOM      4  C   UNL     1       2.683   4.486  19.935  0.00  0.00    +0.000 A 
ATOM      5 CL   UNL     1       3.154   3.033  20.735  0.00  0.00    +0.000 Cl
ATOM      6  C   UNL     1       3.108   4.861  18.647  0.00  0.00    +0.000 A 
ATOM      7  C   UNL     1       2.792   6.162  18.208  0.00  0.00    +0.000 A 
ENDROOT
BRANCH   6   8
ATOM      8  S   UNL     1       3.727   3.764  17.357  0.00  0.00    +0.000 S 
ATOM      9  O   UNL     1       4.398   2.654  18.031  0.00  0.00    +0.000 OA
ATOM     10  O   UNL     1       2.596   3.462  16.506  0.00  0.00    +0.000 OA
BRANCH   8  11
ATOM     11  N   UNL     1       4.914   4.556  16.381  0.00  0.00    +0.000 N 
ATOM     12  C   UNL     1       5.268   3.914  15.104  0.00  0.00    +0.000 C 
BRANCH  11  13
ATOM     13  C   UNL     1       5.960   5.323  17.027  0.00  0.00    +0.000 A 
ATOM     14  C   UNL     1       6.793   4.697  17.944  0.00  0.00    +0.000 A 
ATOM     15  C   UNL     1       7.722   5.427  18.680  0.00  0.00    +0.000 A 
ATOM     16  C   UNL     1       7.866   6.798  18.471  0.00  0.00    +0.000 A 
ATOM     17  C   UNL     1       7.102   7.427  17.487  0.00  0.00    +0.000 A 
ATOM     18  C   UNL     1       6.144   6.699  16.766  0.00  0.00    +0.000 A 
ENDBRANCH  11  13
ENDBRANCH   8  11
ENDBRANCH   6   8
BRANCH   1  19
ATOM     19  C   UNL     1       2.006   8.511  18.673  0.00  0.00    +0.000 C 
ATOM     20  O   UNL     1       2.132   8.941  17.539  0.00  0.00    +0.000 OA
BRANCH  19  21
ATOM     21  O   UNL     1       1.671   9.236  19.770  0.00  0.00    +0.000 OA
BRANCH  21  22
ATOM     22  C   UNL     1       0.318   9.681  19.845  0.00  0.00    +0.000 C 
BRANCH  22  25
ATOM     23  C   UNL     1      -0.788  12.911  18.122  0.00  0.00    +0.000 C 
ATOM     24  N   UNL     1      -0.737  11.488  18.479  0.00  0.00    +0.000 N 
ATOM     25  C   UNL     1       0.198  11.152  19.461  0.00  0.00    +0.000 C 
ATOM     26  O   UNL     1       0.901  12.016  19.995  0.00  0.00    +0.000 OA
BRANCH  24  27
ATOM     27  C   UNL     1      -1.604  10.537  17.755  0.00  0.00    +0.000 C 
BRANCH  27  28
ATOM     28  C   UNL     1      -2.711  11.197  16.926  0.00  0.00    +0.000 C 
BRANCH  28  29
ATOM     29  C   UNL     1      -2.773  10.633  15.515  0.00  0.00    +0.000 C 
ATOM     30  N   UNL     1      -2.825  10.166  14.346  0.00  0.00    +0.000 NA
ENDBRANCH  28  29
ENDBRANCH  27  28
ENDBRANCH  24  27
ENDBRANCH  22  25
ENDBRANCH  21  22
ENDBRANCH  19  21
ENDBRANCH   1  19
TORSDOF 10
ENDMDL
MODEL 3
REMARK VINA RESULT:      -7.0      0.538      1.030
REMARK  Name = 
REMARK  12 active torsions:
REMARK  status: ('A' for Active; 'I' for Inactive)
REMARK    1  A    between atoms: C_1  and  N_2
REMARK    2  A    between atoms: N_2  and  C_3
REMARK    3  A    between atoms: C_3  and  C_4
REMARK    4  A    between atoms: C_4  and  C_5
REMARK    5  A    between atoms: C_7  and  C_9
REMARK    6  A    between atoms: C_9  and  O_10
REMARK    7  A    between atoms: O_10  and  C_11
REMARK    8  A    between atoms: C_11  and  C_13
REMARK    9  A    between atoms: C_18  and  S_19
REMARK   10  A    between atoms: S_19  and  N_22
REMARK   11  A    between atoms: N_22  and  C_23
REMARK   12  A    between atoms: N_22  and  C_24
REMARK                            x       y       z     vdW  Elec       q    Type
REMARK                         _______ _______ _______ _____ _____    ______ ____
ROOT
ATOM      1  C   UNL     1       2.047   7.587  18.832  0.00  0.00    +0.000 A 
ATOM      2  C   UNL     1       1.879   7.747  20.216  0.00  0.00    +0.000 A 
ATOM      3  C   UNL     1       1.856   6.620  21.034  0.00  0.00    +0.000 A 
ATOM      4  C   UNL     1       2.022   5.319  20.485  0.00  0.00    +0.000 A 
ATOM      5 CL   UNL     1       2.256   4.070  21.649  0.00  0.00    +0.000 Cl
ATOM      6  C   UNL     1       2.119   5.140  19.093  0.00  0.00    +0.000 A 
ATOM      7  C   UNL     1       2.090   6.293  18.282  0.00  0.00    +0.000 A 
ENDROOT
BRANCH   6   8
ATOM      8  S   UNL     1       1.945   3.588  18.194  0.00  0.00    +0.000 S 
ATOM      9  O   UNL     1       1.161   2.692  19.042  0.00  0.00    +0.000 OA
ATOM     10  O   UNL     1       1.415   3.931  16.891  0.00  0.00    +0.000 OA
BRANCH   8  11
ATOM     11  N   UNL     1       3.481   2.834  17.947  0.00  0.00    +0.000 N 
ATOM     12  C   UNL     1       3.751   1.600  18.702  0.00  0.00    +0.000 C 
BRANCH  11  13
ATOM     13  C   UNL     1       4.630   3.661  17.634  0.00  0.00    +0.000 A 
ATOM     14  C   UNL     1       4.970   3.878  16.306  0.00  0.00    +0.000 A 
ATOM     15  C   UNL     1       6.138   4.555  15.968  0.00  0.00    +0.000 A 
ATOM     16  C   UNL     1       6.966   5.072  16.964  0.00  0.00    +0.000 A 
ATOM     17  C   UNL     1       6.592   4.943  18.303  0.00  0.00    +0.000 A 
ATOM     18  C   UNL     1       5.431   4.235  18.646  0.00  0.00    +0.000 A 
ENDBRANCH  11  13
ENDBRANCH   8  11
ENDBRANCH   6   8
BRANCH   1  19
ATOM     19  C   UNL     1       2.234   8.794  18.008  0.00  0.00    +0.000 C 
ATOM     20  O   UNL     1       2.981   8.860  17.047  0.00  0.00    +0.000 OA
BRANCH  19  21
ATOM     21  O   UNL     1       1.417   9.781  18.455  0.00  0.00    +0.000 OA
BRANCH  21  22
ATOM     22  C   UNL     1       0.027   9.626  18.177  0.00  0.00    +0.000 C 
BRANCH  22  25
ATOM     23  C   UNL     1      -2.856  11.971  19.080  0.00  0.00    +0.000 C 
ATOM     24  N   UNL     1      -2.120  10.880  18.430  0.00  0.00    +0.000 N 
ATOM     25  C   UNL     1      -0.795  10.722  18.845  0.00  0.00    +0.000 C 
ATOM     26  O   UNL     1      -0.311  11.447  19.722  0.00  0.00    +0.000 OA
BRANCH  24  27
ATOM     27  C   UNL     1      -2.790  10.095  17.374  0.00  0.00    +0.000 C 
BRANCH  27  28
ATOM     28  C   UNL     1      -3.636  10.930  16.408  0.00  0.00    +0.000 C 
BRANCH  28  29
ATOM     29  C   UNL     1      -3.471  10.467  14.968  0.00  0.00    +0.000 C 
ATOM     30  N   UNL     1      -3.335  10.084  13.776  0.00  0.00    +0.000 NA
ENDBRANCH  28  29
ENDBRANCH  27  28
ENDBRANCH  24  27
ENDBRANCH  22  25
ENDBRANCH  21  22
ENDBRANCH  19  21
ENDBRANCH   1  19
TORSDOF 10
ENDMDL
MODEL 4
REMARK VINA RESULT:      -7.0      2.582      3.613
REMARK  Name = 
REMARK  12 active torsions:
REMARK  status: ('A' for Active; 'I' for Inactive)
REMARK    1  A    between atoms: C_1  and  N_2
REMARK    2  A    between atoms: N_2  and  C_3
REMARK    3  A    between atoms: C_3  and  C_4
REMARK    4  A    between atoms: C_4  and  C_5
REMARK    5  A    between atoms: C_7  and  C_9
REMARK    6  A    between atoms: C_9  and  O_10
REMARK    7  A    between atoms: O_10  and  C_11
REMARK    8  A    between atoms: C_11  and  C_13
REMARK    9  A    between atoms: C_18  and  S_19
REMARK   10  A    between atoms: S_19  and  N_22
REMARK   11  A    between atoms: N_22  and  C_23
REMARK   12  A    between atoms: N_22  and  C_24
REMARK                            x       y       z     vdW  Elec       q    Type
REMARK                         _______ _______ _______ _____ _____    ______ ____
ROOT
ATOM      1  C   UNL     1       2.420   6.698  19.160  0.00  0.00    +0.000 A 
ATOM      2  C   UNL     1       1.749   5.466  19.113  0.00  0.00    +0.000 A 
ATOM      3  C   UNL     1       2.296   4.421  18.372  0.00  0.00    +0.000 A 
ATOM      4  C   UNL     1       3.531   4.584  17.685  0.00  0.00    +0.000 A 
ATOM      5 CL   UNL     1       4.206   3.126  17.061  0.00  0.00    +0.000 Cl
ATOM      6  C   UNL     1       4.176   5.834  17.666  0.00  0.00    +0.000 A 
ATOM      7  C   UNL     1       3.577   6.890  18.383  0.00  0.00    +0.000 A 
ENDROOT
BRANCH   6   8
ATOM      8  S   UNL     1       5.508   6.340  16.562  0.00  0.00    +0.000 S 
ATOM      9  O   UNL     1       4.879   6.903  15.369  0.00  0.00    +0.000 OA
ATOM     10  O   UNL     1       6.378   7.193  17.341  0.00  0.00    +0.000 OA
BRANCH   8  11
ATOM     11  N   UNL     1       6.441   4.979  16.047  0.00  0.00    +0.000 N 
ATOM     12  C   UNL     1       7.539   4.547  16.929  0.00  0.00    +0.000 C 
BRANCH  11  13
ATOM     13  C   UNL     1       6.628   4.747  14.628  0.00  0.00    +0.000 A 
ATOM     14  C   UNL     1       5.815   3.828  13.978  0.00  0.00    +0.000 A 
ATOM     15  C   UNL     1       6.048   3.483  12.650  0.00  0.00    +0.000 A 
ATOM     16  C   UNL     1       7.076   4.093  11.933  0.00  0.00    +0.000 A 
ATOM     17  C   UNL     1       7.844   5.086  12.543  0.00  0.00    +0.000 A 
ATOM     18  C   UNL     1       7.630   5.414  13.890  0.00  0.00    +0.000 A 
ENDBRANCH  11  13
ENDBRANCH   8  11
ENDBRANCH   6   8
BRANCH   1  19
ATOM     19  C   UNL     1       1.915   7.733  20.079  0.00  0.00    +0.000 C 
ATOM     20  O   UNL     1       1.854   7.606  21.290  0.00  0.00    +0.000 OA
BRANCH  19  21
ATOM     21  O   UNL     1       1.584   8.844  19.374  0.00  0.00    +0.000 OA
BRANCH  21  22
ATOM     22  C   UNL     1       0.302   9.409  19.648  0.00  0.00    +0.000 C 
BRANCH  22  25
ATOM     23  C   UNL     1      -0.568  12.863  18.257  0.00  0.00    +0.000 C 
ATOM     24  N   UNL     1      -0.629  11.414  18.483  0.00  0.00    +0.000 N 
ATOM     25  C   UNL     1       0.298  10.913  19.401  0.00  0.00    +0.000 C 
ATOM     26  O   UNL     1       1.084  11.665  19.988  0.00  0.00    +0.000 OA
BRANCH  24  27
ATOM     27  C   UNL     1      -1.590  10.608  17.704  0.00  0.00    +0.000 C 
BRANCH  27  28
ATOM     28  C   UNL     1      -2.545  11.431  16.834  0.00  0.00    +0.000 C 
BRANCH  28  29
ATOM     29  C   UNL     1      -2.898  10.709  15.543  0.00  0.00    +0.000 C 
ATOM     30  N   UNL     1      -3.190  10.111  14.474  0.00  0.00    +0.000 NA
ENDBRANCH  28  29
ENDBRANCH  27  28
ENDBRANCH  24  27
ENDBRANCH  22  25
ENDBRANCH  21  22
ENDBRANCH  19  21
ENDBRANCH   1  19
TORSDOF 10
ENDMDL
MODEL 5
REMARK VINA RESULT:      -7.0      0.902      1.308
REMARK  Name = 
REMARK  12 active torsions:
REMARK  status: ('A' for Active; 'I' for Inactive)
REMARK    1  A    between atoms: C_1  and  N_2
REMARK    2  A    between atoms: N_2  and  C_3
REMARK    3  A    between atoms: C_3  and  C_4
REMARK    4  A    between atoms: C_4  and  C_5
REMARK    5  A    between atoms: C_7  and  C_9
REMARK    6  A    between atoms: C_9  and  O_10
REMARK    7  A    between atoms: O_10  and  C_11
REMARK    8  A    between atoms: C_11  and  C_13
REMARK    9  A    between atoms: C_18  and  S_19
REMARK   10  A    between atoms: S_19  and  N_22
REMARK   11  A    between atoms: N_22  and  C_23
REMARK   12  A    between atoms: N_22  and  C_24
REMARK                            x       y       z     vdW  Elec       q    Type
REMARK                         _______ _______ _______ _____ _____    ______ ____
ROOT
ATOM      1  C   UNL     1       1.994   7.536  18.901  0.00  0.00    +0.000 A 
ATOM      2  C   UNL     1       1.809   7.662  20.286  0.00  0.00    +0.000 A 
ATOM      3  C   UNL     1       1.795   6.515  21.077  0.00  0.00    +0.000 A 
ATOM      4  C   UNL     1       1.988   5.231  20.500  0.00  0.00    +0.000 A 
ATOM      5 CL   UNL     1       2.229   3.959  21.639  0.00  0.00    +0.000 Cl
ATOM      6  C   UNL     1       2.102   5.085  19.106  0.00  0.00    +0.000 A 
ATOM      7  C   UNL     1       2.063   6.256  18.322  0.00  0.00    +0.000 A 
ENDROOT
BRANCH   6   8
ATOM      8  S   UNL     1       1.963   3.551  18.169  0.00  0.00    +0.000 S 
ATOM      9  O   UNL     1       1.150   2.638  18.971  0.00  0.00    +0.000 OA
ATOM     10  O   UNL     1       1.480   3.921  16.856  0.00  0.00    +0.000 OA
BRANCH   8  11
ATOM     11  N   UNL     1       3.508   2.804  17.962  0.00  0.00    +0.000 N 
ATOM     12  C   UNL     1       3.769   1.580  18.738  0.00  0.00    +0.000 C 
BRANCH  11  13
ATOM     13  C   UNL     1       4.659   3.634  17.664  0.00  0.00    +0.000 A 
ATOM     14  C   UNL     1       5.028   3.832  16.341  0.00  0.00    +0.000 A 
ATOM     15  C   UNL     1       6.199   4.512  16.020  0.00  0.00    +0.000 A 
ATOM     16  C   UNL     1       7.000   5.051  17.027  0.00  0.00    +0.000 A 
ATOM     17  C   UNL     1       6.596   4.940  18.358  0.00  0.00    +0.000 A 
ATOM     18  C   UNL     1       5.432   4.230  18.685  0.00  0.00    +0.000 A 
ENDBRANCH  11  13
ENDBRANCH   8  11
ENDBRANCH   6   8
BRANCH   1  19
ATOM     19  C   UNL     1       2.171   8.765  18.106  0.00  0.00    +0.000 C 
ATOM     20  O   UNL     1       2.796   8.823  17.062  0.00  0.00    +0.000 OA
BRANCH  19  21
ATOM     21  O   UNL     1       1.494   9.785  18.691  0.00  0.00    +0.000 OA
BRANCH  21  22
ATOM     22  C   UNL     1       0.136   9.957  18.288  0.00  0.00    +0.000 C 
BRANCH  22  25
ATOM     23  C   UNL     1      -2.445  12.253  19.930  0.00  0.00    +0.000 C 
ATOM     24  N   UNL     1      -1.738  11.497  18.889  0.00  0.00    +0.000 N 
ATOM     25  C   UNL     1      -0.656  10.735  19.334  0.00  0.00    +0.000 C 
ATOM     26  O   UNL     1      -0.354  10.695  20.532  0.00  0.00    +0.000 OA
BRANCH  24  27
ATOM     27  C   UNL     1      -2.169  11.642  17.483  0.00  0.00    +0.000 C 
BRANCH  27  28
ATOM     28  C   UNL     1      -3.185  10.593  17.023  0.00  0.00    +0.000 C 
BRANCH  28  29
ATOM     29  C   UNL     1      -4.602  10.962  17.430  0.00  0.00    +0.000 C 
ATOM     30  N   UNL     1      -5.777  11.268  17.768  0.00  0.00    +0.000 NA
ENDBRANCH  28  29
ENDBRANCH  27  28
ENDBRANCH  24  27
ENDBRANCH  22  25
ENDBRANCH  21  22
ENDBRANCH  19  21
ENDBRANCH   1  19
TORSDOF 10
ENDMDL
MODEL 6
REMARK VINA RESULT:      -6.9      1.752      2.322
REMARK  Name = 
REMARK  12 active torsions:
REMARK  status: ('A' for Active; 'I' for Inactive)
REMARK    1  A    between atoms: C_1  and  N_2
REMARK    2  A    between atoms: N_2  and  C_3
REMARK    3  A    between atoms: C_3  and  C_4
REMARK    4  A    between atoms: C_4  and  C_5
REMARK    5  A    between atoms: C_7  and  C_9
REMARK    6  A    between atoms: C_9  and  O_10
REMARK    7  A    between atoms: O_10  and  C_11
REMARK    8  A    between atoms: C_11  and  C_13
REMARK    9  A    between atoms: C_18  and  S_19
REMARK   10  A    between atoms: S_19  and  N_22
REMARK   11  A    between atoms: N_22  and  C_23
REMARK   12  A    between atoms: N_22  and  C_24
REMARK                            x       y       z     vdW  Elec       q    Type
REMARK                         _______ _______ _______ _____ _____    ______ ____
ROOT
ATOM      1  C   UNL     1       2.154   6.671  19.534  0.00  0.00    +0.000 A 
ATOM      2  C   UNL     1       1.826   6.090  20.769  0.00  0.00    +0.000 A 
ATOM      3  C   UNL     1       2.167   4.761  21.008  0.00  0.00    +0.000 A 
ATOM      4  C   UNL     1       2.861   4.000  20.027  0.00  0.00    +0.000 A 
ATOM      5 CL   UNL     1       3.457   2.481  20.583  0.00  0.00    +0.000 Cl
ATOM      6  C   UNL     1       3.132   4.548  18.760  0.00  0.00    +0.000 A 
ATOM      7  C   UNL     1       2.732   5.879  18.525  0.00  0.00    +0.000 A 
ENDROOT
BRANCH   6   8
ATOM      8  S   UNL     1       3.637   3.646  17.284  0.00  0.00    +0.000 S 
ATOM      9  O   UNL     1       4.257   2.403  17.739  0.00  0.00    +0.000 OA
ATOM     10  O   UNL     1       2.463   3.554  16.443  0.00  0.00    +0.000 OA
BRANCH   8  11
ATOM     11  N   UNL     1       4.840   4.518  16.401  0.00  0.00    +0.000 N 
ATOM     12  C   UNL     1       5.288   3.936  15.125  0.00  0.00    +0.000 C 
BRANCH  11  13
ATOM     13  C   UNL     1       5.818   5.303  17.127  0.00  0.00    +0.000 A 
ATOM     14  C   UNL     1       5.941   6.658  16.851  0.00  0.00    +0.000 A 
ATOM     15  C   UNL     1       6.954   7.417  17.431  0.00  0.00    +0.000 A 
ATOM     16  C   UNL     1       7.836   6.836  18.342  0.00  0.00    +0.000 A 
ATOM     17  C   UNL     1       7.669   5.498  18.701  0.00  0.00    +0.000 A 
ATOM     18  C   UNL     1       6.668   4.724  18.095  0.00  0.00    +0.000 A 
ENDBRANCH  11  13
ENDBRANCH   8  11
ENDBRANCH   6   8
BRANCH   1  19
ATOM     19  C   UNL     1       1.934   8.118  19.364  0.00  0.00    +0.000 C 
ATOM     20  O   UNL     1       2.179   8.734  18.341  0.00  0.00    +0.000 OA
BRANCH  19  21
ATOM     21  O   UNL     1       1.379   8.629  20.491  0.00  0.00    +0.000 OA
BRANCH  21  22
ATOM     22  C   UNL     1       0.253   9.487  20.310  0.00  0.00    +0.000 C 
BRANCH  22  25
ATOM     23  C   UNL     1       0.586  13.293  20.146  0.00  0.00    +0.000 C 
ATOM     24  N   UNL     1       0.202  11.927  19.772  0.00  0.00    +0.000 N 
ATOM     25  C   UNL     1       0.595  10.929  20.667  0.00  0.00    +0.000 C 
ATOM     26  O   UNL     1       1.197  11.209  21.710  0.00  0.00    +0.000 OA
BRANCH  24  27
ATOM     27  C   UNL     1      -0.491  11.705  18.487  0.00  0.00    +0.000 C 
BRANCH  27  28
ATOM     28  C   UNL     1      -2.014  11.850  18.559  0.00  0.00    +0.000 C 
BRANCH  28  29
ATOM     29  C   UNL     1      -2.725  10.625  18.005  0.00  0.00    +0.000 C 
ATOM     30  N   UNL     1      -3.313   9.610  17.546  0.00  0.00    +0.000 NA
ENDBRANCH  28  29
ENDBRANCH  27  28
ENDBRANCH  24  27
ENDBRANCH  22  25
ENDBRANCH  21  22
ENDBRANCH  19  21
ENDBRANCH   1  19
TORSDOF 10
ENDMDL
MODEL 7
REMARK VINA RESULT:      -6.8      2.998      8.816
REMARK  Name = 
REMARK  12 active torsions:
REMARK  status: ('A' for Active; 'I' for Inactive)
REMARK    1  A    between atoms: C_1  and  N_2
REMARK    2  A    between atoms: N_2  and  C_3
REMARK    3  A    between atoms: C_3  and  C_4
REMARK    4  A    between atoms: C_4  and  C_5
REMARK    5  A    between atoms: C_7  and  C_9
REMARK    6  A    between atoms: C_9  and  O_10
REMARK    7  A    between atoms: O_10  and  C_11
REMARK    8  A    between atoms: C_11  and  C_13
REMARK    9  A    between atoms: C_18  and  S_19
REMARK   10  A    between atoms: S_19  and  N_22
REMARK   11  A    between atoms: N_22  and  C_23
REMARK   12  A    between atoms: N_22  and  C_24
REMARK                            x       y       z     vdW  Elec       q    Type
REMARK                         _______ _______ _______ _____ _____    ______ ____
ROOT
ATOM      1  C   UNL     1       1.829   8.349  19.590  0.00  0.00    +0.000 A 
ATOM      2  C   UNL     1       1.563   7.684  20.797  0.00  0.00    +0.000 A 
ATOM      3  C   UNL     1       0.817   8.330  21.780  0.00  0.00    +0.000 A 
ATOM      4  C   UNL     1       0.308   9.640  21.564  0.00  0.00    +0.000 A 
ATOM      5 CL   UNL     1      -0.823  10.177  22.749  0.00  0.00    +0.000 Cl
ATOM      6  C   UNL     1       0.628  10.344  20.389  0.00  0.00    +0.000 A 
ATOM      7  C   UNL     1       1.425   9.687  19.430  0.00  0.00    +0.000 A 
ENDROOT
BRANCH   6   8
ATOM      8  S   UNL     1       0.414  12.111  20.103  0.00  0.00    +0.000 S 
ATOM      9  O   UNL     1       0.755  12.787  21.353  0.00  0.00    +0.000 OA
ATOM     10  O   UNL     1       1.190  12.427  18.923  0.00  0.00    +0.000 OA
BRANCH   8  11
ATOM     11  N   UNL     1      -1.236  12.492  19.755  0.00  0.00    +0.000 N 
ATOM     12  C   UNL     1      -2.003  13.172  20.812  0.00  0.00    +0.000 C 
BRANCH  11  13
ATOM     13  C   UNL     1      -1.989  11.625  18.871  0.00  0.00    +0.000 A 
ATOM     14  C   UNL     1      -1.307  10.757  18.028  0.00  0.00    +0.000 A 
ATOM     15  C   UNL     1      -1.988  10.005  17.075  0.00  0.00    +0.000 A 
ATOM     16  C   UNL     1      -3.378  10.075  16.983  0.00  0.00    +0.000 A 
ATOM     17  C   UNL     1      -4.086  10.872  17.883  0.00  0.00    +0.000 A 
ATOM     18  C   UNL     1      -3.400  11.653  18.825  0.00  0.00    +0.000 A 
ENDBRANCH  11  13
ENDBRANCH   8  11
ENDBRANCH   6   8
BRANCH   1  19
ATOM     19  C   UNL     1       2.473   7.591  18.503  0.00  0.00    +0.000 C 
ATOM     20  O   UNL     1       2.897   8.090  17.475  0.00  0.00    +0.000 OA
BRANCH  19  21
ATOM     21  O   UNL     1       2.560   6.283  18.851  0.00  0.00    +0.000 OA
BRANCH  21  22
ATOM     22  C   UNL     1       3.869   5.716  18.859  0.00  0.00    +0.000 C 
BRANCH  22  25
ATOM     23  C   UNL     1       5.514   5.068  15.468  0.00  0.00    +0.000 C 
ATOM     24  N   UNL     1       5.249   5.679  16.776  0.00  0.00    +0.000 N 
ATOM     25  C   UNL     1       4.211   5.098  17.507  0.00  0.00    +0.000 C 
ATOM     26  O   UNL     1       3.594   4.119  17.072  0.00  0.00    +0.000 OA
BRANCH  24  27
ATOM     27  C   UNL     1       6.030   6.865  17.182  0.00  0.00    +0.000 C 
BRANCH  27  28
ATOM     28  C   UNL     1       7.486   6.566  17.551  0.00  0.00    +0.000 C 
BRANCH  28  29
ATOM     29  C   UNL     1       7.602   5.936  18.929  0.00  0.00    +0.000 C 
ATOM     30  N   UNL     1       7.698   5.412  20.072  0.00  0.00    +0.000 NA
ENDBRANCH  28  29
ENDBRANCH  27  28
ENDBRANCH  24  27
ENDBRANCH  22  25
ENDBRANCH  21  22
ENDBRANCH  19  21
ENDBRANCH   1  19
TORSDOF 10
ENDMDL
MODEL 8
REMARK VINA RESULT:      -6.8      3.088      8.608
REMARK  Name = 
REMARK  12 active torsions:
REMARK  status: ('A' for Active; 'I' for Inactive)
REMARK    1  A    between atoms: C_1  and  N_2
REMARK    2  A    between atoms: N_2  and  C_3
REMARK    3  A    between atoms: C_3  and  C_4
REMARK    4  A    between atoms: C_4  and  C_5
REMARK    5  A    between atoms: C_7  and  C_9
REMARK    6  A    between atoms: C_9  and  O_10
REMARK    7  A    between atoms: O_10  and  C_11
REMARK    8  A    between atoms: C_11  and  C_13
REMARK    9  A    between atoms: C_18  and  S_19
REMARK   10  A    between atoms: S_19  and  N_22
REMARK   11  A    between atoms: N_22  and  C_23
REMARK   12  A    between atoms: N_22  and  C_24
REMARK                            x       y       z     vdW  Elec       q    Type
REMARK                         _______ _______ _______ _____ _____    ______ ____
ROOT
ATOM      1  C   UNL     1       1.686   8.632  19.446  0.00  0.00    +0.000 A 
ATOM      2  C   UNL     1       1.649   7.852  20.611  0.00  0.00    +0.000 A 
ATOM      3  C   UNL     1       0.991   8.341  21.738  0.00  0.00    +0.000 A 
ATOM      4  C   UNL     1       0.342   9.606  21.709  0.00  0.00    +0.000 A 
ATOM      5 CL   UNL     1      -0.659   9.932  23.075  0.00  0.00    +0.000 Cl
ATOM      6  C   UNL     1       0.432  10.428  20.571  0.00  0.00    +0.000 A 
ATOM      7  C   UNL     1       1.145   9.931  19.462  0.00  0.00    +0.000 A 
ENDROOT
BRANCH   6   8
ATOM      8  S   UNL     1       0.024  12.181  20.476  0.00  0.00    +0.000 S 
ATOM      9  O   UNL     1       0.478  12.790  21.725  0.00  0.00    +0.000 OA
ATOM     10  O   UNL     1       0.592  12.663  19.236  0.00  0.00    +0.000 OA
BRANCH   8  11
ATOM     11  N   UNL     1      -1.686  12.419  20.390  0.00  0.00    +0.000 N 
ATOM     12  C   UNL     1      -2.403  12.593  21.665  0.00  0.00    +0.000 C 
BRANCH  11  13
ATOM     13  C   UNL     1      -2.432  11.799  19.313  0.00  0.00    +0.000 A 
ATOM     14  C   UNL     1      -3.756  12.162  19.108  0.00  0.00    +0.000 A 
ATOM     15  C   UNL     1      -4.542  11.497  18.171  0.00  0.00    +0.000 A 
ATOM     16  C   UNL     1      -3.995  10.483  17.384  0.00  0.00    +0.000 A 
ATOM     17  C   UNL     1      -2.642  10.169  17.514  0.00  0.00    +0.000 A 
ATOM     18  C   UNL     1      -1.856  10.817  18.478  0.00  0.00    +0.000 A 
ENDBRANCH  11  13
ENDBRANCH   8  11
ENDBRANCH   6   8
BRANCH   1  19
ATOM     19  C   UNL     1       2.239   8.031  18.220  0.00  0.00    +0.000 C 
ATOM     20  O   UNL     1       2.524   8.658  17.215  0.00  0.00    +0.000 OA
BRANCH  19  21
ATOM     21  O   UNL     1       2.422   6.700  18.410  0.00  0.00    +0.000 OA
BRANCH  21  22
ATOM     22  C   UNL     1       3.542   6.114  17.748  0.00  0.00    +0.000 C 
BRANCH  22  25
ATOM     23  C   UNL     1       4.529   2.823  19.428  0.00  0.00    +0.000 C 
ATOM     24  N   UNL     1       3.851   3.758  18.522  0.00  0.00    +0.000 N 
ATOM     25  C   UNL     1       4.240   5.094  18.642  0.00  0.00    +0.000 C 
ATOM     26  O   UNL     1       5.117   5.434  19.443  0.00  0.00    +0.000 OA
BRANCH  24  27
ATOM     27  C   UNL     1       2.797   3.246  17.623  0.00  0.00    +0.000 C 
BRANCH  27  28
ATOM     28  C   UNL     1       1.569   2.683  18.346  0.00  0.00    +0.000 C 
BRANCH  28  29
ATOM     29  C   UNL     1       1.160   3.553  19.525  0.00  0.00    +0.000 C 
ATOM     30  N   UNL     1       0.821   4.273  20.502  0.00  0.00    +0.000 NA
ENDBRANCH  28  29
ENDBRANCH  27  28
ENDBRANCH  24  27
ENDBRANCH  22  25
ENDBRANCH  21  22
ENDBRANCH  19  21
ENDBRANCH   1  19
TORSDOF 10
ENDMDL
MODEL 9
REMARK VINA RESULT:      -6.8      2.975      8.805
REMARK  Name = 
REMARK  12 active torsions:
REMARK  status: ('A' for Active; 'I' for Inactive)
REMARK    1  A    between atoms: C_1  and  N_2
REMARK    2  A    between atoms: N_2  and  C_3
REMARK    3  A    between atoms: C_3  and  C_4
REMARK    4  A    between atoms: C_4  and  C_5
REMARK    5  A    between atoms: C_7  and  C_9
REMARK    6  A    between atoms: C_9  and  O_10
REMARK    7  A    between atoms: O_10  and  C_11
REMARK    8  A    between atoms: C_11  and  C_13
REMARK    9  A    between atoms: C_18  and  S_19
REMARK   10  A    between atoms: S_19  and  N_22
REMARK   11  A    between atoms: N_22  and  C_23
REMARK   12  A    between atoms: N_22  and  C_24
REMARK                            x       y       z     vdW  Elec       q    Type
REMARK                         _______ _______ _______ _____ _____    ______ ____
ROOT
ATOM      1  C   UNL     1       1.529   8.543  20.109  0.00  0.00    +0.000 A 
ATOM      2  C   UNL     1       1.220   8.108  21.407  0.00  0.00    +0.000 A 
ATOM      3  C   UNL     1       0.467   8.933  22.240  0.00  0.00    +0.000 A 
ATOM      4  C   UNL     1      -0.007  10.192  21.782  0.00  0.00    +0.000 A 
ATOM      5 CL   UNL     1      -1.153  10.952  22.822  0.00  0.00    +0.000 Cl
ATOM      6  C   UNL     1       0.356  10.671  20.510  0.00  0.00    +0.000 A 
ATOM      7  C   UNL     1       1.160   9.839  19.704  0.00  0.00    +0.000 A 
ENDROOT
BRANCH   6   8
ATOM      8  S   UNL     1       0.189  12.362  19.909  0.00  0.00    +0.000 S 
ATOM      9  O   UNL     1       0.501  13.243  21.033  0.00  0.00    +0.000 OA
ATOM     10  O   UNL     1       1.012  12.453  18.722  0.00  0.00    +0.000 OA
BRANCH   8  11
ATOM     11  N   UNL     1      -1.439  12.699  19.438  0.00  0.00    +0.000 N 
ATOM     12  C   UNL     1      -2.277  13.432  20.403  0.00  0.00    +0.000 C 
BRANCH  11  13
ATOM     13  C   UNL     1      -2.128  11.771  18.564  0.00  0.00    +0.000 A 
ATOM     14  C   UNL     1      -3.512  11.675  18.630  0.00  0.00    +0.000 A 
ATOM     15  C   UNL     1      -4.196  10.706  17.903  0.00  0.00    +0.000 A 
ATOM     16  C   UNL     1      -3.505   9.842  17.054  0.00  0.00    +0.000 A 
ATOM     17  C   UNL     1      -2.124   9.984  16.906  0.00  0.00    +0.000 A 
ATOM     18  C   UNL     1      -1.429  10.940  17.661  0.00  0.00    +0.000 A 
ENDBRANCH  11  13
ENDBRANCH   8  11
ENDBRANCH   6   8
BRANCH   1  19
ATOM     19  C   UNL     1       2.181   7.593  19.191  0.00  0.00    +0.000 C 
ATOM     20  O   UNL     1       2.552   7.871  18.065  0.00  0.00    +0.000 OA
BRANCH  19  21
ATOM     21  O   UNL     1       2.342   6.398  19.814  0.00  0.00    +0.000 OA
BRANCH  21  22
ATOM     22  C   UNL     1       3.588   5.736  19.601  0.00  0.00    +0.000 C 
BRANCH  22  25
ATOM     23  C   UNL     1       3.478   2.305  17.916  0.00  0.00    +0.000 C 
ATOM     24  N   UNL     1       3.723   3.740  18.104  0.00  0.00    +0.000 N 
ATOM     25  C   UNL     1       3.387   4.244  19.363  0.00  0.00    +0.000 C 
ATOM     26  O   UNL     1       2.943   3.505  20.248  0.00  0.00    +0.000 OA
BRANCH  24  27
ATOM     27  C   UNL     1       4.230   4.534  16.966  0.00  0.00    +0.000 C 
BRANCH  27  28
ATOM     28  C   UNL     1       5.393   3.883  16.211  0.00  0.00    +0.000 C 
BRANCH  28  29
ATOM     29  C   UNL     1       6.516   4.873  15.944  0.00  0.00    +0.000 C 
ATOM     30  N   UNL     1       7.447   5.693  15.723  0.00  0.00    +0.000 NA
ENDBRANCH  28  29
ENDBRANCH  27  28
ENDBRANCH  24  27
ENDBRANCH  22  25
ENDBRANCH  21  22
ENDBRANCH  19  21
ENDBRANCH   1  19
TORSDOF 10
ENDMDL
