MODEL 1
REMARK VINA RESULT:      -8.7      0.000      0.000
REMARK  Name = 
REMARK  11 active torsions:
REMARK  status: ('A' for Active; 'I' for Inactive)
REMARK    1  A    between atoms: C_1  and  O_2
REMARK    2  A    between atoms: O_2  and  C_3
REMARK    3  A    between atoms: C_6  and  C_7
REMARK    4  A    between atoms: N_9  and  C_10
REMARK    5  A    between atoms: C_13  and  O_14
REMARK    6  A    between atoms: O_14  and  C_15
REMARK    7  A    between atoms: C_15  and  C_16
REMARK    8  A    between atoms: C_16  and  N_17
REMARK    9  A    between atoms: C_25  and  C_26
REMARK   10  A    between atoms: C_30  and  O_31
REMARK   11  A    between atoms: C_33  and  O_34
REMARK                            x       y       z     vdW  Elec       q    Type
REMARK                         _______ _______ _______ _____ _____    ______ ____
ROOT
ATOM      1  C   UNL     1       2.649   7.502  18.390  0.00  0.00    +0.000 C 
ATOM      2  O   UNL     1       2.256   7.299  19.531  0.00  0.00    +0.000 OA
ATOM      3  N   UNL     1       2.173   8.541  17.593  0.00  0.00    +0.000 N 
ATOM      4  H   UNL     1       2.231   8.442  16.592  0.00  0.00    +0.000 HD
ENDROOT
BRANCH   3   5
ATOM      5  C   UNL     1       1.222   9.476  18.041  0.00  0.00    +0.000 A 
ATOM      6  C   UNL     1      -0.118   9.266  17.701  0.00  0.00    +0.000 A 
ATOM      7  C   UNL     1      -1.087  10.216  18.030  0.00  0.00    +0.000 A 
ATOM      8  C   UNL     1      -0.710  11.404  18.656  0.00  0.00    +0.000 A 
ATOM      9  C   UNL     1       0.640  11.609  18.961  0.00  0.00    +0.000 A 
ATOM     10  F   UNL     1       1.031  12.770  19.508  0.00  0.00    +0.000 F 
ATOM     11  C   UNL     1       1.604  10.640  18.691  0.00  0.00    +0.000 A 
BRANCH   8  12
ATOM     12  O   UNL     1      -1.578  12.416  18.980  0.00  0.00    +0.000 OA
BRANCH  12  13
ATOM     13  C   UNL     1      -2.561  12.078  19.966  0.00  0.00    +0.000 C 
BRANCH  13  14
ATOM     14  C   UNL     1      -3.954  12.431  19.420  0.00  0.00    +0.000 C 
BRANCH  14  15
ATOM     15  N   UNL     1      -4.580  11.349  18.632  0.00  0.00    +0.000 NA
ATOM     16  C   UNL     1      -4.616  11.703  17.201  0.00  0.00    +0.000 C 
ATOM     17  C   UNL     1      -5.892  12.496  17.031  0.00  0.00    +0.000 C 
ATOM     18  C   UNL     1      -6.864  11.800  17.959  0.00  0.00    +0.000 C 
ATOM     19  C   UNL     1      -5.989  11.099  18.992  0.00  0.00    +0.000 C 
ENDBRANCH  14  15
ENDBRANCH  13  14
ENDBRANCH  12  13
ENDBRANCH   8  12
ENDBRANCH   3   5
BRANCH   1  23
ATOM     20  C   UNL     1       5.668   5.091  16.411  0.00  0.00    +0.000 A 
ATOM     21  C   UNL     1       5.597   6.469  16.250  0.00  0.00    +0.000 A 
ATOM     22  C   UNL     1       4.611   7.209  16.890  0.00  0.00    +0.000 A 
ATOM     23  C   UNL     1       3.667   6.595  17.740  0.00  0.00    +0.000 A 
ATOM     24  C   UNL     1       3.689   5.178  17.927  0.00  0.00    +0.000 A 
ATOM     25  C   UNL     1       4.730   4.456  17.248  0.00  0.00    +0.000 A 
BRANCH  24  26
ATOM     26  C   UNL     1       2.693   4.450  18.779  0.00  0.00    +0.000 A 
ATOM     27  C   UNL     1       1.470   3.974  18.270  0.00  0.00    +0.000 A 
ATOM     28  C   UNL     1       0.564   3.262  19.068  0.00  0.00    +0.000 A 
ATOM     29  C   UNL     1       0.811   3.085  20.425  0.00  0.00    +0.000 A 
ATOM     30  C   UNL     1       1.987   3.589  20.961  0.00  0.00    +0.000 A 
ATOM     31  C   UNL     1       2.932   4.219  20.151  0.00  0.00    +0.000 A 
BRANCH  30  32
ATOM     32  O   UNL     1       2.256   3.495  22.295  0.00  0.00    +0.000 OA
ATOM     33  H   UNL     1       2.068   2.588  22.585  0.00  0.00    +0.000 HD
ENDBRANCH  30  32
ENDBRANCH  24  26
BRANCH  20  35
ATOM     34  C   UNL     1       6.507   4.217  14.335  0.00  0.00    +0.000 C 
ATOM     35  O   UNL     1       6.704   4.552  15.699  0.00  0.00    +0.000 OA
ENDBRANCH  20  35
BRANCH  25  36
ATOM     36  O   UNL     1       4.868   3.097  17.418  0.00  0.00    +0.000 OA
ATOM     37  H   UNL     1       5.114   2.678  16.577  0.00  0.00    +0.000 HD
ENDBRANCH  25  36
ENDBRANCH   1  23
TORSDOF 10
ENDMDL
MODEL 2
REMARK VINA RESULT:      -8.5      1.185      1.634
REMARK  Name = 
REMARK  11 active torsions:
REMARK  status: ('A' for Active; 'I' for Inactive)
REMARK    1  A    between atoms: C_1  and  O_2
REMARK    2  A    between atoms: O_2  and  C_3
REMARK    3  A    between atoms: C_6  and  C_7
REMARK    4  A    between atoms: N_9  and  C_10
REMARK    5  A    between atoms: C_13  and  O_14
REMARK    6  A    between atoms: O_14  and  C_15
REMARK    7  A    between atoms: C_15  and  C_16
REMARK    8  A    between atoms: C_16  and  N_17
REMARK    9  A    between atoms: C_25  and  C_26
REMARK   10  A    between atoms: C_30  and  O_31
REMARK   11  A    between atoms: C_33  and  O_34
REMARK                            x       y       z     vdW  Elec       q    Type
REMARK                         _______ _______ _______ _____ _____    ______ ____
ROOT
ATOM      1  C   UNL     1       3.142   7.094  18.363  0.00  0.00    +0.000 C 
ATOM      2  O   UNL     1       2.908   6.916  19.551  0.00  0.00    +0.000 OA
ATOM      3  N   UNL     1       2.692   8.208  17.656  0.00  0.00    +0.000 N 
ATOM      4  H   UNL     1       2.578   8.128  16.659  0.00  0.00    +0.000 HD
ENDROOT
BRANCH   3   5
ATOM      5  C   UNL     1       1.960   9.250  18.254  0.00  0.00    +0.000 A 
ATOM      6  C   UNL     1       0.777   8.922  18.924  0.00  0.00    +0.000 A 
ATOM      7  C   UNL     1      -0.041   9.927  19.445  0.00  0.00    +0.000 A 
ATOM      8  C   UNL     1       0.296  11.267  19.252  0.00  0.00    +0.000 A 
ATOM      9  C   UNL     1       1.469  11.575  18.552  0.00  0.00    +0.000 A 
ATOM     10  F   UNL     1       1.781  12.856  18.304  0.00  0.00    +0.000 F 
ATOM     11  C   UNL     1       2.322  10.578  18.083  0.00  0.00    +0.000 A 
BRANCH   8  12
ATOM     12  O   UNL     1      -0.461  12.325  19.685  0.00  0.00    +0.000 OA
BRANCH  12  13
ATOM     13  C   UNL     1      -1.396  12.834  18.725  0.00  0.00    +0.000 C 
BRANCH  13  14
ATOM     14  C   UNL     1      -2.748  12.133  18.929  0.00  0.00    +0.000 C 
BRANCH  14  15
ATOM     15  N   UNL     1      -3.423  11.757  17.671  0.00  0.00    +0.000 NA
ATOM     16  C   UNL     1      -4.295  10.585  17.879  0.00  0.00    +0.000 C 
ATOM     17  C   UNL     1      -3.389   9.390  17.691  0.00  0.00    +0.000 C 
ATOM     18  C   UNL     1      -2.469   9.820  16.569  0.00  0.00    +0.000 C 
ATOM     19  C   UNL     1      -2.491  11.344  16.604  0.00  0.00    +0.000 C 
ENDBRANCH  14  15
ENDBRANCH  13  14
ENDBRANCH  12  13
ENDBRANCH   8  12
ENDBRANCH   3   5
BRANCH   1  23
ATOM     20  C   UNL     1       5.460   4.353  15.924  0.00  0.00    +0.000 A 
ATOM     21  C   UNL     1       5.582   5.732  15.809  0.00  0.00    +0.000 A 
ATOM     22  C   UNL     1       4.816   6.580  16.598  0.00  0.00    +0.000 A 
ATOM     23  C   UNL     1       3.911   6.076  17.555  0.00  0.00    +0.000 A 
ATOM     24  C   UNL     1       3.739   4.665  17.701  0.00  0.00    +0.000 A 
ATOM     25  C   UNL     1       4.556   3.827  16.867  0.00  0.00    +0.000 A 
BRANCH  24  26
ATOM     26  C   UNL     1       2.765   4.055  18.665  0.00  0.00    +0.000 A 
ATOM     27  C   UNL     1       1.421   3.809  18.325  0.00  0.00    +0.000 A 
ATOM     28  C   UNL     1       0.531   3.204  19.223  0.00  0.00    +0.000 A 
ATOM     29  C   UNL     1       0.932   2.912  20.521  0.00  0.00    +0.000 A 
ATOM     30  C   UNL     1       2.237   3.192  20.896  0.00  0.00    +0.000 A 
ATOM     31  C   UNL     1       3.152   3.710  19.978  0.00  0.00    +0.000 A 
BRANCH  30  32
ATOM     32  O   UNL     1       2.671   2.979  22.172  0.00  0.00    +0.000 OA
ATOM     33  H   UNL     1       2.422   3.744  22.715  0.00  0.00    +0.000 HD
ENDBRANCH  30  32
ENDBRANCH  24  26
BRANCH  20  35
ATOM     34  C   UNL     1       6.198   3.956  13.671  0.00  0.00    +0.000 C 
ATOM     35  O   UNL     1       6.296   3.698  15.062  0.00  0.00    +0.000 OA
ENDBRANCH  20  35
BRANCH  25  36
ATOM     36  O   UNL     1       4.504   2.457  16.982  0.00  0.00    +0.000 OA
ATOM     37  H   UNL     1       4.960   2.172  17.792  0.00  0.00    +0.000 HD
ENDBRANCH  25  36
ENDBRANCH   1  23
TORSDOF 10
ENDMDL
MODEL 3
REMARK VINA RESULT:      -8.5      1.954      2.540
REMARK  Name = 
REMARK  11 active torsions:
REMARK  status: ('A' for Active; 'I' for Inactive)
REMARK    1  A    between atoms: C_1  and  O_2
REMARK    2  A    between atoms: O_2  and  C_3
REMARK    3  A    between atoms: C_6  and  C_7
REMARK    4  A    between atoms: N_9  and  C_10
REMARK    5  A    between atoms: C_13  and  O_14
REMARK    6  A    between atoms: O_14  and  C_15
REMARK    7  A    between atoms: C_15  and  C_16
REMARK    8  A    between atoms: C_16  and  N_17
REMARK    9  A    between atoms: C_25  and  C_26
REMARK   10  A    between atoms: C_30  and  O_31
REMARK   11  A    between atoms: C_33  and  O_34
REMARK                            x       y       z     vdW  Elec       q    Type
REMARK                         _______ _______ _______ _____ _____    ______ ____
ROOT
ATOM      1  C   UNL     1       2.567   7.401  18.472  0.00  0.00    +0.000 C 
ATOM      2  O   UNL     1       2.190   7.158  19.611  0.00  0.00    +0.000 OA
ATOM      3  N   UNL     1       2.067   8.456  17.713  0.00  0.00    +0.000 N 
ATOM      4  H   UNL     1       2.115   8.389  16.709  0.00  0.00    +0.000 HD
ENDROOT
BRANCH   3   5
ATOM      5  C   UNL     1       1.108   9.363  18.199  0.00  0.00    +0.000 A 
ATOM      6  C   UNL     1       1.435  10.124  19.327  0.00  0.00    +0.000 A 
ATOM      7  C   UNL     1       0.485  10.962  19.913  0.00  0.00    +0.000 A 
ATOM      8  C   UNL     1      -0.813  11.002  19.404  0.00  0.00    +0.000 A 
ATOM      9  C   UNL     1      -1.130  10.211  18.294  0.00  0.00    +0.000 A 
ATOM     10  F   UNL     1      -2.387  10.191  17.825  0.00  0.00    +0.000 F 
ATOM     11  C   UNL     1      -0.171   9.420  17.665  0.00  0.00    +0.000 A 
BRANCH   8  12
ATOM     12  O   UNL     1      -1.828  11.758  19.934  0.00  0.00    +0.000 OA
BRANCH  12  13
ATOM     13  C   UNL     1      -1.443  13.065  20.377  0.00  0.00    +0.000 C 
BRANCH  13  14
ATOM     14  C   UNL     1      -2.424  13.530  21.465  0.00  0.00    +0.000 C 
BRANCH  14  15
ATOM     15  N   UNL     1      -3.253  12.444  22.027  0.00  0.00    +0.000 NA
ATOM     16  C   UNL     1      -4.673  12.839  22.060  0.00  0.00    +0.000 C 
ATOM     17  C   UNL     1      -4.841  13.576  23.369  0.00  0.00    +0.000 C 
ATOM     18  C   UNL     1      -3.949  12.807  24.320  0.00  0.00    +0.000 C 
ATOM     19  C   UNL     1      -2.924  12.118  23.428  0.00  0.00    +0.000 C 
ENDBRANCH  14  15
ENDBRANCH  13  14
ENDBRANCH  12  13
ENDBRANCH   8  12
ENDBRANCH   3   5
BRANCH   1  23
ATOM     20  C   UNL     1       5.595   5.096  16.385  0.00  0.00    +0.000 A 
ATOM     21  C   UNL     1       5.487   6.474  16.248  0.00  0.00    +0.000 A 
ATOM     22  C   UNL     1       4.499   7.179  16.923  0.00  0.00    +0.000 A 
ATOM     23  C   UNL     1       3.590   6.529  17.784  0.00  0.00    +0.000 A 
ATOM     24  C   UNL     1       3.651   5.111  17.947  0.00  0.00    +0.000 A 
ATOM     25  C   UNL     1       4.693   4.425  17.232  0.00  0.00    +0.000 A 
BRANCH  24  26
ATOM     26  C   UNL     1       2.693   4.345  18.811  0.00  0.00    +0.000 A 
ATOM     27  C   UNL     1       1.454   3.880  18.332  0.00  0.00    +0.000 A 
ATOM     28  C   UNL     1       0.584   3.133  19.139  0.00  0.00    +0.000 A 
ATOM     29  C   UNL     1       0.885   2.908  20.477  0.00  0.00    +0.000 A 
ATOM     30  C   UNL     1       2.077   3.400  20.985  0.00  0.00    +0.000 A 
ATOM     31  C   UNL     1       2.987   4.066  20.163  0.00  0.00    +0.000 A 
BRANCH  30  32
ATOM     32  O   UNL     1       2.399   3.259  22.303  0.00  0.00    +0.000 OA
ATOM     33  H   UNL     1       2.422   2.312  22.517  0.00  0.00    +0.000 HD
ENDBRANCH  30  32
ENDBRANCH  24  26
BRANCH  20  35
ATOM     34  C   UNL     1       6.370   4.130  14.324  0.00  0.00    +0.000 C 
ATOM     35  O   UNL     1       6.626   4.592  15.640  0.00  0.00    +0.000 OA
ENDBRANCH  20  35
BRANCH  25  36
ATOM     36  O   UNL     1       4.867   3.067  17.378  0.00  0.00    +0.000 OA
ATOM     37  H   UNL     1       4.263   2.724  18.058  0.00  0.00    +0.000 HD
ENDBRANCH  25  36
ENDBRANCH   1  23
TORSDOF 10
ENDMDL
MODEL 4
REMARK VINA RESULT:      -8.4      1.680      2.426
REMARK  Name = 
REMARK  11 active torsions:
REMARK  status: ('A' for Active; 'I' for Inactive)
REMARK    1  A    between atoms: C_1  and  O_2
REMARK    2  A    between atoms: O_2  and  C_3
REMARK    3  A    between atoms: C_6  and  C_7
REMARK    4  A    between atoms: N_9  and  C_10
REMARK    5  A    between atoms: C_13  and  O_14
REMARK    6  A    between atoms: O_14  and  C_15
REMARK    7  A    between atoms: C_15  and  C_16
REMARK    8  A    between atoms: C_16  and  N_17
REMARK    9  A    between atoms: C_25  and  C_26
REMARK   10  A    between atoms: C_30  and  O_31
REMARK   11  A    between atoms: C_33  and  O_34
REMARK                            x       y       z     vdW  Elec       q    Type
REMARK                         _______ _______ _______ _____ _____    ______ ____
ROOT
ATOM      1  C   UNL     1       2.931   7.267  18.243  0.00  0.00    +0.000 C 
ATOM      2  O   UNL     1       2.557   7.055  19.389  0.00  0.00    +0.000 OA
ATOM      3  N   UNL     1       2.564   8.400  17.519  0.00  0.00    +0.000 N 
ATOM      4  H   UNL     1       2.571   8.348  16.514  0.00  0.00    +0.000 HD
ENDROOT
BRANCH   3   5
ATOM      5  C   UNL     1       1.761   9.424  18.054  0.00  0.00    +0.000 A 
ATOM      6  C   UNL     1       0.386   9.192  18.162  0.00  0.00    +0.000 A 
ATOM      7  C   UNL     1      -0.470  10.211  18.587  0.00  0.00    +0.000 A 
ATOM      8  C   UNL     1       0.042  11.480  18.857  0.00  0.00    +0.000 A 
ATOM      9  C   UNL     1       1.416  11.700  18.714  0.00  0.00    +0.000 A 
ATOM     10  F   UNL     1       1.919  12.928  18.911  0.00  0.00    +0.000 F 
ATOM     11  C   UNL     1       2.285  10.674  18.350  0.00  0.00    +0.000 A 
BRANCH   8  12
ATOM     12  O   UNL     1      -0.720  12.555  19.238  0.00  0.00    +0.000 OA
BRANCH  12  13
ATOM     13  C   UNL     1      -2.133  12.388  19.067  0.00  0.00    +0.000 C 
BRANCH  13  14
ATOM     14  C   UNL     1      -2.829  12.636  20.414  0.00  0.00    +0.000 C 
BRANCH  14  15
ATOM     15  N   UNL     1      -1.904  12.984  21.511  0.00  0.00    +0.000 NA
ATOM     16  C   UNL     1      -1.874  11.915  22.526  0.00  0.00    +0.000 C 
ATOM     17  C   UNL     1      -3.020  12.234  23.459  0.00  0.00    +0.000 C 
ATOM     18  C   UNL     1      -2.999  13.745  23.536  0.00  0.00    +0.000 C 
ATOM     19  C   UNL     1      -2.303  14.194  22.256  0.00  0.00    +0.000 C 
ENDBRANCH  14  15
ENDBRANCH  13  14
ENDBRANCH  12  13
ENDBRANCH   8  12
ENDBRANCH   3   5
BRANCH   1  23
ATOM     20  C   UNL     1       5.518   4.598  16.003  0.00  0.00    +0.000 A 
ATOM     21  C   UNL     1       5.556   5.977  15.840  0.00  0.00    +0.000 A 
ATOM     22  C   UNL     1       4.706   6.801  16.566  0.00  0.00    +0.000 A 
ATOM     23  C   UNL     1       3.796   6.273  17.505  0.00  0.00    +0.000 A 
ATOM     24  C   UNL     1       3.709   4.860  17.699  0.00  0.00    +0.000 A 
ATOM     25  C   UNL     1       4.611   4.048  16.929  0.00  0.00    +0.000 A 
BRANCH  24  26
ATOM     26  C   UNL     1       2.738   4.223  18.648  0.00  0.00    +0.000 A 
ATOM     27  C   UNL     1       1.446   3.828  18.251  0.00  0.00    +0.000 A 
ATOM     28  C   UNL     1       0.560   3.200  19.138  0.00  0.00    +0.000 A 
ATOM     29  C   UNL     1       0.906   3.031  20.474  0.00  0.00    +0.000 A 
ATOM     30  C   UNL     1       2.155   3.457  20.900  0.00  0.00    +0.000 A 
ATOM     31  C   UNL     1       3.072   4.001  20.001  0.00  0.00    +0.000 A 
BRANCH  30  32
ATOM     32  O   UNL     1       2.526   3.369  22.210  0.00  0.00    +0.000 OA
ATOM     33  H   UNL     1       1.837   2.887  22.695  0.00  0.00    +0.000 HD
ENDBRANCH  30  32
ENDBRANCH  24  26
BRANCH  20  35
ATOM     34  C   UNL     1       6.175   3.871  13.807  0.00  0.00    +0.000 C 
ATOM     35  O   UNL     1       6.429   3.968  15.199  0.00  0.00    +0.000 OA
ENDBRANCH  20  35
BRANCH  25  36
ATOM     36  O   UNL     1       4.642   2.682  17.096  0.00  0.00    +0.000 OA
ATOM     37  H   UNL     1       5.453   2.316  16.705  0.00  0.00    +0.000 HD
ENDBRANCH  25  36
ENDBRANCH   1  23
TORSDOF 10
ENDMDL
MODEL 5
REMARK VINA RESULT:      -8.3      1.163      1.460
REMARK  Name = 
REMARK  11 active torsions:
REMARK  status: ('A' for Active; 'I' for Inactive)
REMARK    1  A    between atoms: C_1  and  O_2
REMARK    2  A    between atoms: O_2  and  C_3
REMARK    3  A    between atoms: C_6  and  C_7
REMARK    4  A    between atoms: N_9  and  C_10
REMARK    5  A    between atoms: C_13  and  O_14
REMARK    6  A    between atoms: O_14  and  C_15
REMARK    7  A    between atoms: C_15  and  C_16
REMARK    8  A    between atoms: C_16  and  N_17
REMARK    9  A    between atoms: C_25  and  C_26
REMARK   10  A    between atoms: C_30  and  O_31
REMARK   11  A    between atoms: C_33  and  O_34
REMARK                            x       y       z     vdW  Elec       q    Type
REMARK                         _______ _______ _______ _____ _____    ______ ____
ROOT
ATOM      1  C   UNL     1       2.553   7.234  18.681  0.00  0.00    +0.000 C 
ATOM      2  O   UNL     1       2.229   6.884  19.808  0.00  0.00    +0.000 OA
ATOM      3  N   UNL     1       1.997   8.336  18.036  0.00  0.00    +0.000 N 
ATOM      4  H   UNL     1       2.005   8.357  17.029  0.00  0.00    +0.000 HD
ENDROOT
BRANCH   3   5
ATOM      5  C   UNL     1       1.038   9.172  18.637  0.00  0.00    +0.000 A 
ATOM      6  C   UNL     1      -0.032   9.615  17.853  0.00  0.00    +0.000 A 
ATOM      7  C   UNL     1      -0.954  10.529  18.368  0.00  0.00    +0.000 A 
ATOM      8  C   UNL     1      -0.780  11.041  19.654  0.00  0.00    +0.000 A 
ATOM      9  C   UNL     1       0.313  10.608  20.412  0.00  0.00    +0.000 A 
ATOM     10  F   UNL     1       0.532  11.132  21.628  0.00  0.00    +0.000 F 
ATOM     11  C   UNL     1       1.203   9.651  19.929  0.00  0.00    +0.000 A 
BRANCH   8  12
ATOM     12  O   UNL     1      -1.604  11.972  20.233  0.00  0.00    +0.000 OA
BRANCH  12  13
ATOM     13  C   UNL     1      -2.799  12.265  19.499  0.00  0.00    +0.000 C 
BRANCH  13  14
ATOM     14  C   UNL     1      -3.832  12.881  20.455  0.00  0.00    +0.000 C 
BRANCH  14  15
ATOM     15  N   UNL     1      -5.154  13.112  19.840  0.00  0.00    +0.000 NA
ATOM     16  C   UNL     1      -6.125  13.572  20.850  0.00  0.00    +0.000 C 
ATOM     17  C   UNL     1      -6.684  12.305  21.456  0.00  0.00    +0.000 C 
ATOM     18  C   UNL     1      -6.775  11.363  20.275  0.00  0.00    +0.000 C 
ATOM     19  C   UNL     1      -5.759  11.892  19.270  0.00  0.00    +0.000 C 
ENDBRANCH  14  15
ENDBRANCH  13  14
ENDBRANCH  12  13
ENDBRANCH   8  12
ENDBRANCH   3   5
BRANCH   1  23
ATOM     20  C   UNL     1       5.546   5.200  16.285  0.00  0.00    +0.000 A 
ATOM     21  C   UNL     1       5.407   6.582  16.280  0.00  0.00    +0.000 A 
ATOM     22  C   UNL     1       4.431   7.199  17.052  0.00  0.00    +0.000 A 
ATOM     23  C   UNL     1       3.567   6.453  17.880  0.00  0.00    +0.000 A 
ATOM     24  C   UNL     1       3.661   5.027  17.908  0.00  0.00    +0.000 A 
ATOM     25  C   UNL     1       4.689   4.434  17.097  0.00  0.00    +0.000 A 
BRANCH  24  26
ATOM     26  C   UNL     1       2.751   4.164  18.729  0.00  0.00    +0.000 A 
ATOM     27  C   UNL     1       1.505   3.715  18.252  0.00  0.00    +0.000 A 
ATOM     28  C   UNL     1       0.679   2.877  19.015  0.00  0.00    +0.000 A 
ATOM     29  C   UNL     1       1.032   2.539  20.316  0.00  0.00    +0.000 A 
ATOM     30  C   UNL     1       2.232   3.010  20.827  0.00  0.00    +0.000 A 
ATOM     31  C   UNL     1       3.099   3.769  20.039  0.00  0.00    +0.000 A 
BRANCH  30  32
ATOM     32  O   UNL     1       2.604   2.757  22.114  0.00  0.00    +0.000 OA
ATOM     33  H   UNL     1       3.485   3.137  22.264  0.00  0.00    +0.000 HD
ENDBRANCH  30  32
ENDBRANCH  24  26
BRANCH  20  35
ATOM     34  C   UNL     1       6.242   4.205  14.210  0.00  0.00    +0.000 C 
ATOM     35  O   UNL     1       6.560   4.791  15.461  0.00  0.00    +0.000 OA
ENDBRANCH  20  35
BRANCH  25  36
ATOM     36  O   UNL     1       4.895   3.073  17.109  0.00  0.00    +0.000 OA
ATOM     37  H   UNL     1       4.446   2.674  17.874  0.00  0.00    +0.000 HD
ENDBRANCH  25  36
ENDBRANCH   1  23
TORSDOF 10
ENDMDL
MODEL 6
REMARK VINA RESULT:      -8.3      1.387      1.913
REMARK  Name = 
REMARK  11 active torsions:
REMARK  status: ('A' for Active; 'I' for Inactive)
REMARK    1  A    between atoms: C_1  and  O_2
REMARK    2  A    between atoms: O_2  and  C_3
REMARK    3  A    between atoms: C_6  and  C_7
REMARK    4  A    between atoms: N_9  and  C_10
REMARK    5  A    between atoms: C_13  and  O_14
REMARK    6  A    between atoms: O_14  and  C_15
REMARK    7  A    between atoms: C_15  and  C_16
REMARK    8  A    between atoms: C_16  and  N_17
REMARK    9  A    between atoms: C_25  and  C_26
REMARK   10  A    between atoms: C_30  and  O_31
REMARK   11  A    between atoms: C_33  and  O_34
REMARK                            x       y       z     vdW  Elec       q    Type
REMARK                         _______ _______ _______ _____ _____    ______ ____
ROOT
ATOM      1  C   UNL     1       2.661   7.458  18.362  0.00  0.00    +0.000 C 
ATOM      2  O   UNL     1       2.281   7.232  19.504  0.00  0.00    +0.000 OA
ATOM      3  N   UNL     1       2.196   8.530  17.603  0.00  0.00    +0.000 N 
ATOM      4  H   UNL     1       2.235   8.458  16.600  0.00  0.00    +0.000 HD
ENDROOT
BRANCH   3   5
ATOM      5  C   UNL     1       1.276   9.474  18.094  0.00  0.00    +0.000 A 
ATOM      6  C   UNL     1      -0.076   9.300  17.780  0.00  0.00    +0.000 A 
ATOM      7  C   UNL     1      -1.017  10.262  18.153  0.00  0.00    +0.000 A 
ATOM      8  C   UNL     1      -0.601  11.428  18.796  0.00  0.00    +0.000 A 
ATOM      9  C   UNL     1       0.760  11.597  19.075  0.00  0.00    +0.000 A 
ATOM     10  F   UNL     1       1.189  12.737  19.640  0.00  0.00    +0.000 F 
ATOM     11  C   UNL     1       1.697  10.615  18.762  0.00  0.00    +0.000 A 
BRANCH   8  12
ATOM     12  O   UNL     1      -1.438  12.450  19.164  0.00  0.00    +0.000 OA
BRANCH  12  13
ATOM     13  C   UNL     1      -2.070  12.287  20.440  0.00  0.00    +0.000 C 
BRANCH  13  14
ATOM     14  C   UNL     1      -3.555  12.663  20.312  0.00  0.00    +0.000 C 
BRANCH  14  15
ATOM     15  N   UNL     1      -4.351  12.376  21.522  0.00  0.00    +0.000 NA
ATOM     16  C   UNL     1      -5.629  13.111  21.488  0.00  0.00    +0.000 C 
ATOM     17  C   UNL     1      -5.312  14.466  22.079  0.00  0.00    +0.000 C 
ATOM     18  C   UNL     1      -4.321  14.147  23.177  0.00  0.00    +0.000 C 
ATOM     19  C   UNL     1      -3.701  12.815  22.772  0.00  0.00    +0.000 C 
ENDBRANCH  14  15
ENDBRANCH  13  14
ENDBRANCH  12  13
ENDBRANCH   8  12
ENDBRANCH   3   5
BRANCH   1  23
ATOM     20  C   UNL     1       5.579   5.033  16.256  0.00  0.00    +0.000 A 
ATOM     21  C   UNL     1       5.506   6.410  16.095  0.00  0.00    +0.000 A 
ATOM     22  C   UNL     1       4.552   7.154  16.777  0.00  0.00    +0.000 A 
ATOM     23  C   UNL     1       3.645   6.546  17.669  0.00  0.00    +0.000 A 
ATOM     24  C   UNL     1       3.670   5.129  17.858  0.00  0.00    +0.000 A 
ATOM     25  C   UNL     1       4.677   4.402  17.134  0.00  0.00    +0.000 A 
BRANCH  24  26
ATOM     26  C   UNL     1       2.711   4.407  18.755  0.00  0.00    +0.000 A 
ATOM     27  C   UNL     1       1.446   3.973  18.313  0.00  0.00    +0.000 A 
ATOM     28  C   UNL     1       0.573   3.265  19.152  0.00  0.00    +0.000 A 
ATOM     29  C   UNL     1       0.900   3.050  20.486  0.00  0.00    +0.000 A 
ATOM     30  C   UNL     1       2.119   3.512  20.957  0.00  0.00    +0.000 A 
ATOM     31  C   UNL     1       3.029   4.137  20.104  0.00  0.00    +0.000 A 
BRANCH  30  32
ATOM     32  O   UNL     1       2.468   3.379  22.269  0.00  0.00    +0.000 OA
ATOM     33  H   UNL     1       1.887   2.718  22.679  0.00  0.00    +0.000 HD
ENDBRANCH  30  32
ENDBRANCH  24  26
BRANCH  20  35
ATOM     34  C   UNL     1       6.277   3.979  14.211  0.00  0.00    +0.000 C 
ATOM     35  O   UNL     1       6.580   4.487  15.499  0.00  0.00    +0.000 OA
ENDBRANCH  20  35
BRANCH  25  36
ATOM     36  O   UNL     1       4.817   3.043  17.301  0.00  0.00    +0.000 OA
ATOM     37  H   UNL     1       3.943   2.624  17.377  0.00  0.00    +0.000 HD
ENDBRANCH  25  36
ENDBRANCH   1  23
TORSDOF 10
ENDMDL
MODEL 7
REMARK VINA RESULT:      -8.3      1.313      1.658
REMARK  Name = 
REMARK  11 active torsions:
REMARK  status: ('A' for Active; 'I' for Inactive)
REMARK    1  A    between atoms: C_1  and  O_2
REMARK    2  A    between atoms: O_2  and  C_3
REMARK    3  A    between atoms: C_6  and  C_7
REMARK    4  A    between atoms: N_9  and  C_10
REMARK    5  A    between atoms: C_13  and  O_14
REMARK    6  A    between atoms: O_14  and  C_15
REMARK    7  A    between atoms: C_15  and  C_16
REMARK    8  A    between atoms: C_16  and  N_17
REMARK    9  A    between atoms: C_25  and  C_26
REMARK   10  A    between atoms: C_30  and  O_31
REMARK   11  A    between atoms: C_33  and  O_34
REMARK                            x       y       z     vdW  Elec       q    Type
REMARK                         _______ _______ _______ _____ _____    ______ ____
ROOT
ATOM      1  C   UNL     1       3.106   7.098  18.402  0.00  0.00    +0.000 C 
ATOM      2  O   UNL     1       2.844   6.883  19.578  0.00  0.00    +0.000 OA
ATOM      3  N   UNL     1       2.614   8.197  17.701  0.00  0.00    +0.000 N 
ATOM      4  H   UNL     1       2.540   8.131  16.699  0.00  0.00    +0.000 HD
ENDROOT
BRANCH   3   5
ATOM      5  C   UNL     1       1.802   9.182  18.292  0.00  0.00    +0.000 A 
ATOM      6  C   UNL     1       2.065  10.522  17.986  0.00  0.00    +0.000 A 
ATOM      7  C   UNL     1       1.358  11.543  18.624  0.00  0.00    +0.000 A 
ATOM      8  C   UNL     1       0.421  11.229  19.609  0.00  0.00    +0.000 A 
ATOM      9  C   UNL     1       0.193   9.884  19.921  0.00  0.00    +0.000 A 
ATOM     10  F   UNL     1      -0.660   9.563  20.906  0.00  0.00    +0.000 F 
ATOM     11  C   UNL     1       0.849   8.857  19.246  0.00  0.00    +0.000 A 
BRANCH   8  12
ATOM     12  O   UNL     1      -0.293  12.158  20.322  0.00  0.00    +0.000 OA
BRANCH  12  13
ATOM     13  C   UNL     1      -1.175  12.975  19.542  0.00  0.00    +0.000 C 
BRANCH  13  14
ATOM     14  C   UNL     1      -1.662  12.163  18.331  0.00  0.00    +0.000 C 
BRANCH  14  15
ATOM     15  N   UNL     1      -2.808  11.279  18.625  0.00  0.00    +0.000 NA
ATOM     16  C   UNL     1      -2.713  10.030  17.847  0.00  0.00    +0.000 C 
ATOM     17  C   UNL     1      -3.366  10.350  16.521  0.00  0.00    +0.000 C 
ATOM     18  C   UNL     1      -4.516  11.254  16.906  0.00  0.00    +0.000 C 
ATOM     19  C   UNL     1      -4.111  11.858  18.246  0.00  0.00    +0.000 C 
ENDBRANCH  14  15
ENDBRANCH  13  14
ENDBRANCH  12  13
ENDBRANCH   8  12
ENDBRANCH   3   5
BRANCH   1  23
ATOM     20  C   UNL     1       5.668   4.550  15.999  0.00  0.00    +0.000 A 
ATOM     21  C   UNL     1       5.721   5.936  15.924  0.00  0.00    +0.000 A 
ATOM     22  C   UNL     1       4.879   6.721  16.700  0.00  0.00    +0.000 A 
ATOM     23  C   UNL     1       3.962   6.144  17.604  0.00  0.00    +0.000 A 
ATOM     24  C   UNL     1       3.860   4.723  17.707  0.00  0.00    +0.000 A 
ATOM     25  C   UNL     1       4.755   3.952  16.888  0.00  0.00    +0.000 A 
BRANCH  24  26
ATOM     26  C   UNL     1       2.880   4.037  18.613  0.00  0.00    +0.000 A 
ATOM     27  C   UNL     1       1.552   3.775  18.226  0.00  0.00    +0.000 A 
ATOM     28  C   UNL     1       0.657   3.100  19.067  0.00  0.00    +0.000 A 
ATOM     29  C   UNL     1       1.035   2.748  20.358  0.00  0.00    +0.000 A 
ATOM     30  C   UNL     1       2.323   3.041  20.780  0.00  0.00    +0.000 A 
ATOM     31  C   UNL     1       3.245   3.631  19.915  0.00  0.00    +0.000 A 
BRANCH  30  32
ATOM     32  O   UNL     1       2.731   2.771  22.053  0.00  0.00    +0.000 OA
ATOM     33  H   UNL     1       3.659   2.487  22.027  0.00  0.00    +0.000 HD
ENDBRANCH  30  32
ENDBRANCH  24  26
BRANCH  20  35
ATOM     34  C   UNL     1       6.265   3.847  13.779  0.00  0.00    +0.000 C 
ATOM     35  O   UNL     1       6.574   3.963  15.158  0.00  0.00    +0.000 OA
ENDBRANCH  20  35
BRANCH  25  36
ATOM     36  O   UNL     1       4.771   2.578  16.967  0.00  0.00    +0.000 OA
ATOM     37  H   UNL     1       5.579   2.229  16.556  0.00  0.00    +0.000 HD
ENDBRANCH  25  36
ENDBRANCH   1  23
TORSDOF 10
ENDMDL
MODEL 8
REMARK VINA RESULT:      -8.2      2.837      3.284
REMARK  Name = 
REMARK  11 active torsions:
REMARK  status: ('A' for Active; 'I' for Inactive)
REMARK    1  A    between atoms: C_1  and  O_2
REMARK    2  A    between atoms: O_2  and  C_3
REMARK    3  A    between atoms: C_6  and  C_7
REMARK    4  A    between atoms: N_9  and  C_10
REMARK    5  A    between atoms: C_13  and  O_14
REMARK    6  A    between atoms: O_14  and  C_15
REMARK    7  A    between atoms: C_15  and  C_16
REMARK    8  A    between atoms: C_16  and  N_17
REMARK    9  A    between atoms: C_25  and  C_26
REMARK   10  A    between atoms: C_30  and  O_31
REMARK   11  A    between atoms: C_33  and  O_34
REMARK                            x       y       z     vdW  Elec       q    Type
REMARK                         _______ _______ _______ _____ _____    ______ ____
ROOT
ATOM      1  C   UNL     1       2.346   7.333  18.299  0.00  0.00    +0.000 C 
ATOM      2  O   UNL     1       1.403   7.606  17.567  0.00  0.00    +0.000 OA
ATOM      3  N   UNL     1       2.438   7.771  19.618  0.00  0.00    +0.000 N 
ATOM      4  H   UNL     1       3.352   7.848  20.034  0.00  0.00    +0.000 HD
ENDROOT
BRANCH   3   5
ATOM      5  C   UNL     1       1.436   8.535  20.243  0.00  0.00    +0.000 A 
ATOM      6  C   UNL     1       0.880   9.601  19.528  0.00  0.00    +0.000 A 
ATOM      7  C   UNL     1      -0.042  10.455  20.138  0.00  0.00    +0.000 A 
ATOM      8  C   UNL     1      -0.372  10.276  21.481  0.00  0.00    +0.000 A 
ATOM      9  C   UNL     1       0.218   9.222  22.188  0.00  0.00    +0.000 A 
ATOM     10  F   UNL     1      -0.040   9.069  23.496  0.00  0.00    +0.000 F 
ATOM     11  C   UNL     1       1.091   8.329  21.571  0.00  0.00    +0.000 A 
BRANCH   8  12
ATOM     12  O   UNL     1      -1.230  11.085  22.181  0.00  0.00    +0.000 OA
BRANCH  12  13
ATOM     13  C   UNL     1      -0.707  12.376  22.519  0.00  0.00    +0.000 C 
BRANCH  13  14
ATOM     14  C   UNL     1      -1.419  13.439  21.667  0.00  0.00    +0.000 C 
BRANCH  14  15
ATOM     15  N   UNL     1      -0.538  14.539  21.223  0.00  0.00    +0.000 NA
ATOM     16  C   UNL     1      -0.950  15.030  19.895  0.00  0.00    +0.000 C 
ATOM     17  C   UNL     1      -0.237  14.129  18.912  0.00  0.00    +0.000 C 
ATOM     18  C   UNL     1       1.107  13.891  19.566  0.00  0.00    +0.000 C 
ATOM     19  C   UNL     1       0.870  14.132  21.052  0.00  0.00    +0.000 C 
ENDBRANCH  14  15
ENDBRANCH  13  14
ENDBRANCH  12  13
ENDBRANCH   8  12
ENDBRANCH   3   5
BRANCH   1  23
ATOM     20  C   UNL     1       5.796   5.209  16.743  0.00  0.00    +0.000 A 
ATOM     21  C   UNL     1       5.585   6.560  16.499  0.00  0.00    +0.000 A 
ATOM     22  C   UNL     1       4.465   7.206  17.004  0.00  0.00    +0.000 A 
ATOM     23  C   UNL     1       3.518   6.524  17.796  0.00  0.00    +0.000 A 
ATOM     24  C   UNL     1       3.682   5.130  18.063  0.00  0.00    +0.000 A 
ATOM     25  C   UNL     1       4.859   4.506  17.524  0.00  0.00    +0.000 A 
BRANCH  24  26
ATOM     26  C   UNL     1       2.697   4.329  18.861  0.00  0.00    +0.000 A 
ATOM     27  C   UNL     1       1.526   3.791  18.292  0.00  0.00    +0.000 A 
ATOM     28  C   UNL     1       0.632   3.012  19.039  0.00  0.00    +0.000 A 
ATOM     29  C   UNL     1       0.833   2.824  20.402  0.00  0.00    +0.000 A 
ATOM     30  C   UNL     1       1.953   3.386  20.996  0.00  0.00    +0.000 A 
ATOM     31  C   UNL     1       2.892   4.086  20.238  0.00  0.00    +0.000 A 
BRANCH  30  32
ATOM     32  O   UNL     1       2.171   3.282  22.338  0.00  0.00    +0.000 OA
ATOM     33  H   UNL     1       1.792   2.445  22.650  0.00  0.00    +0.000 HD
ENDBRANCH  30  32
ENDBRANCH  24  26
BRANCH  20  35
ATOM     34  C   UNL     1       7.101   4.863  14.753  0.00  0.00    +0.000 C 
ATOM     35  O   UNL     1       6.951   4.764  16.160  0.00  0.00    +0.000 OA
ENDBRANCH  20  35
BRANCH  25  36
ATOM     36  O   UNL     1       5.133   3.182  17.783  0.00  0.00    +0.000 OA
ATOM     37  H   UNL     1       4.338   2.642  17.636  0.00  0.00    +0.000 HD
ENDBRANCH  25  36
ENDBRANCH   1  23
TORSDOF 10
ENDMDL
MODEL 9
REMARK VINA RESULT:      -8.2      1.748      2.553
REMARK  Name = 
REMARK  11 active torsions:
REMARK  status: ('A' for Active; 'I' for Inactive)
REMARK    1  A    between atoms: C_1  and  O_2
REMARK    2  A    between atoms: O_2  and  C_3
REMARK    3  A    between atoms: C_6  and  C_7
REMARK    4  A    between atoms: N_9  and  C_10
REMARK    5  A    between atoms: C_13  and  O_14
REMARK    6  A    between atoms: O_14  and  C_15
REMARK    7  A    between atoms: C_15  and  C_16
REMARK    8  A    between atoms: C_16  and  N_17
REMARK    9  A    between atoms: C_25  and  C_26
REMARK   10  A    between atoms: C_30  and  O_31
REMARK   11  A    between atoms: C_33  and  O_34
REMARK                            x       y       z     vdW  Elec       q    Type
REMARK                         _______ _______ _______ _____ _____    ______ ____
ROOT
ATOM      1  C   UNL     1       2.701   7.381  18.396  0.00  0.00    +0.000 C 
ATOM      2  O   UNL     1       2.313   7.160  19.536  0.00  0.00    +0.000 OA
ATOM      3  N   UNL     1       2.262   8.464  17.639  0.00  0.00    +0.000 N 
ATOM      4  H   UNL     1       2.303   8.395  16.635  0.00  0.00    +0.000 HD
ENDROOT
BRANCH   3   5
ATOM      5  C   UNL     1       1.360   9.426  18.129  0.00  0.00    +0.000 A 
ATOM      6  C   UNL     1       0.013   9.308  17.770  0.00  0.00    +0.000 A 
ATOM      7  C   UNL     1      -0.905  10.292  18.142  0.00  0.00    +0.000 A 
ATOM      8  C   UNL     1      -0.469  11.424  18.831  0.00  0.00    +0.000 A 
ATOM      9  C   UNL     1       0.887  11.538  19.155  0.00  0.00    +0.000 A 
ATOM     10  F   UNL     1       1.337  12.646  19.765  0.00  0.00    +0.000 F 
ATOM     11  C   UNL     1       1.799  10.532  18.842  0.00  0.00    +0.000 A 
BRANCH   8  12
ATOM     12  O   UNL     1      -1.283  12.464  19.203  0.00  0.00    +0.000 OA
BRANCH  12  13
ATOM     13  C   UNL     1      -2.182  12.175  20.280  0.00  0.00    +0.000 C 
BRANCH  13  14
ATOM     14  C   UNL     1      -2.979  13.446  20.617  0.00  0.00    +0.000 C 
BRANCH  14  15
ATOM     15  N   UNL     1      -3.216  13.637  22.062  0.00  0.00    +0.000 NA
ATOM     16  C   UNL     1      -2.974  15.040  22.447  0.00  0.00    +0.000 C 
ATOM     17  C   UNL     1      -1.491  15.112  22.733  0.00  0.00    +0.000 C 
ATOM     18  C   UNL     1      -1.197  13.783  23.394  0.00  0.00    +0.000 C 
ATOM     19  C   UNL     1      -2.305  12.852  22.918  0.00  0.00    +0.000 C 
ENDBRANCH  14  15
ENDBRANCH  13  14
ENDBRANCH  12  13
ENDBRANCH   8  12
ENDBRANCH   3   5
BRANCH   1  23
ATOM     20  C   UNL     1       5.574   4.900  16.291  0.00  0.00    +0.000 A 
ATOM     21  C   UNL     1       5.523   6.278  16.126  0.00  0.00    +0.000 A 
ATOM     22  C   UNL     1       4.583   7.040  16.808  0.00  0.00    +0.000 A 
ATOM     23  C   UNL     1       3.668   6.450  17.704  0.00  0.00    +0.000 A 
ATOM     24  C   UNL     1       3.671   5.034  17.898  0.00  0.00    +0.000 A 
ATOM     25  C   UNL     1       4.664   4.288  17.175  0.00  0.00    +0.000 A 
BRANCH  24  26
ATOM     26  C   UNL     1       2.702   4.331  18.801  0.00  0.00    +0.000 A 
ATOM     27  C   UNL     1       1.433   3.908  18.361  0.00  0.00    +0.000 A 
ATOM     28  C   UNL     1       0.552   3.217  19.205  0.00  0.00    +0.000 A 
ATOM     29  C   UNL     1       0.874   3.011  20.541  0.00  0.00    +0.000 A 
ATOM     30  C   UNL     1       2.098   3.463  21.010  0.00  0.00    +0.000 A 
ATOM     31  C   UNL     1       3.016   4.069  20.152  0.00  0.00    +0.000 A 
BRANCH  30  32
ATOM     32  O   UNL     1       2.444   3.338  22.323  0.00  0.00    +0.000 OA
ATOM     33  H   UNL     1       1.814   2.738  22.755  0.00  0.00    +0.000 HD
ENDBRANCH  30  32
ENDBRANCH  24  26
BRANCH  20  35
ATOM     34  C   UNL     1       6.290   3.979  14.189  0.00  0.00    +0.000 C 
ATOM     35  O   UNL     1       6.564   4.336  15.534  0.00  0.00    +0.000 OA
ENDBRANCH  20  35
BRANCH  25  36
ATOM     36  O   UNL     1       4.783   2.927  17.347  0.00  0.00    +0.000 OA
ATOM     37  H   UNL     1       5.550   2.727  17.909  0.00  0.00    +0.000 HD
ENDBRANCH  25  36
ENDBRANCH   1  23
TORSDOF 10
ENDMDL
