MODEL 1
REMARK VINA RESULT:      -9.1      0.000      0.000
REMARK  Name = 
REMARK  11 active torsions:
REMARK  status: ('A' for Active; 'I' for Inactive)
REMARK    1  A    between atoms: C_1  and  O_2
REMARK    2  A    between atoms: O_2  and  C_3
REMARK    3  A    between atoms: C_5  and  C_6
REMARK    4  A    between atoms: C_6  and  C_7
REMARK    5  A    between atoms: C_7  and  O_9
REMARK    6  A    between atoms: O_9  and  C_10
REMARK    7  A    between atoms: C_10  and  C_11
REMARK    8  A    between atoms: C_12  and  C_13
REMARK    9  A    between atoms: C_19  and  C_20
REMARK   10  A    between atoms: C_20  and  C_21
REMARK   11  A    between atoms: C_32  and  O_33
REMARK                            x       y       z     vdW  Elec       q    Type
REMARK                         _______ _______ _______ _____ _____    ______ ____
ROOT
ATOM      1  C   UNL     1       8.355   8.642  17.959  0.00  0.00    +0.000 C 
ATOM      2  C   UNL     1       7.199   8.049  17.616  0.00  0.00    +0.000 C 
ENDROOT
BRANCH   2   3
ATOM      3  C   UNL     1       7.054   6.678  16.965  0.00  0.00    +0.000 C 
ATOM      4  C   UNL     1       5.670   6.563  16.315  0.00  0.00    +0.000 C 
ATOM      5  C   UNL     1       5.689   5.377  15.339  0.00  0.00    +0.000 C 
ATOM      6  C   UNL     1       6.223   4.082  15.962  0.00  0.00    +0.000 C 
ATOM      7  C   UNL     1       6.431   4.202  17.466  0.00  0.00    +0.000 C 
ATOM      8  O   UNL     1       5.095   4.222  18.008  0.00  0.00    +0.000 OA
ATOM      9  C   UNL     1       4.936   5.569  18.422  0.00  0.00    +0.000 C 
ATOM     10  O   UNL     1       4.636   6.437  17.311  0.00  0.00    +0.000 OA
ATOM     11  O   UNL     1       6.195   5.902  19.020  0.00  0.00    +0.000 OA
ATOM     12  C   UNL     1       7.092   5.514  17.971  0.00  0.00    +0.000 C 
BRANCH   9  13
ATOM     13  C   UNL     1       3.863   5.721  19.504  0.00  0.00    +0.000 C 
BRANCH  13  14
ATOM     14  C   UNL     1       2.773   4.678  19.492  0.00  0.00    +0.000 A 
ATOM     15  C   UNL     1       2.003   4.474  18.340  0.00  0.00    +0.000 A 
ATOM     16  C   UNL     1       1.042   3.463  18.304  0.00  0.00    +0.000 A 
ATOM     17  C   UNL     1       0.836   2.658  19.423  0.00  0.00    +0.000 A 
ATOM     18  C   UNL     1       1.573   2.876  20.586  0.00  0.00    +0.000 A 
ATOM     19  C   UNL     1       2.534   3.887  20.623  0.00  0.00    +0.000 A 
ENDBRANCH  13  14
ENDBRANCH   9  13
ENDBRANCH   2   3
BRANCH   1  20
ATOM     20  C   UNL     1       8.443  10.022  18.550  0.00  0.00    +0.000 C 
BRANCH  20  21
ATOM     21  O   UNL     1       9.794  10.295  18.957  0.00  0.00    +0.000 OA
BRANCH  21  22
ATOM     22  C   UNL     1       9.927  11.037  20.096  0.00  0.00    +0.000 C 
ATOM     23  O   UNL     1       9.172  10.976  21.054  0.00  0.00    +0.000 OA
BRANCH  22  24
ATOM     24  C   UNL     1      11.172  11.908  20.028  0.00  0.00    +0.000 C 
BRANCH  24  27
ATOM     25  C   UNL     1      10.462  15.245  18.249  0.00  0.00    +0.000 A 
ATOM     26  C   UNL     1      10.543  14.243  19.231  0.00  0.00    +0.000 A 
ATOM     27  C   UNL     1      11.112  12.987  18.967  0.00  0.00    +0.000 A 
ATOM     28  C   UNL     1      11.654  12.761  17.698  0.00  0.00    +0.000 A 
ATOM     29  C   UNL     1      11.579  13.744  16.708  0.00  0.00    +0.000 A 
ATOM     30  C   UNL     1      10.965  14.973  16.972  0.00  0.00    +0.000 A 
BRANCH  25  32
ATOM     31  C   UNL     1      10.572  17.189  19.643  0.00  0.00    +0.000 C 
ATOM     32  O   UNL     1       9.868  16.394  18.702  0.00  0.00    +0.000 OA
ENDBRANCH  25  32
BRANCH  30  33
ATOM     33  O   UNL     1      10.885  15.885  15.957  0.00  0.00    +0.000 OA
ATOM     34  H   UNL     1      10.196  16.535  16.167  0.00  0.00    +0.000 HD
ENDBRANCH  30  33
ENDBRANCH  24  27
ENDBRANCH  22  24
ENDBRANCH  21  22
ENDBRANCH  20  21
ENDBRANCH   1  20
TORSDOF 10
ENDMDL
MODEL 2
REMARK VINA RESULT:      -9.0      1.327      1.667
REMARK  Name = 
REMARK  11 active torsions:
REMARK  status: ('A' for Active; 'I' for Inactive)
REMARK    1  A    between atoms: C_1  and  O_2
REMARK    2  A    between atoms: O_2  and  C_3
REMARK    3  A    between atoms: C_5  and  C_6
REMARK    4  A    between atoms: C_6  and  C_7
REMARK    5  A    between atoms: C_7  and  O_9
REMARK    6  A    between atoms: O_9  and  C_10
REMARK    7  A    between atoms: C_10  and  C_11
REMARK    8  A    between atoms: C_12  and  C_13
REMARK    9  A    between atoms: C_19  and  C_20
REMARK   10  A    between atoms: C_20  and  C_21
REMARK   11  A    between atoms: C_32  and  O_33
REMARK                            x       y       z     vdW  Elec       q    Type
REMARK                         _______ _______ _______ _____ _____    ______ ____
ROOT
ATOM      1  C   UNL     1       8.118   8.170  17.833  0.00  0.00    +0.000 C 
ATOM      2  C   UNL     1       6.993   7.664  17.301  0.00  0.00    +0.000 C 
ENDROOT
BRANCH   2   3
ATOM      3  C   UNL     1       6.818   6.252  16.753  0.00  0.00    +0.000 C 
ATOM      4  C   UNL     1       5.652   6.230  15.758  0.00  0.00    +0.000 C 
ATOM      5  C   UNL     1       5.746   4.941  14.927  0.00  0.00    +0.000 C 
ATOM      6  C   UNL     1       5.895   3.675  15.780  0.00  0.00    +0.000 C 
ATOM      7  C   UNL     1       5.718   3.951  17.267  0.00  0.00    +0.000 C 
ATOM      8  O   UNL     1       4.306   4.201  17.415  0.00  0.00    +0.000 OA
ATOM      9  C   UNL     1       4.250   5.597  17.654  0.00  0.00    +0.000 C 
ATOM     10  O   UNL     1       4.386   6.354  16.436  0.00  0.00    +0.000 OA
ATOM     11  O   UNL     1       5.344   5.843  18.547  0.00  0.00    +0.000 OA
ATOM     12  C   UNL     1       6.415   5.223  17.824  0.00  0.00    +0.000 C 
BRANCH   9  13
ATOM     13  C   UNL     1       2.967   6.010  18.382  0.00  0.00    +0.000 C 
BRANCH  13  14
ATOM     14  C   UNL     1       2.315   4.934  19.214  0.00  0.00    +0.000 A 
ATOM     15  C   UNL     1       1.454   4.003  18.618  0.00  0.00    +0.000 A 
ATOM     16  C   UNL     1       0.906   2.966  19.373  0.00  0.00    +0.000 A 
ATOM     17  C   UNL     1       1.203   2.859  20.730  0.00  0.00    +0.000 A 
ATOM     18  C   UNL     1       2.030   3.801  21.340  0.00  0.00    +0.000 A 
ATOM     19  C   UNL     1       2.579   4.839  20.586  0.00  0.00    +0.000 A 
ENDBRANCH  13  14
ENDBRANCH   9  13
ENDBRANCH   2   3
BRANCH   1  20
ATOM     20  C   UNL     1       8.251   9.590  18.310  0.00  0.00    +0.000 C 
BRANCH  20  21
ATOM     21  O   UNL     1       9.367   9.702  19.210  0.00  0.00    +0.000 OA
BRANCH  21  22
ATOM     22  C   UNL     1       9.933  10.942  19.293  0.00  0.00    +0.000 C 
ATOM     23  O   UNL     1      10.407  11.419  20.312  0.00  0.00    +0.000 OA
BRANCH  22  24
ATOM     24  C   UNL     1       9.939  11.622  17.934  0.00  0.00    +0.000 C 
BRANCH  24  27
ATOM     25  C   UNL     1       9.850  15.461  18.174  0.00  0.00    +0.000 A 
ATOM     26  C   UNL     1      10.309  14.134  18.130  0.00  0.00    +0.000 A 
ATOM     27  C   UNL     1       9.433  13.050  17.956  0.00  0.00    +0.000 A 
ATOM     28  C   UNL     1       8.074  13.321  17.773  0.00  0.00    +0.000 A 
ATOM     29  C   UNL     1       7.599  14.635  17.819  0.00  0.00    +0.000 A 
ATOM     30  C   UNL     1       8.478  15.701  18.042  0.00  0.00    +0.000 A 
BRANCH  25  32
ATOM     31  C   UNL     1      11.224  17.199  17.264  0.00  0.00    +0.000 C 
ATOM     32  O   UNL     1      10.858  16.372  18.358  0.00  0.00    +0.000 OA
ENDBRANCH  25  32
BRANCH  30  33
ATOM     33  O   UNL     1       7.956  16.961  18.114  0.00  0.00    +0.000 OA
ATOM     34  H   UNL     1       7.981  17.263  19.037  0.00  0.00    +0.000 HD
ENDBRANCH  30  33
ENDBRANCH  24  27
ENDBRANCH  22  24
ENDBRANCH  21  22
ENDBRANCH  20  21
ENDBRANCH   1  20
TORSDOF 10
ENDMDL
MODEL 3
REMARK VINA RESULT:      -8.8      5.641      8.362
REMARK  Name = 
REMARK  11 active torsions:
REMARK  status: ('A' for Active; 'I' for Inactive)
REMARK    1  A    between atoms: C_1  and  O_2
REMARK    2  A    between atoms: O_2  and  C_3
REMARK    3  A    between atoms: C_5  and  C_6
REMARK    4  A    between atoms: C_6  and  C_7
REMARK    5  A    between atoms: C_7  and  O_9
REMARK    6  A    between atoms: O_9  and  C_10
REMARK    7  A    between atoms: C_10  and  C_11
REMARK    8  A    between atoms: C_12  and  C_13
REMARK    9  A    between atoms: C_19  and  C_20
REMARK   10  A    between atoms: C_20  and  C_21
REMARK   11  A    between atoms: C_32  and  O_33
REMARK                            x       y       z     vdW  Elec       q    Type
REMARK                         _______ _______ _______ _____ _____    ______ ____
ROOT
ATOM      1  C   UNL     1       3.044   7.376  17.357  0.00  0.00    +0.000 C 
ATOM      2  C   UNL     1       4.372   7.579  17.374  0.00  0.00    +0.000 C 
ENDROOT
BRANCH   2   3
ATOM      3  C   UNL     1       5.418   6.726  16.663  0.00  0.00    +0.000 C 
ATOM      4  C   UNL     1       4.773   5.423  16.179  0.00  0.00    +0.000 C 
ATOM      5  C   UNL     1       5.701   4.779  15.137  0.00  0.00    +0.000 C 
ATOM      6  C   UNL     1       7.153   4.647  15.613  0.00  0.00    +0.000 C 
ATOM      7  C   UNL     1       7.318   5.000  17.085  0.00  0.00    +0.000 C 
ATOM      8  O   UNL     1       6.712   3.894  17.784  0.00  0.00    +0.000 OA
ATOM      9  C   UNL     1       5.514   4.454  18.294  0.00  0.00    +0.000 C 
ATOM     10  O   UNL     1       4.492   4.539  17.283  0.00  0.00    +0.000 OA
ATOM     11  O   UNL     1       5.903   5.753  18.755  0.00  0.00    +0.000 OA
ATOM     12  C   UNL     1       6.558   6.259  17.585  0.00  0.00    +0.000 C 
BRANCH   9  13
ATOM     13  C   UNL     1       4.982   3.681  19.506  0.00  0.00    +0.000 C 
BRANCH  13  14
ATOM     14  C   UNL     1       3.492   3.759  19.726  0.00  0.00    +0.000 A 
ATOM     15  C   UNL     1       2.676   2.658  19.435  0.00  0.00    +0.000 A 
ATOM     16  C   UNL     1       1.308   2.705  19.703  0.00  0.00    +0.000 A 
ATOM     17  C   UNL     1       0.743   3.856  20.252  0.00  0.00    +0.000 A 
ATOM     18  C   UNL     1       1.542   4.969  20.510  0.00  0.00    +0.000 A 
ATOM     19  C   UNL     1       2.910   4.924  20.243  0.00  0.00    +0.000 A 
ENDBRANCH  13  14
ENDBRANCH   9  13
ENDBRANCH   2   3
BRANCH   1  20
ATOM     20  C   UNL     1       2.060   8.217  18.122  0.00  0.00    +0.000 C 
BRANCH  20  21
ATOM     21  O   UNL     1       2.521   9.577  18.183  0.00  0.00    +0.000 OA
BRANCH  21  22
ATOM     22  C   UNL     1       1.586  10.499  18.559  0.00  0.00    +0.000 C 
ATOM     23  O   UNL     1       1.696  11.703  18.395  0.00  0.00    +0.000 OA
BRANCH  22  24
ATOM     24  C   UNL     1       0.369   9.814  19.160  0.00  0.00    +0.000 C 
BRANCH  24  27
ATOM     25  C   UNL     1      -2.810  10.383  17.069  0.00  0.00    +0.000 A 
ATOM     26  C   UNL     1      -1.593   9.860  17.538  0.00  0.00    +0.000 A 
ATOM     27  C   UNL     1      -0.954  10.372  18.678  0.00  0.00    +0.000 A 
ATOM     28  C   UNL     1      -1.586  11.401  19.384  0.00  0.00    +0.000 A 
ATOM     29  C   UNL     1      -2.793  11.937  18.928  0.00  0.00    +0.000 A 
ATOM     30  C   UNL     1      -3.394  11.447  17.763  0.00  0.00    +0.000 A 
BRANCH  25  32
ATOM     31  C   UNL     1      -3.089  10.396  14.690  0.00  0.00    +0.000 C 
ATOM     32  O   UNL     1      -3.266   9.751  15.941  0.00  0.00    +0.000 OA
ENDBRANCH  25  32
BRANCH  30  33
ATOM     33  O   UNL     1      -4.555  12.033  17.342  0.00  0.00    +0.000 OA
ATOM     34  H   UNL     1      -5.282  11.746  17.919  0.00  0.00    +0.000 HD
ENDBRANCH  30  33
ENDBRANCH  24  27
ENDBRANCH  22  24
ENDBRANCH  21  22
ENDBRANCH  20  21
ENDBRANCH   1  20
TORSDOF 10
ENDMDL
MODEL 4
REMARK VINA RESULT:      -8.8      6.049      8.420
REMARK  Name = 
REMARK  11 active torsions:
REMARK  status: ('A' for Active; 'I' for Inactive)
REMARK    1  A    between atoms: C_1  and  O_2
REMARK    2  A    between atoms: O_2  and  C_3
REMARK    3  A    between atoms: C_5  and  C_6
REMARK    4  A    between atoms: C_6  and  C_7
REMARK    5  A    between atoms: C_7  and  O_9
REMARK    6  A    between atoms: O_9  and  C_10
REMARK    7  A    between atoms: C_10  and  C_11
REMARK    8  A    between atoms: C_12  and  C_13
REMARK    9  A    between atoms: C_19  and  C_20
REMARK   10  A    between atoms: C_20  and  C_21
REMARK   11  A    between atoms: C_32  and  O_33
REMARK                            x       y       z     vdW  Elec       q    Type
REMARK                         _______ _______ _______ _____ _____    ______ ____
ROOT
ATOM      1  C   UNL     1       3.160   8.312  17.543  0.00  0.00    +0.000 C 
ATOM      2  C   UNL     1       3.596   7.041  17.561  0.00  0.00    +0.000 C 
ENDROOT
BRANCH   2   3
ATOM      3  C   UNL     1       4.947   6.551  17.051  0.00  0.00    +0.000 C 
ATOM      4  C   UNL     1       4.772   5.191  16.364  0.00  0.00    +0.000 C 
ATOM      5  C   UNL     1       6.023   4.910  15.518  0.00  0.00    +0.000 C 
ATOM      6  C   UNL     1       7.335   5.081  16.293  0.00  0.00    +0.000 C 
ATOM      7  C   UNL     1       7.107   5.298  17.783  0.00  0.00    +0.000 C 
ATOM      8  O   UNL     1       6.682   4.009  18.268  0.00  0.00    +0.000 OA
ATOM      9  C   UNL     1       5.303   4.202  18.532  0.00  0.00    +0.000 C 
ATOM     10  O   UNL     1       4.516   4.150  17.327  0.00  0.00    +0.000 OA
ATOM     11  O   UNL     1       5.242   5.498  19.140  0.00  0.00    +0.000 OA
ATOM     12  C   UNL     1       5.963   6.274  18.174  0.00  0.00    +0.000 C 
BRANCH   9  13
ATOM     13  C   UNL     1       4.760   3.195  19.551  0.00  0.00    +0.000 C 
BRANCH  13  14
ATOM     14  C   UNL     1       3.257   3.137  19.673  0.00  0.00    +0.000 A 
ATOM     15  C   UNL     1       2.587   3.984  20.565  0.00  0.00    +0.000 A 
ATOM     16  C   UNL     1       1.194   3.979  20.628  0.00  0.00    +0.000 A 
ATOM     17  C   UNL     1       0.461   3.121  19.810  0.00  0.00    +0.000 A 
ATOM     18  C   UNL     1       1.120   2.250  18.945  0.00  0.00    +0.000 A 
ATOM     19  C   UNL     1       2.514   2.253  18.881  0.00  0.00    +0.000 A 
ENDBRANCH  13  14
ENDBRANCH   9  13
ENDBRANCH   2   3
BRANCH   1  20
ATOM     20  C   UNL     1       1.794   8.734  18.009  0.00  0.00    +0.000 C 
BRANCH  20  21
ATOM     21  O   UNL     1       1.668   8.509  19.423  0.00  0.00    +0.000 OA
BRANCH  21  22
ATOM     22  C   UNL     1       0.763   9.303  20.067  0.00  0.00    +0.000 C 
ATOM     23  O   UNL     1       0.183   8.998  21.097  0.00  0.00    +0.000 OA
BRANCH  22  24
ATOM     24  C   UNL     1       0.617  10.638  19.353  0.00  0.00    +0.000 C 
BRANCH  24  27
ATOM     25  C   UNL     1      -2.898  10.950  17.820  0.00  0.00    +0.000 A 
ATOM     26  C   UNL     1      -1.572  10.548  18.056  0.00  0.00    +0.000 A 
ATOM     27  C   UNL     1      -0.819  11.062  19.124  0.00  0.00    +0.000 A 
ATOM     28  C   UNL     1      -1.438  11.961  19.997  0.00  0.00    +0.000 A 
ATOM     29  C   UNL     1      -2.754  12.375  19.775  0.00  0.00    +0.000 A 
ATOM     30  C   UNL     1      -3.476  11.891  18.678  0.00  0.00    +0.000 A 
BRANCH  25  32
ATOM     31  C   UNL     1      -2.751  10.382  15.497  0.00  0.00    +0.000 C 
ATOM     32  O   UNL     1      -3.457  10.339  16.728  0.00  0.00    +0.000 OA
ENDBRANCH  25  32
BRANCH  30  33
ATOM     33  O   UNL     1      -4.746  12.357  18.487  0.00  0.00    +0.000 OA
ATOM     34  H   UNL     1      -5.377  11.720  18.859  0.00  0.00    +0.000 HD
ENDBRANCH  30  33
ENDBRANCH  24  27
ENDBRANCH  22  24
ENDBRANCH  21  22
ENDBRANCH  20  21
ENDBRANCH   1  20
TORSDOF 10
ENDMDL
MODEL 5
REMARK VINA RESULT:      -8.8      5.846      8.633
REMARK  Name = 
REMARK  11 active torsions:
REMARK  status: ('A' for Active; 'I' for Inactive)
REMARK    1  A    between atoms: C_1  and  O_2
REMARK    2  A    between atoms: O_2  and  C_3
REMARK    3  A    between atoms: C_5  and  C_6
REMARK    4  A    between atoms: C_6  and  C_7
REMARK    5  A    between atoms: C_7  and  O_9
REMARK    6  A    between atoms: O_9  and  C_10
REMARK    7  A    between atoms: C_10  and  C_11
REMARK    8  A    between atoms: C_12  and  C_13
REMARK    9  A    between atoms: C_19  and  C_20
REMARK   10  A    between atoms: C_20  and  C_21
REMARK   11  A    between atoms: C_32  and  O_33
REMARK                            x       y       z     vdW  Elec       q    Type
REMARK                         _______ _______ _______ _____ _____    ______ ____
ROOT
ATOM      1  C   UNL     1       2.170   7.154  18.303  0.00  0.00    +0.000 C 
ATOM      2  C   UNL     1       2.551   6.512  19.420  0.00  0.00    +0.000 C 
ENDROOT
BRANCH   2   3
ATOM      3  C   UNL     1       1.901   5.260  19.999  0.00  0.00    +0.000 C 
ATOM      4  C   UNL     1       2.966   4.407  20.698  0.00  0.00    +0.000 C 
ATOM      5  C   UNL     1       2.256   3.390  21.605  0.00  0.00    +0.000 C 
ATOM      6  C   UNL     1       1.156   2.597  20.889  0.00  0.00    +0.000 C 
ATOM      7  C   UNL     1       1.142   2.848  19.387  0.00  0.00    +0.000 C 
ATOM      8  O   UNL     1       2.315   2.165  18.902  0.00  0.00    +0.000 OA
ATOM      9  C   UNL     1       3.193   3.228  18.571  0.00  0.00    +0.000 C 
ATOM     10  O   UNL     1       3.836   3.772  19.740  0.00  0.00    +0.000 OA
ATOM     11  O   UNL     1       2.346   4.198  17.942  0.00  0.00    +0.000 OA
ATOM     12  C   UNL     1       1.314   4.322  18.929  0.00  0.00    +0.000 C 
BRANCH   9  13
ATOM     13  C   UNL     1       4.249   2.810  17.544  0.00  0.00    +0.000 C 
BRANCH  13  14
ATOM     14  C   UNL     1       5.131   3.921  17.027  0.00  0.00    +0.000 A 
ATOM     15  C   UNL     1       5.701   4.842  17.915  0.00  0.00    +0.000 A 
ATOM     16  C   UNL     1       6.571   5.826  17.446  0.00  0.00    +0.000 A 
ATOM     17  C   UNL     1       6.868   5.905  16.087  0.00  0.00    +0.000 A 
ATOM     18  C   UNL     1       6.278   5.015  15.191  0.00  0.00    +0.000 A 
ATOM     19  C   UNL     1       5.407   4.030  15.658  0.00  0.00    +0.000 A 
ENDBRANCH  13  14
ENDBRANCH   9  13
ENDBRANCH   2   3
BRANCH   1  20
ATOM     20  C   UNL     1       2.813   8.420  17.806  0.00  0.00    +0.000 C 
BRANCH  20  21
ATOM     21  O   UNL     1       1.807   9.323  17.320  0.00  0.00    +0.000 OA
BRANCH  21  22
ATOM     22  C   UNL     1       1.604  10.440  18.078  0.00  0.00    +0.000 C 
ATOM     23  O   UNL     1       2.431  11.322  18.248  0.00  0.00    +0.000 OA
BRANCH  22  24
ATOM     24  C   UNL     1       0.189  10.459  18.637  0.00  0.00    +0.000 C 
BRANCH  24  27
ATOM     25  C   UNL     1      -0.573  10.912  22.381  0.00  0.00    +0.000 A 
ATOM     26  C   UNL     1      -0.514  11.122  20.993  0.00  0.00    +0.000 A 
ATOM     27  C   UNL     1       0.113  10.209  20.129  0.00  0.00    +0.000 A 
ATOM     28  C   UNL     1       0.645   9.039  20.678  0.00  0.00    +0.000 A 
ATOM     29  C   UNL     1       0.599   8.816  22.057  0.00  0.00    +0.000 A 
ATOM     30  C   UNL     1       0.014   9.758  22.910  0.00  0.00    +0.000 A 
BRANCH  25  32
ATOM     31  C   UNL     1      -2.520  12.288  22.615  0.00  0.00    +0.000 C 
ATOM     32  O   UNL     1      -1.220  11.919  23.049  0.00  0.00    +0.000 OA
ENDBRANCH  25  32
BRANCH  30  33
ATOM     33  O   UNL     1       0.030   9.508  24.253  0.00  0.00    +0.000 OA
ATOM     34  H   UNL     1      -0.883   9.490  24.584  0.00  0.00    +0.000 HD
ENDBRANCH  30  33
ENDBRANCH  24  27
ENDBRANCH  22  24
ENDBRANCH  21  22
ENDBRANCH  20  21
ENDBRANCH   1  20
TORSDOF 10
ENDMDL
MODEL 6
REMARK VINA RESULT:      -8.8      5.056      8.591
REMARK  Name = 
REMARK  11 active torsions:
REMARK  status: ('A' for Active; 'I' for Inactive)
REMARK    1  A    between atoms: C_1  and  O_2
REMARK    2  A    between atoms: O_2  and  C_3
REMARK    3  A    between atoms: C_5  and  C_6
REMARK    4  A    between atoms: C_6  and  C_7
REMARK    5  A    between atoms: C_7  and  O_9
REMARK    6  A    between atoms: O_9  and  C_10
REMARK    7  A    between atoms: C_10  and  C_11
REMARK    8  A    between atoms: C_12  and  C_13
REMARK    9  A    between atoms: C_19  and  C_20
REMARK   10  A    between atoms: C_20  and  C_21
REMARK   11  A    between atoms: C_32  and  O_33
REMARK                            x       y       z     vdW  Elec       q    Type
REMARK                         _______ _______ _______ _____ _____    ______ ____
ROOT
ATOM      1  C   UNL     1       2.192   7.591  18.059  0.00  0.00    +0.000 C 
ATOM      2  C   UNL     1       2.638   6.671  18.930  0.00  0.00    +0.000 C 
ENDROOT
BRANCH   2   3
ATOM      3  C   UNL     1       2.173   5.222  19.019  0.00  0.00    +0.000 C 
ATOM      4  C   UNL     1       3.127   4.432  19.923  0.00  0.00    +0.000 C 
ATOM      5  C   UNL     1       2.438   3.119  20.326  0.00  0.00    +0.000 C 
ATOM      6  C   UNL     1       1.875   2.334  19.135  0.00  0.00    +0.000 C 
ATOM      7  C   UNL     1       2.293   2.928  17.796  0.00  0.00    +0.000 C 
ATOM      8  O   UNL     1       3.693   2.601  17.686  0.00  0.00    +0.000 OA
ATOM      9  C   UNL     1       4.332   3.852  17.880  0.00  0.00    +0.000 C 
ATOM     10  O   UNL     1       4.394   4.209  19.275  0.00  0.00    +0.000 OA
ATOM     11  O   UNL     1       3.525   4.775  17.139  0.00  0.00    +0.000 OA
ATOM     12  C   UNL     1       2.229   4.475  17.674  0.00  0.00    +0.000 C 
BRANCH   9  13
ATOM     13  C   UNL     1       5.738   3.886  17.272  0.00  0.00    +0.000 C 
BRANCH  13  14
ATOM     14  C   UNL     1       6.552   5.118  17.582  0.00  0.00    +0.000 A 
ATOM     15  C   UNL     1       6.389   6.284  16.823  0.00  0.00    +0.000 A 
ATOM     16  C   UNL     1       7.090   7.443  17.153  0.00  0.00    +0.000 A 
ATOM     17  C   UNL     1       7.969   7.443  18.235  0.00  0.00    +0.000 A 
ATOM     18  C   UNL     1       8.165   6.277  18.974  0.00  0.00    +0.000 A 
ATOM     19  C   UNL     1       7.464   5.117  18.645  0.00  0.00    +0.000 A 
ENDBRANCH  13  14
ENDBRANCH   9  13
ENDBRANCH   2   3
BRANCH   1  20
ATOM     20  C   UNL     1       2.647   9.025  18.051  0.00  0.00    +0.000 C 
BRANCH  20  21
ATOM     21  O   UNL     1       1.633   9.858  17.466  0.00  0.00    +0.000 OA
BRANCH  21  22
ATOM     22  C   UNL     1       1.193  10.887  18.249  0.00  0.00    +0.000 C 
ATOM     23  O   UNL     1       1.794  11.936  18.414  0.00  0.00    +0.000 OA
BRANCH  22  24
ATOM     24  C   UNL     1      -0.170  10.565  18.842  0.00  0.00    +0.000 C 
BRANCH  24  27
ATOM     25  C   UNL     1      -0.625  10.901  22.647  0.00  0.00    +0.000 A 
ATOM     26  C   UNL     1      -0.664  11.162  21.267  0.00  0.00    +0.000 A 
ATOM     27  C   UNL     1      -0.141  10.261  20.325  0.00  0.00    +0.000 A 
ATOM     28  C   UNL     1       0.387   9.053  20.789  0.00  0.00    +0.000 A 
ATOM     29  C   UNL     1       0.440   8.779  22.158  0.00  0.00    +0.000 A 
ATOM     30  C   UNL     1      -0.042   9.708  23.087  0.00  0.00    +0.000 A 
BRANCH  25  32
ATOM     31  C   UNL     1      -1.713  13.033  22.726  0.00  0.00    +0.000 C 
ATOM     32  O   UNL     1      -1.180  11.903  23.399  0.00  0.00    +0.000 OA
ENDBRANCH  25  32
BRANCH  30  33
ATOM     33  O   UNL     1       0.067   9.405  24.415  0.00  0.00    +0.000 OA
ATOM     34  H   UNL     1       0.766   9.953  24.809  0.00  0.00    +0.000 HD
ENDBRANCH  30  33
ENDBRANCH  24  27
ENDBRANCH  22  24
ENDBRANCH  21  22
ENDBRANCH  20  21
ENDBRANCH   1  20
TORSDOF 10
ENDMDL
MODEL 7
REMARK VINA RESULT:      -8.7      5.335      9.371
REMARK  Name = 
REMARK  11 active torsions:
REMARK  status: ('A' for Active; 'I' for Inactive)
REMARK    1  A    between atoms: C_1  and  O_2
REMARK    2  A    between atoms: O_2  and  C_3
REMARK    3  A    between atoms: C_5  and  C_6
REMARK    4  A    between atoms: C_6  and  C_7
REMARK    5  A    between atoms: C_7  and  O_9
REMARK    6  A    between atoms: O_9  and  C_10
REMARK    7  A    between atoms: C_10  and  C_11
REMARK    8  A    between atoms: C_12  and  C_13
REMARK    9  A    between atoms: C_19  and  C_20
REMARK   10  A    between atoms: C_20  and  C_21
REMARK   11  A    between atoms: C_32  and  O_33
REMARK                            x       y       z     vdW  Elec       q    Type
REMARK                         _______ _______ _______ _____ _____    ______ ____
ROOT
ATOM      1  C   UNL     1       1.938   7.201  18.194  0.00  0.00    +0.000 C 
ATOM      2  C   UNL     1       2.294   6.406  19.216  0.00  0.00    +0.000 C 
ENDROOT
BRANCH   2   3
ATOM      3  C   UNL     1       1.981   4.919  19.345  0.00  0.00    +0.000 C 
ATOM      4  C   UNL     1       3.151   4.208  20.035  0.00  0.00    +0.000 C 
ATOM      5  C   UNL     1       2.667   2.832  20.517  0.00  0.00    +0.000 C 
ATOM      6  C   UNL     1       1.963   2.016  19.426  0.00  0.00    +0.000 C 
ATOM      7  C   UNL     1       2.073   2.663  18.052  0.00  0.00    +0.000 C 
ATOM      8  O   UNL     1       3.451   2.467  17.678  0.00  0.00    +0.000 OA
ATOM      9  C   UNL     1       4.003   3.768  17.789  0.00  0.00    +0.000 C 
ATOM     10  O   UNL     1       4.291   4.111  19.159  0.00  0.00    +0.000 OA
ATOM     11  O   UNL     1       2.995   4.624  17.237  0.00  0.00    +0.000 OA
ATOM     12  C   UNL     1       1.852   4.199  17.991  0.00  0.00    +0.000 C 
BRANCH   9  13
ATOM     13  C   UNL     1       5.264   3.939  16.935  0.00  0.00    +0.000 C 
BRANCH  13  14
ATOM     14  C   UNL     1       6.187   5.057  17.352  0.00  0.00    +0.000 A 
ATOM     15  C   UNL     1       6.008   6.349  16.840  0.00  0.00    +0.000 A 
ATOM     16  C   UNL     1       6.817   7.398  17.277  0.00  0.00    +0.000 A 
ATOM     17  C   UNL     1       7.817   7.161  18.219  0.00  0.00    +0.000 A 
ATOM     18  C   UNL     1       8.026   5.872  18.707  0.00  0.00    +0.000 A 
ATOM     19  C   UNL     1       7.217   4.822  18.270  0.00  0.00    +0.000 A 
ENDBRANCH  13  14
ENDBRANCH   9  13
ENDBRANCH   2   3
BRANCH   1  20
ATOM     20  C   UNL     1       2.226   8.677  18.143  0.00  0.00    +0.000 C 
BRANCH  20  21
ATOM     21  O   UNL     1       1.988   9.268  19.431  0.00  0.00    +0.000 OA
BRANCH  21  22
ATOM     22  C   UNL     1       0.709   9.692  19.656  0.00  0.00    +0.000 C 
ATOM     23  O   UNL     1      -0.035   9.226  20.504  0.00  0.00    +0.000 OA
BRANCH  22  24
ATOM     24  C   UNL     1       0.361  10.856  18.743  0.00  0.00    +0.000 C 
BRANCH  24  27
ATOM     25  C   UNL     1      -2.917  10.241  16.824  0.00  0.00    +0.000 A 
ATOM     26  C   UNL     1      -1.571  10.187  17.226  0.00  0.00    +0.000 A 
ATOM     27  C   UNL     1      -1.096  10.906  18.335  0.00  0.00    +0.000 A 
ATOM     28  C   UNL     1      -2.014  11.654  19.079  0.00  0.00    +0.000 A 
ATOM     29  C   UNL     1      -3.354  11.724  18.691  0.00  0.00    +0.000 A 
ATOM     30  C   UNL     1      -3.802  11.040  17.555  0.00  0.00    +0.000 A 
BRANCH  25  32
ATOM     31  C   UNL     1      -3.087  10.085  14.440  0.00  0.00    +0.000 C 
ATOM     32  O   UNL     1      -3.178   9.475  15.719  0.00  0.00    +0.000 OA
ENDBRANCH  25  32
BRANCH  30  33
ATOM     33  O   UNL     1      -5.115  11.172  17.200  0.00  0.00    +0.000 OA
ATOM     34  H   UNL     1      -5.551  11.782  17.817  0.00  0.00    +0.000 HD
ENDBRANCH  30  33
ENDBRANCH  24  27
ENDBRANCH  22  24
ENDBRANCH  21  22
ENDBRANCH  20  21
ENDBRANCH   1  20
TORSDOF 10
ENDMDL
MODEL 8
REMARK VINA RESULT:      -8.7      1.778      2.843
REMARK  Name = 
REMARK  11 active torsions:
REMARK  status: ('A' for Active; 'I' for Inactive)
REMARK    1  A    between atoms: C_1  and  O_2
REMARK    2  A    between atoms: O_2  and  C_3
REMARK    3  A    between atoms: C_5  and  C_6
REMARK    4  A    between atoms: C_6  and  C_7
REMARK    5  A    between atoms: C_7  and  O_9
REMARK    6  A    between atoms: O_9  and  C_10
REMARK    7  A    between atoms: C_10  and  C_11
REMARK    8  A    between atoms: C_12  and  C_13
REMARK    9  A    between atoms: C_19  and  C_20
REMARK   10  A    between atoms: C_20  and  C_21
REMARK   11  A    between atoms: C_32  and  O_33
REMARK                            x       y       z     vdW  Elec       q    Type
REMARK                         _______ _______ _______ _____ _____    ______ ____
ROOT
ATOM      1  C   UNL     1       8.071   8.259  17.677  0.00  0.00    +0.000 C 
ATOM      2  C   UNL     1       7.575   7.065  18.039  0.00  0.00    +0.000 C 
ENDROOT
BRANCH   2   3
ATOM      3  C   UNL     1       7.007   6.009  17.097  0.00  0.00    +0.000 C 
ATOM      4  C   UNL     1       5.795   6.584  16.355  0.00  0.00    +0.000 C 
ATOM      5  C   UNL     1       5.493   5.684  15.146  0.00  0.00    +0.000 C 
ATOM      6  C   UNL     1       5.390   4.196  15.504  0.00  0.00    +0.000 C 
ATOM      7  C   UNL     1       5.410   3.956  17.007  0.00  0.00    +0.000 C 
ATOM      8  O   UNL     1       4.123   4.425  17.458  0.00  0.00    +0.000 OA
ATOM      9  C   UNL     1       4.440   5.624  18.145  0.00  0.00    +0.000 C 
ATOM     10  O   UNL     1       4.660   6.718  17.234  0.00  0.00    +0.000 OA
ATOM     11  O   UNL     1       5.629   5.305  18.877  0.00  0.00    +0.000 OA
ATOM     12  C   UNL     1       6.447   4.774  17.826  0.00  0.00    +0.000 C 
BRANCH   9  13
ATOM     13  C   UNL     1       3.365   6.008  19.167  0.00  0.00    +0.000 C 
BRANCH  13  14
ATOM     14  C   UNL     1       2.590   4.858  19.761  0.00  0.00    +0.000 A 
ATOM     15  C   UNL     1       2.909   4.375  21.037  0.00  0.00    +0.000 A 
ATOM     16  C   UNL     1       2.149   3.359  21.616  0.00  0.00    +0.000 A 
ATOM     17  C   UNL     1       1.074   2.809  20.919  0.00  0.00    +0.000 A 
ATOM     18  C   UNL     1       0.772   3.258  19.635  0.00  0.00    +0.000 A 
ATOM     19  C   UNL     1       1.531   4.275  19.055  0.00  0.00    +0.000 A 
ENDBRANCH  13  14
ENDBRANCH   9  13
ENDBRANCH   2   3
BRANCH   1  20
ATOM     20  C   UNL     1       8.571   9.288  18.655  0.00  0.00    +0.000 C 
BRANCH  20  21
ATOM     21  O   UNL     1       8.669  10.569  18.011  0.00  0.00    +0.000 OA
BRANCH  21  22
ATOM     22  C   UNL     1       9.811  11.272  18.271  0.00  0.00    +0.000 C 
ATOM     23  O   UNL     1      10.337  12.051  17.493  0.00  0.00    +0.000 OA
BRANCH  22  24
ATOM     24  C   UNL     1      10.305  10.990  19.682  0.00  0.00    +0.000 C 
BRANCH  24  27
ATOM     25  C   UNL     1       9.977  14.248  21.703  0.00  0.00    +0.000 A 
ATOM     26  C   UNL     1      10.377  13.304  20.741  0.00  0.00    +0.000 A 
ATOM     27  C   UNL     1       9.848  12.004  20.709  0.00  0.00    +0.000 A 
ATOM     28  C   UNL     1       8.858  11.671  21.640  0.00  0.00    +0.000 A 
ATOM     29  C   UNL     1       8.452  12.595  22.606  0.00  0.00    +0.000 A 
ATOM     30  C   UNL     1       9.024  13.871  22.655  0.00  0.00    +0.000 A 
BRANCH  25  32
ATOM     31  C   UNL     1       9.960  16.483  20.841  0.00  0.00    +0.000 C 
ATOM     32  O   UNL     1      10.614  15.454  21.568  0.00  0.00    +0.000 OA
ENDBRANCH  25  32
BRANCH  30  33
ATOM     33  O   UNL     1       8.617  14.722  23.643  0.00  0.00    +0.000 OA
ATOM     34  H   UNL     1       8.774  14.305  24.506  0.00  0.00    +0.000 HD
ENDBRANCH  30  33
ENDBRANCH  24  27
ENDBRANCH  22  24
ENDBRANCH  21  22
ENDBRANCH  20  21
ENDBRANCH   1  20
TORSDOF 10
ENDMDL
MODEL 9
REMARK VINA RESULT:      -8.7      1.144      1.513
REMARK  Name = 
REMARK  11 active torsions:
REMARK  status: ('A' for Active; 'I' for Inactive)
REMARK    1  A    between atoms: C_1  and  O_2
REMARK    2  A    between atoms: O_2  and  C_3
REMARK    3  A    between atoms: C_5  and  C_6
REMARK    4  A    between atoms: C_6  and  C_7
REMARK    5  A    between atoms: C_7  and  O_9
REMARK    6  A    between atoms: O_9  and  C_10
REMARK    7  A    between atoms: C_10  and  C_11
REMARK    8  A    between atoms: C_12  and  C_13
REMARK    9  A    between atoms: C_19  and  C_20
REMARK   10  A    between atoms: C_20  and  C_21
REMARK   11  A    between atoms: C_32  and  O_33
REMARK                            x       y       z     vdW  Elec       q    Type
REMARK                         _______ _______ _______ _____ _____    ______ ____
ROOT
ATOM      1  C   UNL     1       7.969   8.357  17.456  0.00  0.00    +0.000 C 
ATOM      2  C   UNL     1       7.019   7.446  17.724  0.00  0.00    +0.000 C 
ENDROOT
BRANCH   2   3
ATOM      3  C   UNL     1       6.813   6.124  16.991  0.00  0.00    +0.000 C 
ATOM      4  C   UNL     1       5.719   6.291  15.930  0.00  0.00    +0.000 C 
ATOM      5  C   UNL     1       5.807   5.110  14.951  0.00  0.00    +0.000 C 
ATOM      6  C   UNL     1       5.835   3.743  15.645  0.00  0.00    +0.000 C 
ATOM      7  C   UNL     1       5.569   3.844  17.141  0.00  0.00    +0.000 C 
ATOM      8  O   UNL     1       4.164   4.155  17.231  0.00  0.00    +0.000 OA
ATOM      9  C   UNL     1       4.160   5.512  17.641  0.00  0.00    +0.000 C 
ATOM     10  O   UNL     1       4.417   6.403  16.538  0.00  0.00    +0.000 OA
ATOM     11  O   UNL     1       5.200   5.584  18.624  0.00  0.00    +0.000 OA
ATOM     12  C   UNL     1       6.287   4.996  17.897  0.00  0.00    +0.000 C 
BRANCH   9  13
ATOM     13  C   UNL     1       2.851   5.905  18.333  0.00  0.00    +0.000 C 
BRANCH  13  14
ATOM     14  C   UNL     1       2.246   4.853  19.228  0.00  0.00    +0.000 A 
ATOM     15  C   UNL     1       1.316   3.939  18.717  0.00  0.00    +0.000 A 
ATOM     16  C   UNL     1       0.808   2.922  19.526  0.00  0.00    +0.000 A 
ATOM     17  C   UNL     1       1.217   2.820  20.855  0.00  0.00    +0.000 A 
ATOM     18  C   UNL     1       2.114   3.746  21.383  0.00  0.00    +0.000 A 
ATOM     19  C   UNL     1       2.623   4.764  20.574  0.00  0.00    +0.000 A 
ENDBRANCH  13  14
ENDBRANCH   9  13
ENDBRANCH   2   3
BRANCH   1  20
ATOM     20  C   UNL     1       8.093   9.671  18.176  0.00  0.00    +0.000 C 
BRANCH  20  21
ATOM     21  O   UNL     1       9.452  10.136  18.118  0.00  0.00    +0.000 OA
BRANCH  21  22
ATOM     22  C   UNL     1       9.870  10.868  19.192  0.00  0.00    +0.000 C 
ATOM     23  O   UNL     1       9.340  10.848  20.292  0.00  0.00    +0.000 OA
BRANCH  22  24
ATOM     24  C   UNL     1      11.114  11.670  18.843  0.00  0.00    +0.000 C 
BRANCH  24  27
ATOM     25  C   UNL     1       9.655  15.194  18.341  0.00  0.00    +0.000 A 
ATOM     26  C   UNL     1       9.832  13.801  18.297  0.00  0.00    +0.000 A 
ATOM     27  C   UNL     1      10.922  13.170  18.918  0.00  0.00    +0.000 A 
ATOM     28  C   UNL     1      11.822  13.963  19.639  0.00  0.00    +0.000 A 
ATOM     29  C   UNL     1      11.663  15.350  19.689  0.00  0.00    +0.000 A 
ATOM     30  C   UNL     1      10.598  15.969  19.024  0.00  0.00    +0.000 A 
BRANCH  25  32
ATOM     31  C   UNL     1       7.411  16.028  18.431  0.00  0.00    +0.000 C 
ATOM     32  O   UNL     1       8.536  15.614  17.671  0.00  0.00    +0.000 OA
ENDBRANCH  25  32
BRANCH  30  33
ATOM     33  O   UNL     1      10.512  17.332  19.075  0.00  0.00    +0.000 OA
ATOM     34  H   UNL     1      11.115  17.713  18.417  0.00  0.00    +0.000 HD
ENDBRANCH  30  33
ENDBRANCH  24  27
ENDBRANCH  22  24
ENDBRANCH  21  22
ENDBRANCH  20  21
ENDBRANCH   1  20
TORSDOF 10
ENDMDL
