MODEL 1
REMARK VINA RESULT:      -8.0      0.000      0.000
REMARK  Name = 
REMARK  9 active torsions:
REMARK  status: ('A' for Active; 'I' for Inactive)
REMARK    1  A    between atoms: C_1  and  C_2
REMARK    2  A    between atoms: C_4  and  C_5
REMARK    3  A    between atoms: C_8  and  N_9
REMARK    4  A    between atoms: N_9  and  C_10
REMARK    5  A    between atoms: N_9  and  C_11
REMARK    6  A    between atoms: C_15  and  C_16
REMARK    7  A    between atoms: C_19  and  N_20
REMARK    8  A    between atoms: N_20  and  C_21
REMARK    9  A    between atoms: N_20  and  C_22
REMARK                            x       y       z     vdW  Elec       q    Type
REMARK                         _______ _______ _______ _____ _____    ______ ____
ROOT
ATOM      1  C   UNL     1       2.013   3.364  21.420  0.00  0.00    +0.000 C 
ATOM      2  C   UNL     1       2.316   4.521  20.501  0.00  0.00    +0.000 A 
ATOM      3  C   UNL     1       3.088   4.302  19.341  0.00  0.00    +0.000 A 
ATOM      4  C   UNL     1       3.450   5.289  18.405  0.00  0.00    +0.000 A 
ATOM      5  S   UNL     1       2.935   6.978  18.603  0.00  0.00    +0.000 S 
ATOM      6  C   UNL     1       1.996   6.973  20.109  0.00  0.00    +0.000 A 
ATOM      7  C   UNL     1       1.807   5.793  20.847  0.00  0.00    +0.000 A 
ENDROOT
BRANCH   4   8
ATOM      8  C   UNL     1       4.290   5.032  17.223  0.00  0.00    +0.000 A 
ATOM      9  C   UNL     1       4.753   6.073  16.403  0.00  0.00    +0.000 A 
ATOM     10  C   UNL     1       5.567   5.832  15.289  0.00  0.00    +0.000 A 
ATOM     11  C   UNL     1       5.941   4.546  14.907  0.00  0.00    +0.000 A 
ATOM     12  C   UNL     1       5.472   3.507  15.730  0.00  0.00    +0.000 A 
ATOM     13  C   UNL     1       4.683   3.742  16.867  0.00  0.00    +0.000 A 
BRANCH  11  14
ATOM     14  N   UNL     1       6.665   4.288  13.746  0.00  0.00    +0.000 N 
ATOM     15  C   UNL     1       7.732   5.190  13.311  0.00  0.00    +0.000 C 
ATOM     16  C   UNL     1       6.106   3.472  12.669  0.00  0.00    +0.000 C 
ENDBRANCH  11  14
ENDBRANCH   4   8
BRANCH   6  17
ATOM     17  C   UNL     1       1.411   8.275  20.474  0.00  0.00    +0.000 A 
ATOM     18  C   UNL     1       1.035   8.564  21.785  0.00  0.00    +0.000 A 
ATOM     19  C   UNL     1       0.441   9.794  22.120  0.00  0.00    +0.000 A 
ATOM     20  C   UNL     1       0.180  10.796  21.167  0.00  0.00    +0.000 A 
ATOM     21  C   UNL     1       0.591  10.499  19.862  0.00  0.00    +0.000 A 
ATOM     22  C   UNL     1       1.181   9.276  19.520  0.00  0.00    +0.000 A 
BRANCH  20  23
ATOM     23  N   UNL     1      -0.379  12.032  21.490  0.00  0.00    +0.000 N 
ATOM     24  C   UNL     1       0.206  13.271  20.985  0.00  0.00    +0.000 C 
ATOM     25  C   UNL     1      -1.101  12.196  22.755  0.00  0.00    +0.000 C 
ENDBRANCH  20  23
ENDBRANCH   6  17
TORSDOF 4
ENDMDL
MODEL 2
REMARK VINA RESULT:      -8.0      0.154      8.972
REMARK  Name = 
REMARK  9 active torsions:
REMARK  status: ('A' for Active; 'I' for Inactive)
REMARK    1  A    between atoms: C_1  and  C_2
REMARK    2  A    between atoms: C_4  and  C_5
REMARK    3  A    between atoms: C_8  and  N_9
REMARK    4  A    between atoms: N_9  and  C_10
REMARK    5  A    between atoms: N_9  and  C_11
REMARK    6  A    between atoms: C_15  and  C_16
REMARK    7  A    between atoms: C_19  and  N_20
REMARK    8  A    between atoms: N_20  and  C_21
REMARK    9  A    between atoms: N_20  and  C_22
REMARK                            x       y       z     vdW  Elec       q    Type
REMARK                         _______ _______ _______ _____ _____    ______ ____
ROOT
ATOM      1  C   UNL     1       1.829   3.344  21.319  0.00  0.00    +0.000 C 
ATOM      2  C   UNL     1       2.163   4.539  20.461  0.00  0.00    +0.000 A 
ATOM      3  C   UNL     1       1.676   5.812  20.825  0.00  0.00    +0.000 A 
ATOM      4  C   UNL     1       1.905   7.005  20.114  0.00  0.00    +0.000 A 
ATOM      5  S   UNL     1       2.881   7.019  18.630  0.00  0.00    +0.000 S 
ATOM      6  C   UNL     1       3.360   5.325  18.408  0.00  0.00    +0.000 A 
ATOM      7  C   UNL     1       2.960   4.329  19.313  0.00  0.00    +0.000 A 
ENDROOT
BRANCH   4   8
ATOM      8  C   UNL     1       1.348   8.312  20.501  0.00  0.00    +0.000 A 
ATOM      9  C   UNL     1       1.067   9.308  19.554  0.00  0.00    +0.000 A 
ATOM     10  C   UNL     1       0.521  10.545  19.918  0.00  0.00    +0.000 A 
ATOM     11  C   UNL     1       0.255  10.877  21.245  0.00  0.00    +0.000 A 
ATOM     12  C   UNL     1       0.542   9.877  22.190  0.00  0.00    +0.000 A 
ATOM     13  C   UNL     1       1.057   8.622  21.830  0.00  0.00    +0.000 A 
BRANCH  11  14
ATOM     14  N   UNL     1      -0.193  12.139  21.628  0.00  0.00    +0.000 N 
ATOM     15  C   UNL     1       0.561  13.341  21.276  0.00  0.00    +0.000 C 
ATOM     16  C   UNL     1      -1.077  12.312  22.780  0.00  0.00    +0.000 C 
ENDBRANCH  11  14
ENDBRANCH   4   8
BRANCH   6  17
ATOM     17  C   UNL     1       4.233   5.079  17.246  0.00  0.00    +0.000 A 
ATOM     18  C   UNL     1       4.735   6.127  16.475  0.00  0.00    +0.000 A 
ATOM     19  C   UNL     1       5.535   5.885  15.345  0.00  0.00    +0.000 A 
ATOM     20  C   UNL     1       5.870   4.587  14.915  0.00  0.00    +0.000 A 
ATOM     21  C   UNL     1       5.381   3.549  15.718  0.00  0.00    +0.000 A 
ATOM     22  C   UNL     1       4.582   3.783  16.844  0.00  0.00    +0.000 A 
BRANCH  20  23
ATOM     23  N   UNL     1       6.688   4.332  13.816  0.00  0.00    +0.000 N 
ATOM     24  C   UNL     1       7.727   5.279  13.421  0.00  0.00    +0.000 C 
ATOM     25  C   UNL     1       6.182   3.519  12.705  0.00  0.00    +0.000 C 
ENDBRANCH  20  23
ENDBRANCH   6  17
TORSDOF 4
ENDMDL
MODEL 3
REMARK VINA RESULT:      -7.9      0.228      9.011
REMARK  Name = 
REMARK  9 active torsions:
REMARK  status: ('A' for Active; 'I' for Inactive)
REMARK    1  A    between atoms: C_1  and  C_2
REMARK    2  A    between atoms: C_4  and  C_5
REMARK    3  A    between atoms: C_8  and  N_9
REMARK    4  A    between atoms: N_9  and  C_10
REMARK    5  A    between atoms: N_9  and  C_11
REMARK    6  A    between atoms: C_15  and  C_16
REMARK    7  A    between atoms: C_19  and  N_20
REMARK    8  A    between atoms: N_20  and  C_21
REMARK    9  A    between atoms: N_20  and  C_22
REMARK                            x       y       z     vdW  Elec       q    Type
REMARK                         _______ _______ _______ _____ _____    ______ ____
ROOT
ATOM      1  C   UNL     1       2.142   3.210  21.292  0.00  0.00    +0.000 C 
ATOM      2  C   UNL     1       2.409   4.413  20.421  0.00  0.00    +0.000 A 
ATOM      3  C   UNL     1       1.883   5.668  20.792  0.00  0.00    +0.000 A 
ATOM      4  C   UNL     1       2.049   6.865  20.072  0.00  0.00    +0.000 A 
ATOM      5  S   UNL     1       2.986   6.909  18.563  0.00  0.00    +0.000 S 
ATOM      6  C   UNL     1       3.524   5.233  18.336  0.00  0.00    +0.000 A 
ATOM      7  C   UNL     1       3.184   4.227  19.255  0.00  0.00    +0.000 A 
ENDROOT
BRANCH   4   8
ATOM      8  C   UNL     1       1.453   8.152  20.467  0.00  0.00    +0.000 A 
ATOM      9  C   UNL     1       1.118   8.435  21.800  0.00  0.00    +0.000 A 
ATOM     10  C   UNL     1       0.568   9.666  22.181  0.00  0.00    +0.000 A 
ATOM     11  C   UNL     1       0.287  10.671  21.259  0.00  0.00    +0.000 A 
ATOM     12  C   UNL     1       0.620  10.380  19.924  0.00  0.00    +0.000 A 
ATOM     13  C   UNL     1       1.204   9.163  19.539  0.00  0.00    +0.000 A 
BRANCH  11  14
ATOM     14  N   UNL     1      -0.352  11.857  21.611  0.00  0.00    +0.000 N 
ATOM     15  C   UNL     1      -1.386  11.873  22.646  0.00  0.00    +0.000 C 
ATOM     16  C   UNL     1      -0.431  12.981  20.679  0.00  0.00    +0.000 C 
ENDBRANCH  11  14
ENDBRANCH   4   8
BRANCH   6  17
ATOM     17  C   UNL     1       4.375   5.015  17.153  0.00  0.00    +0.000 A 
ATOM     18  C   UNL     1       4.814   6.077  16.364  0.00  0.00    +0.000 A 
ATOM     19  C   UNL     1       5.595   5.859  15.215  0.00  0.00    +0.000 A 
ATOM     20  C   UNL     1       5.971   4.573  14.784  0.00  0.00    +0.000 A 
ATOM     21  C   UNL     1       5.545   3.522  15.605  0.00  0.00    +0.000 A 
ATOM     22  C   UNL     1       4.766   3.730  16.750  0.00  0.00    +0.000 A 
BRANCH  20  23
ATOM     23  N   UNL     1       6.770   4.343  13.665  0.00  0.00    +0.000 N 
ATOM     24  C   UNL     1       7.776   5.318  13.253  0.00  0.00    +0.000 C 
ATOM     25  C   UNL     1       6.260   3.523  12.562  0.00  0.00    +0.000 C 
ENDBRANCH  20  23
ENDBRANCH   6  17
TORSDOF 4
ENDMDL
MODEL 4
REMARK VINA RESULT:      -7.9      0.148      8.979
REMARK  Name = 
REMARK  9 active torsions:
REMARK  status: ('A' for Active; 'I' for Inactive)
REMARK    1  A    between atoms: C_1  and  C_2
REMARK    2  A    between atoms: C_4  and  C_5
REMARK    3  A    between atoms: C_8  and  N_9
REMARK    4  A    between atoms: N_9  and  C_10
REMARK    5  A    between atoms: N_9  and  C_11
REMARK    6  A    between atoms: C_15  and  C_16
REMARK    7  A    between atoms: C_19  and  N_20
REMARK    8  A    between atoms: N_20  and  C_21
REMARK    9  A    between atoms: N_20  and  C_22
REMARK                            x       y       z     vdW  Elec       q    Type
REMARK                         _______ _______ _______ _____ _____    ______ ____
ROOT
ATOM      1  C   UNL     1       2.073   3.246  21.314  0.00  0.00    +0.000 C 
ATOM      2  C   UNL     1       2.347   4.443  20.438  0.00  0.00    +0.000 A 
ATOM      3  C   UNL     1       1.842   5.706  20.811  0.00  0.00    +0.000 A 
ATOM      4  C   UNL     1       2.016   6.900  20.086  0.00  0.00    +0.000 A 
ATOM      5  S   UNL     1       2.938   6.927  18.567  0.00  0.00    +0.000 S 
ATOM      6  C   UNL     1       3.450   5.243  18.338  0.00  0.00    +0.000 A 
ATOM      7  C   UNL     1       3.106   4.244  19.264  0.00  0.00    +0.000 A 
ENDROOT
BRANCH   4   8
ATOM      8  C   UNL     1       1.442   8.195  20.485  0.00  0.00    +0.000 A 
ATOM      9  C   UNL     1       1.097   8.475  21.816  0.00  0.00    +0.000 A 
ATOM     10  C   UNL     1       0.568   9.713  22.200  0.00  0.00    +0.000 A 
ATOM     11  C   UNL     1       0.319  10.731  21.282  0.00  0.00    +0.000 A 
ATOM     12  C   UNL     1       0.664  10.445  19.949  0.00  0.00    +0.000 A 
ATOM     13  C   UNL     1       1.226   9.219  19.561  0.00  0.00    +0.000 A 
BRANCH  11  14
ATOM     14  N   UNL     1      -0.299  11.928  21.636  0.00  0.00    +0.000 N 
ATOM     15  C   UNL     1       0.313  13.215  21.308  0.00  0.00    +0.000 C 
ATOM     16  C   UNL     1      -1.247  11.991  22.748  0.00  0.00    +0.000 C 
ENDBRANCH  11  14
ENDBRANCH   4   8
BRANCH   6  17
ATOM     17  C   UNL     1       4.285   5.010  17.147  0.00  0.00    +0.000 A 
ATOM     18  C   UNL     1       4.649   3.724  16.751  0.00  0.00    +0.000 A 
ATOM     19  C   UNL     1       5.478   3.509  15.636  0.00  0.00    +0.000 A 
ATOM     20  C   UNL     1       5.998   4.563  14.862  0.00  0.00    +0.000 A 
ATOM     21  C   UNL     1       5.598   5.846  15.257  0.00  0.00    +0.000 A 
ATOM     22  C   UNL     1       4.774   6.067  16.367  0.00  0.00    +0.000 A 
BRANCH  20  23
ATOM     23  N   UNL     1       6.795   4.366  13.735  0.00  0.00    +0.000 N 
ATOM     24  C   UNL     1       7.771   5.371  13.324  0.00  0.00    +0.000 C 
ATOM     25  C   UNL     1       6.298   3.542  12.628  0.00  0.00    +0.000 C 
ENDBRANCH  20  23
ENDBRANCH   6  17
TORSDOF 4
ENDMDL
MODEL 5
REMARK VINA RESULT:      -7.8      0.286      1.193
REMARK  Name = 
REMARK  9 active torsions:
REMARK  status: ('A' for Active; 'I' for Inactive)
REMARK    1  A    between atoms: C_1  and  C_2
REMARK    2  A    between atoms: C_4  and  C_5
REMARK    3  A    between atoms: C_8  and  N_9
REMARK    4  A    between atoms: N_9  and  C_10
REMARK    5  A    between atoms: N_9  and  C_11
REMARK    6  A    between atoms: C_15  and  C_16
REMARK    7  A    between atoms: C_19  and  N_20
REMARK    8  A    between atoms: N_20  and  C_21
REMARK    9  A    between atoms: N_20  and  C_22
REMARK                            x       y       z     vdW  Elec       q    Type
REMARK                         _______ _______ _______ _____ _____    ______ ____
ROOT
ATOM      1  C   UNL     1       1.624   3.385  21.270  0.00  0.00    +0.000 C 
ATOM      2  C   UNL     1       2.012   4.566  20.415  0.00  0.00    +0.000 A 
ATOM      3  C   UNL     1       2.803   4.361  19.265  0.00  0.00    +0.000 A 
ATOM      4  C   UNL     1       3.240   5.370  18.387  0.00  0.00    +0.000 A 
ATOM      5  S   UNL     1       2.810   7.073  18.654  0.00  0.00    +0.000 S 
ATOM      6  C   UNL     1       1.831   7.047  20.135  0.00  0.00    +0.000 A 
ATOM      7  C   UNL     1       1.561   5.845  20.810  0.00  0.00    +0.000 A 
ENDROOT
BRANCH   4   8
ATOM      8  C   UNL     1       4.098   5.125  17.216  0.00  0.00    +0.000 A 
ATOM      9  C   UNL     1       4.344   3.830  16.735  0.00  0.00    +0.000 A 
ATOM     10  C   UNL     1       5.145   3.596  15.610  0.00  0.00    +0.000 A 
ATOM     11  C   UNL     1       5.774   4.630  14.919  0.00  0.00    +0.000 A 
ATOM     12  C   UNL     1       5.528   5.925  15.408  0.00  0.00    +0.000 A 
ATOM     13  C   UNL     1       4.699   6.170  16.514  0.00  0.00    +0.000 A 
BRANCH  11  14
ATOM     14  N   UNL     1       6.652   4.401  13.863  0.00  0.00    +0.000 N 
ATOM     15  C   UNL     1       7.735   5.340  13.571  0.00  0.00    +0.000 C 
ATOM     16  C   UNL     1       6.267   3.571  12.722  0.00  0.00    +0.000 C 
ENDBRANCH  11  14
ENDBRANCH   4   8
BRANCH   6  17
ATOM     17  C   UNL     1       1.305   8.360  20.548  0.00  0.00    +0.000 A 
ATOM     18  C   UNL     1       0.907   8.606  21.861  0.00  0.00    +0.000 A 
ATOM     19  C   UNL     1       0.369   9.849  22.241  0.00  0.00    +0.000 A 
ATOM     20  C   UNL     1       0.189  10.908  21.332  0.00  0.00    +0.000 A 
ATOM     21  C   UNL     1       0.622  10.652  20.025  0.00  0.00    +0.000 A 
ATOM     22  C   UNL     1       1.156   9.417  19.639  0.00  0.00    +0.000 A 
BRANCH  20  23
ATOM     23  N   UNL     1      -0.313  12.156  21.700  0.00  0.00    +0.000 N 
ATOM     24  C   UNL     1      -1.172  12.300  22.872  0.00  0.00    +0.000 C 
ATOM     25  C   UNL     1      -0.540  13.179  20.675  0.00  0.00    +0.000 C 
ENDBRANCH  20  23
ENDBRANCH   6  17
TORSDOF 4
ENDMDL
MODEL 6
REMARK VINA RESULT:      -7.7      0.295      1.394
REMARK  Name = 
REMARK  9 active torsions:
REMARK  status: ('A' for Active; 'I' for Inactive)
REMARK    1  A    between atoms: C_1  and  C_2
REMARK    2  A    between atoms: C_4  and  C_5
REMARK    3  A    between atoms: C_8  and  N_9
REMARK    4  A    between atoms: N_9  and  C_10
REMARK    5  A    between atoms: N_9  and  C_11
REMARK    6  A    between atoms: C_15  and  C_16
REMARK    7  A    between atoms: C_19  and  N_20
REMARK    8  A    between atoms: N_20  and  C_21
REMARK    9  A    between atoms: N_20  and  C_22
REMARK                            x       y       z     vdW  Elec       q    Type
REMARK                         _______ _______ _______ _____ _____    ______ ____
ROOT
ATOM      1  C   UNL     1       1.815   3.351  21.289  0.00  0.00    +0.000 C 
ATOM      2  C   UNL     1       2.132   4.553  20.434  0.00  0.00    +0.000 A 
ATOM      3  C   UNL     1       2.908   4.389  19.268  0.00  0.00    +0.000 A 
ATOM      4  C   UNL     1       3.282   5.421  18.387  0.00  0.00    +0.000 A 
ATOM      5  S   UNL     1       2.782   7.102  18.673  0.00  0.00    +0.000 S 
ATOM      6  C   UNL     1       1.837   7.025  20.173  0.00  0.00    +0.000 A 
ATOM      7  C   UNL     1       1.634   5.809  20.846  0.00  0.00    +0.000 A 
ENDROOT
BRANCH   4   8
ATOM      8  C   UNL     1       4.126   5.220  17.197  0.00  0.00    +0.000 A 
ATOM      9  C   UNL     1       4.679   6.299  16.490  0.00  0.00    +0.000 A 
ATOM     10  C   UNL     1       5.496   6.109  15.368  0.00  0.00    +0.000 A 
ATOM     11  C   UNL     1       5.784   4.843  14.865  0.00  0.00    +0.000 A 
ATOM     12  C   UNL     1       5.224   3.766  15.575  0.00  0.00    +0.000 A 
ATOM     13  C   UNL     1       4.432   3.946  16.720  0.00  0.00    +0.000 A 
BRANCH  11  14
ATOM     14  N   UNL     1       6.511   4.648  13.693  0.00  0.00    +0.000 N 
ATOM     15  C   UNL     1       6.264   3.484  12.842  0.00  0.00    +0.000 C 
ATOM     16  C   UNL     1       7.837   5.238  13.517  0.00  0.00    +0.000 C 
ENDBRANCH  11  14
ENDBRANCH   4   8
BRANCH   6  17
ATOM     17  C   UNL     1       1.261   8.311  20.605  0.00  0.00    +0.000 A 
ATOM     18  C   UNL     1       1.070   9.362  19.709  0.00  0.00    +0.000 A 
ATOM     19  C   UNL     1       0.556  10.600  20.133  0.00  0.00    +0.000 A 
ATOM     20  C   UNL     1       0.216  10.861  21.474  0.00  0.00    +0.000 A 
ATOM     21  C   UNL     1       0.388   9.785  22.353  0.00  0.00    +0.000 A 
ATOM     22  C   UNL     1       0.900   8.550  21.938  0.00  0.00    +0.000 A 
BRANCH  20  23
ATOM     23  N   UNL     1      -0.324  12.072  21.905  0.00  0.00    +0.000 N 
ATOM     24  C   UNL     1      -1.354  12.106  22.939  0.00  0.00    +0.000 C 
ATOM     25  C   UNL     1      -0.378  13.213  20.985  0.00  0.00    +0.000 C 
ENDBRANCH  20  23
ENDBRANCH   6  17
TORSDOF 4
ENDMDL
MODEL 7
REMARK VINA RESULT:      -7.7      0.398      1.399
REMARK  Name = 
REMARK  9 active torsions:
REMARK  status: ('A' for Active; 'I' for Inactive)
REMARK    1  A    between atoms: C_1  and  C_2
REMARK    2  A    between atoms: C_4  and  C_5
REMARK    3  A    between atoms: C_8  and  N_9
REMARK    4  A    between atoms: N_9  and  C_10
REMARK    5  A    between atoms: N_9  and  C_11
REMARK    6  A    between atoms: C_15  and  C_16
REMARK    7  A    between atoms: C_19  and  N_20
REMARK    8  A    between atoms: N_20  and  C_21
REMARK    9  A    between atoms: N_20  and  C_22
REMARK                            x       y       z     vdW  Elec       q    Type
REMARK                         _______ _______ _______ _____ _____    ______ ____
ROOT
ATOM      1  C   UNL     1       2.451   3.085  21.200  0.00  0.00    +0.000 C 
ATOM      2  C   UNL     1       2.654   4.271  20.289  0.00  0.00    +0.000 A 
ATOM      3  C   UNL     1       3.402   4.115  19.104  0.00  0.00    +0.000 A 
ATOM      4  C   UNL     1       3.673   5.135  18.172  0.00  0.00    +0.000 A 
ATOM      5  S   UNL     1       3.062   6.786  18.411  0.00  0.00    +0.000 S 
ATOM      6  C   UNL     1       2.172   6.703  19.945  0.00  0.00    +0.000 A 
ATOM      7  C   UNL     1       2.079   5.504  20.670  0.00  0.00    +0.000 A 
ENDROOT
BRANCH   4   8
ATOM      8  C   UNL     1       4.490   4.947  16.962  0.00  0.00    +0.000 A 
ATOM      9  C   UNL     1       4.893   3.674  16.530  0.00  0.00    +0.000 A 
ATOM     10  C   UNL     1       5.656   3.493  15.369  0.00  0.00    +0.000 A 
ATOM     11  C   UNL     1       6.091   4.563  14.592  0.00  0.00    +0.000 A 
ATOM     12  C   UNL     1       5.688   5.836  15.031  0.00  0.00    +0.000 A 
ATOM     13  C   UNL     1       4.895   6.025  16.174  0.00  0.00    +0.000 A 
BRANCH  11  14
ATOM     14  N   UNL     1       6.933   4.401  13.494  0.00  0.00    +0.000 N 
ATOM     15  C   UNL     1       8.021   5.344  13.238  0.00  0.00    +0.000 C 
ATOM     16  C   UNL     1       6.499   3.663  12.309  0.00  0.00    +0.000 C 
ENDBRANCH  11  14
ENDBRANCH   4   8
BRANCH   6  17
ATOM     17  C   UNL     1       1.519   7.961  20.347  0.00  0.00    +0.000 A 
ATOM     18  C   UNL     1       1.337   9.009  19.445  0.00  0.00    +0.000 A 
ATOM     19  C   UNL     1       0.747  10.222  19.844  0.00  0.00    +0.000 A 
ATOM     20  C   UNL     1       0.318  10.461  21.163  0.00  0.00    +0.000 A 
ATOM     21  C   UNL     1       0.483   9.386  22.046  0.00  0.00    +0.000 A 
ATOM     22  C   UNL     1       1.070   8.176  21.657  0.00  0.00    +0.000 A 
BRANCH  20  23
ATOM     23  N   UNL     1      -0.296  11.645  21.566  0.00  0.00    +0.000 N 
ATOM     24  C   UNL     1       0.267  12.941  21.200  0.00  0.00    +0.000 C 
ATOM     25  C   UNL     1      -1.079  11.673  22.806  0.00  0.00    +0.000 C 
ENDBRANCH  20  23
ENDBRANCH   6  17
TORSDOF 4
ENDMDL
MODEL 8
REMARK VINA RESULT:      -7.7      0.470      1.042
REMARK  Name = 
REMARK  9 active torsions:
REMARK  status: ('A' for Active; 'I' for Inactive)
REMARK    1  A    between atoms: C_1  and  C_2
REMARK    2  A    between atoms: C_4  and  C_5
REMARK    3  A    between atoms: C_8  and  N_9
REMARK    4  A    between atoms: N_9  and  C_10
REMARK    5  A    between atoms: N_9  and  C_11
REMARK    6  A    between atoms: C_15  and  C_16
REMARK    7  A    between atoms: C_19  and  N_20
REMARK    8  A    between atoms: N_20  and  C_21
REMARK    9  A    between atoms: N_20  and  C_22
REMARK                            x       y       z     vdW  Elec       q    Type
REMARK                         _______ _______ _______ _____ _____    ______ ____
ROOT
ATOM      1  C   UNL     1       1.993   3.505  21.492  0.00  0.00    +0.000 C 
ATOM      2  C   UNL     1       2.224   4.674  20.566  0.00  0.00    +0.000 A 
ATOM      3  C   UNL     1       2.986   4.489  19.394  0.00  0.00    +0.000 A 
ATOM      4  C   UNL     1       3.284   5.490  18.450  0.00  0.00    +0.000 A 
ATOM      5  S   UNL     1       2.692   7.153  18.654  0.00  0.00    +0.000 S 
ATOM      6  C   UNL     1       1.780   7.106  20.177  0.00  0.00    +0.000 A 
ATOM      7  C   UNL     1       1.661   5.920  20.920  0.00  0.00    +0.000 A 
ENDROOT
BRANCH   4   8
ATOM      8  C   UNL     1       4.115   5.272  17.255  0.00  0.00    +0.000 A 
ATOM      9  C   UNL     1       4.627   6.341  16.503  0.00  0.00    +0.000 A 
ATOM     10  C   UNL     1       5.433   6.135  15.376  0.00  0.00    +0.000 A 
ATOM     11  C   UNL     1       5.749   4.860  14.911  0.00  0.00    +0.000 A 
ATOM     12  C   UNL     1       5.230   3.794  15.666  0.00  0.00    +0.000 A 
ATOM     13  C   UNL     1       4.450   3.991  16.816  0.00  0.00    +0.000 A 
BRANCH  11  14
ATOM     14  N   UNL     1       6.464   4.645  13.736  0.00  0.00    +0.000 N 
ATOM     15  C   UNL     1       6.169   3.498  12.878  0.00  0.00    +0.000 C 
ATOM     16  C   UNL     1       7.813   5.183  13.560  0.00  0.00    +0.000 C 
ENDBRANCH  11  14
ENDBRANCH   4   8
BRANCH   6  17
ATOM     17  C   UNL     1       1.139   8.379  20.549  0.00  0.00    +0.000 A 
ATOM     18  C   UNL     1       0.616   8.587  21.825  0.00  0.00    +0.000 A 
ATOM     19  C   UNL     1      -0.029   9.789  22.164  0.00  0.00    +0.000 A 
ATOM     20  C   UNL     1      -0.198  10.845  21.248  0.00  0.00    +0.000 A 
ATOM     21  C   UNL     1       0.360  10.630  19.982  0.00  0.00    +0.000 A 
ATOM     22  C   UNL     1       1.002   9.434  19.637  0.00  0.00    +0.000 A 
BRANCH  20  23
ATOM     23  N   UNL     1      -0.806  12.055  21.578  0.00  0.00    +0.000 N 
ATOM     24  C   UNL     1      -1.390  12.262  22.900  0.00  0.00    +0.000 C 
ATOM     25  C   UNL     1      -1.429  12.866  20.527  0.00  0.00    +0.000 C 
ENDBRANCH  20  23
ENDBRANCH   6  17
TORSDOF 4
ENDMDL
MODEL 9
REMARK VINA RESULT:      -7.6      0.324      8.991
REMARK  Name = 
REMARK  9 active torsions:
REMARK  status: ('A' for Active; 'I' for Inactive)
REMARK    1  A    between atoms: C_1  and  C_2
REMARK    2  A    between atoms: C_4  and  C_5
REMARK    3  A    between atoms: C_8  and  N_9
REMARK    4  A    between atoms: N_9  and  C_10
REMARK    5  A    between atoms: N_9  and  C_11
REMARK    6  A    between atoms: C_15  and  C_16
REMARK    7  A    between atoms: C_19  and  N_20
REMARK    8  A    between atoms: N_20  and  C_21
REMARK    9  A    between atoms: N_20  and  C_22
REMARK                            x       y       z     vdW  Elec       q    Type
REMARK                         _______ _______ _______ _____ _____    ______ ____
ROOT
ATOM      1  C   UNL     1       2.058   3.471  21.495  0.00  0.00    +0.000 C 
ATOM      2  C   UNL     1       2.263   4.668  20.598  0.00  0.00    +0.000 A 
ATOM      3  C   UNL     1       1.731   5.918  20.978  0.00  0.00    +0.000 A 
ATOM      4  C   UNL     1       1.842   7.109  20.235  0.00  0.00    +0.000 A 
ATOM      5  S   UNL     1       2.708   7.149  18.684  0.00  0.00    +0.000 S 
ATOM      6  C   UNL     1       3.264   5.480  18.453  0.00  0.00    +0.000 A 
ATOM      7  C   UNL     1       2.986   4.480  19.399  0.00  0.00    +0.000 A 
ENDROOT
BRANCH   4   8
ATOM      8  C   UNL     1       1.242   8.390  20.643  0.00  0.00    +0.000 A 
ATOM      9  C   UNL     1       1.018   9.428  19.726  0.00  0.00    +0.000 A 
ATOM     10  C   UNL     1       0.430  10.641  20.108  0.00  0.00    +0.000 A 
ATOM     11  C   UNL     1       0.063  10.905  21.426  0.00  0.00    +0.000 A 
ATOM     12  C   UNL     1       0.294   9.863  22.341  0.00  0.00    +0.000 A 
ATOM     13  C   UNL     1       0.850   8.632  21.959  0.00  0.00    +0.000 A 
BRANCH  11  14
ATOM     14  N   UNL     1      -0.427  12.142  21.835  0.00  0.00    +0.000 N 
ATOM     15  C   UNL     1       0.276  13.379  21.495  0.00  0.00    +0.000 C 
ATOM     16  C   UNL     1      -1.304  12.263  23.000  0.00  0.00    +0.000 C 
ENDBRANCH  11  14
ENDBRANCH   4   8
BRANCH   6  17
ATOM     17  C   UNL     1       4.064   5.261  17.235  0.00  0.00    +0.000 A 
ATOM     18  C   UNL     1       4.323   3.979  16.752  0.00  0.00    +0.000 A 
ATOM     19  C   UNL     1       5.119   3.774  15.611  0.00  0.00    +0.000 A 
ATOM     20  C   UNL     1       5.708   4.833  14.896  0.00  0.00    +0.000 A 
ATOM     21  C   UNL     1       5.413   6.115  15.378  0.00  0.00    +0.000 A 
ATOM     22  C   UNL     1       4.622   6.326  16.515  0.00  0.00    +0.000 A 
BRANCH  20  23
ATOM     23  N   UNL     1       6.473   4.648  13.745  0.00  0.00    +0.000 N 
ATOM     24  C   UNL     1       6.259   3.490  12.883  0.00  0.00    +0.000 C 
ATOM     25  C   UNL     1       7.838   5.180  13.686  0.00  0.00    +0.000 C 
ENDBRANCH  20  23
ENDBRANCH   6  17
TORSDOF 4
ENDMDL
