MODEL 1
REMARK VINA RESULT:      -6.2      0.000      0.000
REMARK  Name = 
REMARK  20 active torsions:
REMARK  status: ('A' for Active; 'I' for Inactive)
REMARK    1  A    between atoms: C_1  and  C_2
REMARK    2  A    between atoms: C_2  and  C_3
REMARK    3  A    between atoms: C_3  and  C_4
REMARK    4  A    between atoms: C_4  and  C_5
REMARK    5  A    between atoms: C_5  and  C_6
REMARK    6  A    between atoms: C_8  and  O_9
REMARK    7  A    between atoms: C_11  and  O_12
REMARK    8  A    between atoms: O_12  and  C_13
REMARK    9  A    between atoms: C_13  and  C_14
REMARK   10  A    between atoms: C_14  and  C_15
REMARK   11  A    between atoms: C_15  and  C_16
REMARK   12  A    between atoms: C_16  and  C_17
REMARK   13  A    between atoms: C_17  and  C_18
REMARK   14  A    between atoms: C_18  and  C_19
REMARK   15  A    between atoms: C_19  and  C_20
REMARK   16  A    between atoms: C_20  and  C_21
REMARK   17  A    between atoms: C_21  and  C_22
REMARK   18  A    between atoms: C_22  and  C_23
REMARK   19  A    between atoms: N_25  and  C_26
REMARK   20  A    between atoms: C_26  and  C_27
REMARK                            x       y       z     vdW  Elec       q    Type
REMARK                         _______ _______ _______ _____ _____    ______ ____
ROOT
ATOM      1  C   UNL     1       3.058   7.957  17.793  0.00  0.00    +0.000 C 
ENDROOT
BRANCH   1   2
ATOM      2  C   UNL     1       2.256   6.778  18.347  0.00  0.00    +0.000 C 
BRANCH   2   3
ATOM      3  C   UNL     1       2.913   6.175  19.589  0.00  0.00    +0.000 C 
BRANCH   3   4
ATOM      4  C   UNL     1       1.887   5.566  20.533  0.00  0.00    +0.000 C 
BRANCH   4   5
ATOM      5  C   UNL     1       2.134   4.065  20.676  0.00  0.00    +0.000 C 
BRANCH   5   6
ATOM      6  C   UNL     1       0.899   3.272  20.269  0.00  0.00    +0.000 C 
BRANCH   6   7
ATOM      7  C   UNL     1       1.207   2.316  19.117  0.00  0.00    +0.000 C 
BRANCH   7   8
ATOM      8  C   UNL     1       2.019   3.030  18.042  0.00  0.00    +0.000 C 
BRANCH   8   9
ATOM      9  C   UNL     1       3.432   2.459  17.897  0.00  0.00    +0.000 C 
BRANCH   9  10
ATOM     10  C   UNL     1       4.351   3.485  17.255  0.00  0.00    +0.000 C 
ATOM     11  O   UNL     1       4.061   4.101  16.236  0.00  0.00    +0.000 OA
ATOM     12  N   UNL     1       5.544   3.666  17.915  0.00  0.00    +0.000 N 
ATOM     13  H   UNL     1       5.772   3.123  18.736  0.00  0.00    +0.000 HD
BRANCH  12  14
ATOM     14  C   UNL     1       6.513   4.586  17.367  0.00  0.00    +0.000 C 
BRANCH  14  15
ATOM     15  C   UNL     1       6.586   5.843  18.171  0.00  0.00    +0.000 C 
ATOM     16  C   UNL     1       7.816   6.191  18.972  0.00  0.00    +0.000 C 
ATOM     17  C   UNL     1       7.497   6.963  17.724  0.00  0.00    +0.000 C 
ENDBRANCH  14  15
ENDBRANCH  12  14
ENDBRANCH   9  10
ENDBRANCH   8   9
ENDBRANCH   7   8
ENDBRANCH   6   7
ENDBRANCH   5   6
ENDBRANCH   4   5
ENDBRANCH   3   4
ENDBRANCH   2   3
ENDBRANCH   1   2
BRANCH   1  18
ATOM     18  C   UNL     1       2.195   9.208  17.671  0.00  0.00    +0.000 C 
BRANCH  18  19
ATOM     19  O   UNL     1       1.309   9.304  18.783  0.00  0.00    +0.000 OA
BRANCH  19  24
ATOM     20  C   UNL     1      -1.151  12.093  18.952  0.00  0.00    +0.000 A 
ATOM     21  C   UNL     1      -2.047  11.642  17.977  0.00  0.00    +0.000 A 
ATOM     22  C   UNL     1      -1.811  10.434  17.325  0.00  0.00    +0.000 A 
ATOM     23  C   UNL     1      -0.685   9.674  17.621  0.00  0.00    +0.000 A 
ATOM     24  C   UNL     1       0.223  10.116  18.582  0.00  0.00    +0.000 A 
ATOM     25  C   UNL     1      -0.020  11.323  19.248  0.00  0.00    +0.000 A 
BRANCH  22  26
ATOM     26  O   UNL     1      -2.672   9.969  16.377  0.00  0.00    +0.000 OA
ATOM     27  H   UNL     1      -2.199   9.339  15.812  0.00  0.00    +0.000 HD
ENDBRANCH  22  26
BRANCH  20  28
ATOM     28  C   UNL     1      -1.372  13.400  19.666  0.00  0.00    +0.000 C 
BRANCH  28  29
ATOM     29  C   UNL     1      -1.841  13.191  21.106  0.00  0.00    +0.000 C 
BRANCH  29  30
ATOM     30  C   UNL     1      -3.322  12.834  21.141  0.00  0.00    +0.000 C 
BRANCH  30  32
ATOM     31  C   UNL     1      -2.684  12.040  23.430  0.00  0.00    +0.000 C 
ATOM     32  C   UNL     1      -3.797  12.617  22.575  0.00  0.00    +0.000 C 
ENDBRANCH  30  32
ENDBRANCH  29  30
ENDBRANCH  28  29
ENDBRANCH  20  28
ENDBRANCH  19  24
ENDBRANCH  18  19
ENDBRANCH   1  18
TORSDOF 19
ENDMDL
MODEL 2
REMARK VINA RESULT:      -6.2      5.834     10.323
REMARK  Name = 
REMARK  20 active torsions:
REMARK  status: ('A' for Active; 'I' for Inactive)
REMARK    1  A    between atoms: C_1  and  C_2
REMARK    2  A    between atoms: C_2  and  C_3
REMARK    3  A    between atoms: C_3  and  C_4
REMARK    4  A    between atoms: C_4  and  C_5
REMARK    5  A    between atoms: C_5  and  C_6
REMARK    6  A    between atoms: C_8  and  O_9
REMARK    7  A    between atoms: C_11  and  O_12
REMARK    8  A    between atoms: O_12  and  C_13
REMARK    9  A    between atoms: C_13  and  C_14
REMARK   10  A    between atoms: C_14  and  C_15
REMARK   11  A    between atoms: C_15  and  C_16
REMARK   12  A    between atoms: C_16  and  C_17
REMARK   13  A    between atoms: C_17  and  C_18
REMARK   14  A    between atoms: C_18  and  C_19
REMARK   15  A    between atoms: C_19  and  C_20
REMARK   16  A    between atoms: C_20  and  C_21
REMARK   17  A    between atoms: C_21  and  C_22
REMARK   18  A    between atoms: C_22  and  C_23
REMARK   19  A    between atoms: N_25  and  C_26
REMARK   20  A    between atoms: C_26  and  C_27
REMARK                            x       y       z     vdW  Elec       q    Type
REMARK                         _______ _______ _______ _____ _____    ______ ____
ROOT
ATOM      1  C   UNL     1       8.346   7.052  18.547  0.00  0.00    +0.000 C 
ENDROOT
BRANCH   1   2
ATOM      2  C   UNL     1       7.522   8.010  17.684  0.00  0.00    +0.000 C 
BRANCH   2   3
ATOM      3  C   UNL     1       7.926   9.467  17.906  0.00  0.00    +0.000 C 
BRANCH   3   4
ATOM      4  C   UNL     1       9.301   9.583  18.547  0.00  0.00    +0.000 C 
BRANCH   4   5
ATOM      5  C   UNL     1       9.234  10.502  19.766  0.00  0.00    +0.000 C 
BRANCH   5   6
ATOM      6  C   UNL     1      10.275  11.611  19.664  0.00  0.00    +0.000 C 
BRANCH   6   7
ATOM      7  C   UNL     1      10.813  11.739  18.240  0.00  0.00    +0.000 C 
BRANCH   7   8
ATOM      8  C   UNL     1      10.144  12.909  17.526  0.00  0.00    +0.000 C 
BRANCH   8   9
ATOM      9  C   UNL     1      10.580  14.266  18.084  0.00  0.00    +0.000 C 
BRANCH   9  10
ATOM     10  C   UNL     1       9.384  15.009  18.656  0.00  0.00    +0.000 C 
ATOM     11  O   UNL     1       9.461  16.135  19.134  0.00  0.00    +0.000 OA
ATOM     12  N   UNL     1       8.202  14.309  18.595  0.00  0.00    +0.000 N 
ATOM     13  H   UNL     1       8.172  13.369  18.224  0.00  0.00    +0.000 HD
BRANCH  12  14
ATOM     14  C   UNL     1       7.008  14.903  19.151  0.00  0.00    +0.000 C 
BRANCH  14  15
ATOM     15  C   UNL     1       6.014  15.227  18.084  0.00  0.00    +0.000 C 
ATOM     16  C   UNL     1       4.646  14.592  18.070  0.00  0.00    +0.000 C 
ATOM     17  C   UNL     1       4.789  16.043  18.430  0.00  0.00    +0.000 C 
ENDBRANCH  14  15
ENDBRANCH  12  14
ENDBRANCH   9  10
ENDBRANCH   8   9
ENDBRANCH   7   8
ENDBRANCH   6   7
ENDBRANCH   5   6
ENDBRANCH   4   5
ENDBRANCH   3   4
ENDBRANCH   2   3
ENDBRANCH   1   2
BRANCH   1  18
ATOM     18  C   UNL     1       7.460   6.016  19.229  0.00  0.00    +0.000 C 
BRANCH  18  19
ATOM     19  O   UNL     1       7.594   4.753  18.584  0.00  0.00    +0.000 OA
BRANCH  19  24
ATOM     20  C   UNL     1       4.315   3.964  17.007  0.00  0.00    +0.000 A 
ATOM     21  C   UNL     1       4.729   3.925  15.671  0.00  0.00    +0.000 A 
ATOM     22  C   UNL     1       6.068   4.140  15.354  0.00  0.00    +0.000 A 
ATOM     23  C   UNL     1       7.000   4.407  16.350  0.00  0.00    +0.000 A 
ATOM     24  C   UNL     1       6.602   4.461  17.684  0.00  0.00    +0.000 A 
ATOM     25  C   UNL     1       5.259   4.232  18.006  0.00  0.00    +0.000 A 
BRANCH  22  26
ATOM     26  O   UNL     1       6.498   4.099  14.062  0.00  0.00    +0.000 OA
ATOM     27  H   UNL     1       7.182   3.415  13.985  0.00  0.00    +0.000 HD
ENDBRANCH  22  26
BRANCH  20  28
ATOM     28  C   UNL     1       2.874   3.748  17.381  0.00  0.00    +0.000 C 
BRANCH  28  29
ATOM     29  C   UNL     1       2.577   2.280  17.687  0.00  0.00    +0.000 C 
BRANCH  29  30
ATOM     30  C   UNL     1       1.902   2.140  19.046  0.00  0.00    +0.000 C 
BRANCH  30  32
ATOM     31  C   UNL     1       1.304   3.861  20.766  0.00  0.00    +0.000 C 
ATOM     32  C   UNL     1       1.042   3.361  19.357  0.00  0.00    +0.000 C 
ENDBRANCH  30  32
ENDBRANCH  29  30
ENDBRANCH  28  29
ENDBRANCH  20  28
ENDBRANCH  19  24
ENDBRANCH  18  19
ENDBRANCH   1  18
TORSDOF 19
ENDMDL
MODEL 3
REMARK VINA RESULT:      -6.0      3.309     10.310
REMARK  Name = 
REMARK  20 active torsions:
REMARK  status: ('A' for Active; 'I' for Inactive)
REMARK    1  A    between atoms: C_1  and  C_2
REMARK    2  A    between atoms: C_2  and  C_3
REMARK    3  A    between atoms: C_3  and  C_4
REMARK    4  A    between atoms: C_4  and  C_5
REMARK    5  A    between atoms: C_5  and  C_6
REMARK    6  A    between atoms: C_8  and  O_9
REMARK    7  A    between atoms: C_11  and  O_12
REMARK    8  A    between atoms: O_12  and  C_13
REMARK    9  A    between atoms: C_13  and  C_14
REMARK   10  A    between atoms: C_14  and  C_15
REMARK   11  A    between atoms: C_15  and  C_16
REMARK   12  A    between atoms: C_16  and  C_17
REMARK   13  A    between atoms: C_17  and  C_18
REMARK   14  A    between atoms: C_18  and  C_19
REMARK   15  A    between atoms: C_19  and  C_20
REMARK   16  A    between atoms: C_20  and  C_21
REMARK   17  A    between atoms: C_21  and  C_22
REMARK   18  A    between atoms: C_22  and  C_23
REMARK   19  A    between atoms: N_25  and  C_26
REMARK   20  A    between atoms: C_26  and  C_27
REMARK                            x       y       z     vdW  Elec       q    Type
REMARK                         _______ _______ _______ _____ _____    ______ ____
ROOT
ATOM      1  C   UNL     1       3.330   3.804  18.191  0.00  0.00    +0.000 C 
ENDROOT
BRANCH   1   2
ATOM      2  C   UNL     1       2.315   4.947  18.121  0.00  0.00    +0.000 C 
BRANCH   2   3
ATOM      3  C   UNL     1       2.998   6.307  17.969  0.00  0.00    +0.000 C 
BRANCH   3   4
ATOM      4  C   UNL     1       2.178   7.425  18.594  0.00  0.00    +0.000 C 
BRANCH   4   5
ATOM      5  C   UNL     1       2.287   8.691  17.744  0.00  0.00    +0.000 C 
BRANCH   5   6
ATOM      6  C   UNL     1       1.092   9.606  17.982  0.00  0.00    +0.000 C 
BRANCH   6   7
ATOM      7  C   UNL     1       1.147  10.242  19.371  0.00  0.00    +0.000 C 
BRANCH   7   8
ATOM      8  C   UNL     1      -0.086   9.852  20.179  0.00  0.00    +0.000 C 
BRANCH   8   9
ATOM      9  C   UNL     1      -0.805  11.064  20.777  0.00  0.00    +0.000 C 
BRANCH   9  10
ATOM     10  C   UNL     1      -1.611  11.780  19.707  0.00  0.00    +0.000 C 
ATOM     11  O   UNL     1      -1.757  12.997  19.678  0.00  0.00    +0.000 OA
ATOM     12  N   UNL     1      -2.169  10.946  18.766  0.00  0.00    +0.000 N 
ATOM     13  H   UNL     1      -2.059   9.943  18.830  0.00  0.00    +0.000 HD
BRANCH  12  14
ATOM     14  C   UNL     1      -2.993  11.516  17.727  0.00  0.00    +0.000 C 
BRANCH  14  15
ATOM     15  C   UNL     1      -3.465  10.470  16.771  0.00  0.00    +0.000 C 
ATOM     16  C   UNL     1      -3.466  10.712  15.282  0.00  0.00    +0.000 C 
ATOM     17  C   UNL     1      -2.465   9.766  15.881  0.00  0.00    +0.000 C 
ENDBRANCH  14  15
ENDBRANCH  12  14
ENDBRANCH   9  10
ENDBRANCH   8   9
ENDBRANCH   7   8
ENDBRANCH   6   7
ENDBRANCH   5   6
ENDBRANCH   4   5
ENDBRANCH   3   4
ENDBRANCH   2   3
ENDBRANCH   1   2
BRANCH   1  18
ATOM     18  C   UNL     1       4.045   3.777  19.537  0.00  0.00    +0.000 C 
BRANCH  18  19
ATOM     19  O   UNL     1       5.439   3.547  19.348  0.00  0.00    +0.000 OA
BRANCH  19  24
ATOM     20  C   UNL     1       6.592   5.423  16.346  0.00  0.00    +0.000 A 
ATOM     21  C   UNL     1       7.383   6.382  16.989  0.00  0.00    +0.000 A 
ATOM     22  C   UNL     1       7.517   6.354  18.375  0.00  0.00    +0.000 A 
ATOM     23  C   UNL     1       6.860   5.391  19.133  0.00  0.00    +0.000 A 
ATOM     24  C   UNL     1       6.058   4.437  18.509  0.00  0.00    +0.000 A 
ATOM     25  C   UNL     1       5.934   4.456  17.115  0.00  0.00    +0.000 A 
BRANCH  22  26
ATOM     26  O   UNL     1       8.288   7.270  19.024  0.00  0.00    +0.000 OA
ATOM     27  H   UNL     1       8.549   6.901  19.883  0.00  0.00    +0.000 HD
ENDBRANCH  22  26
BRANCH  20  28
ATOM     28  C   UNL     1       6.419   5.434  14.852  0.00  0.00    +0.000 C 
BRANCH  28  29
ATOM     29  C   UNL     1       6.661   4.056  14.239  0.00  0.00    +0.000 C 
BRANCH  29  30
ATOM     30  C   UNL     1       5.634   3.763  13.151  0.00  0.00    +0.000 C 
BRANCH  30  32
ATOM     31  C   UNL     1       5.525   1.957  11.418  0.00  0.00    +0.000 C 
ATOM     32  C   UNL     1       6.301   3.163  11.917  0.00  0.00    +0.000 C 
ENDBRANCH  30  32
ENDBRANCH  29  30
ENDBRANCH  28  29
ENDBRANCH  20  28
ENDBRANCH  19  24
ENDBRANCH  18  19
ENDBRANCH   1  18
TORSDOF 19
ENDMDL
MODEL 4
REMARK VINA RESULT:      -6.0      2.701      3.699
REMARK  Name = 
REMARK  20 active torsions:
REMARK  status: ('A' for Active; 'I' for Inactive)
REMARK    1  A    between atoms: C_1  and  C_2
REMARK    2  A    between atoms: C_2  and  C_3
REMARK    3  A    between atoms: C_3  and  C_4
REMARK    4  A    between atoms: C_4  and  C_5
REMARK    5  A    between atoms: C_5  and  C_6
REMARK    6  A    between atoms: C_8  and  O_9
REMARK    7  A    between atoms: C_11  and  O_12
REMARK    8  A    between atoms: O_12  and  C_13
REMARK    9  A    between atoms: C_13  and  C_14
REMARK   10  A    between atoms: C_14  and  C_15
REMARK   11  A    between atoms: C_15  and  C_16
REMARK   12  A    between atoms: C_16  and  C_17
REMARK   13  A    between atoms: C_17  and  C_18
REMARK   14  A    between atoms: C_18  and  C_19
REMARK   15  A    between atoms: C_19  and  C_20
REMARK   16  A    between atoms: C_20  and  C_21
REMARK   17  A    between atoms: C_21  and  C_22
REMARK   18  A    between atoms: C_22  and  C_23
REMARK   19  A    between atoms: N_25  and  C_26
REMARK   20  A    between atoms: C_26  and  C_27
REMARK                            x       y       z     vdW  Elec       q    Type
REMARK                         _______ _______ _______ _____ _____    ______ ____
ROOT
ATOM      1  C   UNL     1       2.683   7.756  17.741  0.00  0.00    +0.000 C 
ENDROOT
BRANCH   1   2
ATOM      2  C   UNL     1       2.337   6.379  18.311  0.00  0.00    +0.000 C 
BRANCH   2   3
ATOM      3  C   UNL     1       2.096   6.431  19.820  0.00  0.00    +0.000 C 
BRANCH   3   4
ATOM      4  C   UNL     1       2.315   5.077  20.476  0.00  0.00    +0.000 C 
BRANCH   4   5
ATOM      5  C   UNL     1       2.527   4.005  19.407  0.00  0.00    +0.000 C 
BRANCH   5   6
ATOM      6  C   UNL     1       3.767   3.174  19.713  0.00  0.00    +0.000 C 
BRANCH   6   7
ATOM      7  C   UNL     1       4.766   3.220  18.559  0.00  0.00    +0.000 C 
BRANCH   7   8
ATOM      8  C   UNL     1       5.436   4.589  18.495  0.00  0.00    +0.000 C 
BRANCH   8   9
ATOM      9  C   UNL     1       6.863   4.521  17.945  0.00  0.00    +0.000 C 
BRANCH   9  10
ATOM     10  C   UNL     1       6.910   5.076  16.532  0.00  0.00    +0.000 C 
ATOM     11  O   UNL     1       7.318   6.201  16.267  0.00  0.00    +0.000 OA
ATOM     12  N   UNL     1       6.454   4.207  15.567  0.00  0.00    +0.000 N 
ATOM     13  H   UNL     1       6.094   3.296  15.817  0.00  0.00    +0.000 HD
BRANCH  12  14
ATOM     14  C   UNL     1       6.414   4.648  14.193  0.00  0.00    +0.000 C 
BRANCH  14  15
ATOM     15  C   UNL     1       6.380   3.489  13.251  0.00  0.00    +0.000 C 
ATOM     16  C   UNL     1       5.440   3.465  12.072  0.00  0.00    +0.000 C 
ATOM     17  C   UNL     1       6.912   3.655  11.845  0.00  0.00    +0.000 C 
ENDBRANCH  14  15
ENDBRANCH  12  14
ENDBRANCH   9  10
ENDBRANCH   8   9
ENDBRANCH   7   8
ENDBRANCH   6   7
ENDBRANCH   5   6
ENDBRANCH   4   5
ENDBRANCH   3   4
ENDBRANCH   2   3
ENDBRANCH   1   2
BRANCH   1  18
ATOM     18  C   UNL     1       1.864   8.855  18.407  0.00  0.00    +0.000 C 
BRANCH  18  19
ATOM     19  O   UNL     1       2.279  10.133  17.933  0.00  0.00    +0.000 OA
BRANCH  19  24
ATOM     20  C   UNL     1       0.025  12.257  19.999  0.00  0.00    +0.000 A 
ATOM     21  C   UNL     1       0.567  13.508  19.682  0.00  0.00    +0.000 A 
ATOM     22  C   UNL     1       1.633  13.595  18.790  0.00  0.00    +0.000 A 
ATOM     23  C   UNL     1       2.177  12.451  18.218  0.00  0.00    +0.000 A 
ATOM     24  C   UNL     1       1.657  11.197  18.533  0.00  0.00    +0.000 A 
ATOM     25  C   UNL     1       0.577  11.108  19.419  0.00  0.00    +0.000 A 
BRANCH  22  26
ATOM     26  O   UNL     1       2.173  14.801  18.459  0.00  0.00    +0.000 OA
ATOM     27  H   UNL     1       1.520  15.495  18.647  0.00  0.00    +0.000 HD
ENDBRANCH  22  26
BRANCH  20  28
ATOM     28  C   UNL     1      -1.119  12.128  20.968  0.00  0.00    +0.000 C 
BRANCH  28  29
ATOM     29  C   UNL     1      -0.634  12.026  22.413  0.00  0.00    +0.000 C 
BRANCH  29  30
ATOM     30  C   UNL     1      -1.138  10.740  23.059  0.00  0.00    +0.000 C 
BRANCH  30  32
ATOM     31  C   UNL     1      -0.375   8.580  22.043  0.00  0.00    +0.000 C 
ATOM     32  C   UNL     1      -0.055   9.666  23.054  0.00  0.00    +0.000 C 
ENDBRANCH  30  32
ENDBRANCH  29  30
ENDBRANCH  28  29
ENDBRANCH  20  28
ENDBRANCH  19  24
ENDBRANCH  18  19
ENDBRANCH   1  18
TORSDOF 19
ENDMDL
MODEL 5
REMARK VINA RESULT:      -6.0      3.140      9.604
REMARK  Name = 
REMARK  20 active torsions:
REMARK  status: ('A' for Active; 'I' for Inactive)
REMARK    1  A    between atoms: C_1  and  C_2
REMARK    2  A    between atoms: C_2  and  C_3
REMARK    3  A    between atoms: C_3  and  C_4
REMARK    4  A    between atoms: C_4  and  C_5
REMARK    5  A    between atoms: C_5  and  C_6
REMARK    6  A    between atoms: C_8  and  O_9
REMARK    7  A    between atoms: C_11  and  O_12
REMARK    8  A    between atoms: O_12  and  C_13
REMARK    9  A    between atoms: C_13  and  C_14
REMARK   10  A    between atoms: C_14  and  C_15
REMARK   11  A    between atoms: C_15  and  C_16
REMARK   12  A    between atoms: C_16  and  C_17
REMARK   13  A    between atoms: C_17  and  C_18
REMARK   14  A    between atoms: C_18  and  C_19
REMARK   15  A    between atoms: C_19  and  C_20
REMARK   16  A    between atoms: C_20  and  C_21
REMARK   17  A    between atoms: C_21  and  C_22
REMARK   18  A    between atoms: C_22  and  C_23
REMARK   19  A    between atoms: N_25  and  C_26
REMARK   20  A    between atoms: C_26  and  C_27
REMARK                            x       y       z     vdW  Elec       q    Type
REMARK                         _______ _______ _______ _____ _____    ______ ____
ROOT
ATOM      1  C   UNL     1       1.392   8.889  21.044  0.00  0.00    +0.000 C 
ENDROOT
BRANCH   1   2
ATOM      2  C   UNL     1      -0.032   8.877  21.605  0.00  0.00    +0.000 C 
BRANCH   2   3
ATOM      3  C   UNL     1      -0.089   9.434  23.027  0.00  0.00    +0.000 C 
BRANCH   3   4
ATOM      4  C   UNL     1      -0.974  10.667  23.117  0.00  0.00    +0.000 C 
BRANCH   4   5
ATOM      5  C   UNL     1      -1.292  11.187  21.716  0.00  0.00    +0.000 C 
BRANCH   5   6
ATOM      6  C   UNL     1      -0.481  12.439  21.406  0.00  0.00    +0.000 C 
BRANCH   6   7
ATOM      7  C   UNL     1       0.197  12.338  20.041  0.00  0.00    +0.000 C 
BRANCH   7   8
ATOM      8  C   UNL     1      -0.851  12.251  18.936  0.00  0.00    +0.000 C 
BRANCH   8   9
ATOM      9  C   UNL     1      -0.902  10.869  18.282  0.00  0.00    +0.000 C 
BRANCH   9  10
ATOM     10  C   UNL     1      -2.221  10.680  17.550  0.00  0.00    +0.000 C 
ATOM     11  O   UNL     1      -2.450   9.725  16.816  0.00  0.00    +0.000 OA
ATOM     12  N   UNL     1      -3.142  11.675  17.780  0.00  0.00    +0.000 N 
ATOM     13  H   UNL     1      -2.916  12.468  18.366  0.00  0.00    +0.000 HD
BRANCH  12  14
ATOM     14  C   UNL     1      -4.415  11.620  17.100  0.00  0.00    +0.000 C 
BRANCH  14  15
ATOM     15  C   UNL     1      -5.515  12.149  17.961  0.00  0.00    +0.000 C 
ATOM     16  C   UNL     1      -6.837  12.572  17.371  0.00  0.00    +0.000 C 
ATOM     17  C   UNL     1      -6.755  11.312  18.185  0.00  0.00    +0.000 C 
ENDBRANCH  14  15
ENDBRANCH  12  14
ENDBRANCH   9  10
ENDBRANCH   8   9
ENDBRANCH   7   8
ENDBRANCH   6   7
ENDBRANCH   5   6
ENDBRANCH   4   5
ENDBRANCH   3   4
ENDBRANCH   2   3
ENDBRANCH   1   2
BRANCH   1  18
ATOM     18  C   UNL     1       1.677   7.638  20.222  0.00  0.00    +0.000 C 
BRANCH  18  19
ATOM     19  O   UNL     1       2.251   7.994  18.968  0.00  0.00    +0.000 OA
BRANCH  19  24
ATOM     20  C   UNL     1       3.032   4.666  17.494  0.00  0.00    +0.000 A 
ATOM     21  C   UNL     1       4.210   5.006  16.819  0.00  0.00    +0.000 A 
ATOM     22  C   UNL     1       4.702   6.307  16.898  0.00  0.00    +0.000 A 
ATOM     23  C   UNL     1       4.028   7.279  17.628  0.00  0.00    +0.000 A 
ATOM     24  C   UNL     1       2.847   6.959  18.295  0.00  0.00    +0.000 A 
ATOM     25  C   UNL     1       2.359   5.649  18.229  0.00  0.00    +0.000 A 
BRANCH  22  26
ATOM     26  O   UNL     1       5.851   6.661  16.257  0.00  0.00    +0.000 OA
ATOM     27  H   UNL     1       5.711   7.518  15.823  0.00  0.00    +0.000 HD
ENDBRANCH  22  26
BRANCH  20  28
ATOM     28  C   UNL     1       2.468   3.272  17.419  0.00  0.00    +0.000 C 
BRANCH  28  29
ATOM     29  C   UNL     1       1.357   3.051  18.444  0.00  0.00    +0.000 C 
BRANCH  29  30
ATOM     30  C   UNL     1       1.799   2.053  19.509  0.00  0.00    +0.000 C 
BRANCH  30  32
ATOM     31  C   UNL     1       4.134   2.359  20.363  0.00  0.00    +0.000 C 
ATOM     32  C   UNL     1       2.674   2.728  20.560  0.00  0.00    +0.000 C 
ENDBRANCH  30  32
ENDBRANCH  29  30
ENDBRANCH  28  29
ENDBRANCH  20  28
ENDBRANCH  19  24
ENDBRANCH  18  19
ENDBRANCH   1  18
TORSDOF 19
ENDMDL
MODEL 6
REMARK VINA RESULT:      -6.0      2.296      3.733
REMARK  Name = 
REMARK  20 active torsions:
REMARK  status: ('A' for Active; 'I' for Inactive)
REMARK    1  A    between atoms: C_1  and  C_2
REMARK    2  A    between atoms: C_2  and  C_3
REMARK    3  A    between atoms: C_3  and  C_4
REMARK    4  A    between atoms: C_4  and  C_5
REMARK    5  A    between atoms: C_5  and  C_6
REMARK    6  A    between atoms: C_8  and  O_9
REMARK    7  A    between atoms: C_11  and  O_12
REMARK    8  A    between atoms: O_12  and  C_13
REMARK    9  A    between atoms: C_13  and  C_14
REMARK   10  A    between atoms: C_14  and  C_15
REMARK   11  A    between atoms: C_15  and  C_16
REMARK   12  A    between atoms: C_16  and  C_17
REMARK   13  A    between atoms: C_17  and  C_18
REMARK   14  A    between atoms: C_18  and  C_19
REMARK   15  A    between atoms: C_19  and  C_20
REMARK   16  A    between atoms: C_20  and  C_21
REMARK   17  A    between atoms: C_21  and  C_22
REMARK   18  A    between atoms: C_22  and  C_23
REMARK   19  A    between atoms: N_25  and  C_26
REMARK   20  A    between atoms: C_26  and  C_27
REMARK                            x       y       z     vdW  Elec       q    Type
REMARK                         _______ _______ _______ _____ _____    ______ ____
ROOT
ATOM      1  C   UNL     1       0.976   8.353  20.471  0.00  0.00    +0.000 C 
ENDROOT
BRANCH   1   2
ATOM      2  C   UNL     1       2.273   7.762  19.914  0.00  0.00    +0.000 C 
BRANCH   2   3
ATOM      3  C   UNL     1       2.101   6.302  19.494  0.00  0.00    +0.000 C 
BRANCH   3   4
ATOM      4  C   UNL     1       2.016   5.374  20.696  0.00  0.00    +0.000 C 
BRANCH   4   5
ATOM      5  C   UNL     1       0.944   4.311  20.462  0.00  0.00    +0.000 C 
BRANCH   5   6
ATOM      6  C   UNL     1       1.477   2.922  20.792  0.00  0.00    +0.000 C 
BRANCH   6   7
ATOM      7  C   UNL     1       1.362   1.983  19.592  0.00  0.00    +0.000 C 
BRANCH   7   8
ATOM      8  C   UNL     1       2.606   2.092  18.716  0.00  0.00    +0.000 C 
BRANCH   8   9
ATOM      9  C   UNL     1       3.854   2.480  19.511  0.00  0.00    +0.000 C 
BRANCH   9  10
ATOM     10  C   UNL     1       4.695   3.470  18.724  0.00  0.00    +0.000 C 
ATOM     11  O   UNL     1       5.670   4.045  19.194  0.00  0.00    +0.000 OA
ATOM     12  N   UNL     1       4.270   3.670  17.431  0.00  0.00    +0.000 N 
ATOM     13  H   UNL     1       3.444   3.206  17.077  0.00  0.00    +0.000 HD
BRANCH  12  14
ATOM     14  C   UNL     1       4.970   4.625  16.604  0.00  0.00    +0.000 C 
BRANCH  14  15
ATOM     15  C   UNL     1       5.843   3.941  15.603  0.00  0.00    +0.000 C 
ATOM     16  C   UNL     1       5.909   4.412  14.172  0.00  0.00    +0.000 C 
ATOM     17  C   UNL     1       7.077   4.645  15.086  0.00  0.00    +0.000 C 
ENDBRANCH  14  15
ENDBRANCH  12  14
ENDBRANCH   9  10
ENDBRANCH   8   9
ENDBRANCH   7   8
ENDBRANCH   6   7
ENDBRANCH   5   6
ENDBRANCH   4   5
ENDBRANCH   3   4
ENDBRANCH   2   3
ENDBRANCH   1   2
BRANCH   1  18
ATOM     18  C   UNL     1       1.186   8.945  21.859  0.00  0.00    +0.000 C 
BRANCH  18  19
ATOM     19  O   UNL     1       1.262  10.366  21.780  0.00  0.00    +0.000 OA
BRANCH  19  24
ATOM     20  C   UNL     1      -1.645  11.783  19.935  0.00  0.00    +0.000 A 
ATOM     21  C   UNL     1      -2.382  12.247  21.030  0.00  0.00    +0.000 A 
ATOM     22  C   UNL     1      -1.880  12.091  22.320  0.00  0.00    +0.000 A 
ATOM     23  C   UNL     1      -0.658  11.465  22.536  0.00  0.00    +0.000 A 
ATOM     24  C   UNL     1       0.083  10.986  21.457  0.00  0.00    +0.000 A 
ATOM     25  C   UNL     1      -0.414  11.154  20.159  0.00  0.00    +0.000 A 
BRANCH  22  26
ATOM     26  O   UNL     1      -2.574  12.542  23.402  0.00  0.00    +0.000 OA
ATOM     27  H   UNL     1      -2.783  13.480  23.266  0.00  0.00    +0.000 HD
ENDBRANCH  22  26
BRANCH  20  28
ATOM     28  C   UNL     1      -2.165  11.926  18.530  0.00  0.00    +0.000 C 
BRANCH  28  29
ATOM     29  C   UNL     1      -3.602  11.423  18.400  0.00  0.00    +0.000 C 
BRANCH  29  30
ATOM     30  C   UNL     1      -3.781  10.638  17.105  0.00  0.00    +0.000 C 
BRANCH  30  32
ATOM     31  C   UNL     1      -2.904  10.248  14.791  0.00  0.00    +0.000 C 
ATOM     32  C   UNL     1      -2.686  10.983  16.101  0.00  0.00    +0.000 C 
ENDBRANCH  30  32
ENDBRANCH  29  30
ENDBRANCH  28  29
ENDBRANCH  20  28
ENDBRANCH  19  24
ENDBRANCH  18  19
ENDBRANCH   1  18
TORSDOF 19
ENDMDL
MODEL 7
REMARK VINA RESULT:      -6.0      3.002     10.039
REMARK  Name = 
REMARK  20 active torsions:
REMARK  status: ('A' for Active; 'I' for Inactive)
REMARK    1  A    between atoms: C_1  and  C_2
REMARK    2  A    between atoms: C_2  and  C_3
REMARK    3  A    between atoms: C_3  and  C_4
REMARK    4  A    between atoms: C_4  and  C_5
REMARK    5  A    between atoms: C_5  and  C_6
REMARK    6  A    between atoms: C_8  and  O_9
REMARK    7  A    between atoms: C_11  and  O_12
REMARK    8  A    between atoms: O_12  and  C_13
REMARK    9  A    between atoms: C_13  and  C_14
REMARK   10  A    between atoms: C_14  and  C_15
REMARK   11  A    between atoms: C_15  and  C_16
REMARK   12  A    between atoms: C_16  and  C_17
REMARK   13  A    between atoms: C_17  and  C_18
REMARK   14  A    between atoms: C_18  and  C_19
REMARK   15  A    between atoms: C_19  and  C_20
REMARK   16  A    between atoms: C_20  and  C_21
REMARK   17  A    between atoms: C_21  and  C_22
REMARK   18  A    between atoms: C_22  and  C_23
REMARK   19  A    between atoms: N_25  and  C_26
REMARK   20  A    between atoms: C_26  and  C_27
REMARK                            x       y       z     vdW  Elec       q    Type
REMARK                         _______ _______ _______ _____ _____    ______ ____
ROOT
ATOM      1  C   UNL     1       1.315   3.958  18.570  0.00  0.00    +0.000 C 
ENDROOT
BRANCH   1   2
ATOM      2  C   UNL     1       1.402   3.762  20.085  0.00  0.00    +0.000 C 
BRANCH   2   3
ATOM      3  C   UNL     1       2.106   4.933  20.772  0.00  0.00    +0.000 C 
BRANCH   3   4
ATOM      4  C   UNL     1       1.633   6.274  20.231  0.00  0.00    +0.000 C 
BRANCH   4   5
ATOM      5  C   UNL     1       2.786   6.991  19.529  0.00  0.00    +0.000 C 
BRANCH   5   6
ATOM      6  C   UNL     1       2.372   7.444  18.134  0.00  0.00    +0.000 C 
BRANCH   6   7
ATOM      7  C   UNL     1       2.375   8.968  18.021  0.00  0.00    +0.000 C 
BRANCH   7   8
ATOM      8  C   UNL     1       1.081   9.542  18.590  0.00  0.00    +0.000 C 
BRANCH   8   9
ATOM      9  C   UNL     1       1.322  10.449  19.799  0.00  0.00    +0.000 C 
BRANCH   9  10
ATOM     10  C   UNL     1       0.254  10.214  20.854  0.00  0.00    +0.000 C 
ATOM     11  O   UNL     1      -0.393   9.176  20.934  0.00  0.00    +0.000 OA
ATOM     12  N   UNL     1       0.070  11.270  21.717  0.00  0.00    +0.000 N 
ATOM     13  H   UNL     1       0.595  12.127  21.609  0.00  0.00    +0.000 HD
BRANCH  12  14
ATOM     14  C   UNL     1      -0.952  11.173  22.733  0.00  0.00    +0.000 C 
BRANCH  14  15
ATOM     15  C   UNL     1      -2.072  12.125  22.471  0.00  0.00    +0.000 C 
ATOM     16  C   UNL     1      -3.178  12.329  23.476  0.00  0.00    +0.000 C 
ATOM     17  C   UNL     1      -2.158  13.410  23.262  0.00  0.00    +0.000 C 
ENDBRANCH  14  15
ENDBRANCH  12  14
ENDBRANCH   9  10
ENDBRANCH   8   9
ENDBRANCH   7   8
ENDBRANCH   6   7
ENDBRANCH   5   6
ENDBRANCH   4   5
ENDBRANCH   3   4
ENDBRANCH   2   3
ENDBRANCH   1   2
BRANCH   1  18
ATOM     18  C   UNL     1       2.584   3.479  17.874  0.00  0.00    +0.000 C 
BRANCH  18  19
ATOM     19  O   UNL     1       3.651   3.379  18.813  0.00  0.00    +0.000 OA
BRANCH  19  24
ATOM     20  C   UNL     1       6.472   4.712  16.781  0.00  0.00    +0.000 A 
ATOM     21  C   UNL     1       7.239   5.255  17.817  0.00  0.00    +0.000 A 
ATOM     22  C   UNL     1       6.804   5.139  19.135  0.00  0.00    +0.000 A 
ATOM     23  C   UNL     1       5.605   4.501  19.435  0.00  0.00    +0.000 A 
ATOM     24  C   UNL     1       4.823   3.966  18.412  0.00  0.00    +0.000 A 
ATOM     25  C   UNL     1       5.266   4.070  17.089  0.00  0.00    +0.000 A 
BRANCH  22  26
ATOM     26  O   UNL     1       7.536   5.651  20.163  0.00  0.00    +0.000 OA
ATOM     27  H   UNL     1       7.715   6.587  19.980  0.00  0.00    +0.000 HD
ENDBRANCH  22  26
BRANCH  20  28
ATOM     28  C   UNL     1       6.909   4.831  15.345  0.00  0.00    +0.000 C 
BRANCH  28  29
ATOM     29  C   UNL     1       6.075   3.947  14.420  0.00  0.00    +0.000 C 
BRANCH  29  30
ATOM     30  C   UNL     1       6.581   4.043  12.985  0.00  0.00    +0.000 C 
BRANCH  30  32
ATOM     31  C   UNL     1       7.616   5.768  11.492  0.00  0.00    +0.000 C 
ATOM     32  C   UNL     1       7.665   5.109  12.859  0.00  0.00    +0.000 C 
ENDBRANCH  30  32
ENDBRANCH  29  30
ENDBRANCH  28  29
ENDBRANCH  20  28
ENDBRANCH  19  24
ENDBRANCH  18  19
ENDBRANCH   1  18
TORSDOF 19
ENDMDL
MODEL 8
REMARK VINA RESULT:      -5.9      3.645      9.670
REMARK  Name = 
REMARK  20 active torsions:
REMARK  status: ('A' for Active; 'I' for Inactive)
REMARK    1  A    between atoms: C_1  and  C_2
REMARK    2  A    between atoms: C_2  and  C_3
REMARK    3  A    between atoms: C_3  and  C_4
REMARK    4  A    between atoms: C_4  and  C_5
REMARK    5  A    between atoms: C_5  and  C_6
REMARK    6  A    between atoms: C_8  and  O_9
REMARK    7  A    between atoms: C_11  and  O_12
REMARK    8  A    between atoms: O_12  and  C_13
REMARK    9  A    between atoms: C_13  and  C_14
REMARK   10  A    between atoms: C_14  and  C_15
REMARK   11  A    between atoms: C_15  and  C_16
REMARK   12  A    between atoms: C_16  and  C_17
REMARK   13  A    between atoms: C_17  and  C_18
REMARK   14  A    between atoms: C_18  and  C_19
REMARK   15  A    between atoms: C_19  and  C_20
REMARK   16  A    between atoms: C_20  and  C_21
REMARK   17  A    between atoms: C_21  and  C_22
REMARK   18  A    between atoms: C_22  and  C_23
REMARK   19  A    between atoms: N_25  and  C_26
REMARK   20  A    between atoms: C_26  and  C_27
REMARK                            x       y       z     vdW  Elec       q    Type
REMARK                         _______ _______ _______ _____ _____    ______ ____
ROOT
ATOM      1  C   UNL     1       2.701   2.245  18.608  0.00  0.00    +0.000 C 
ENDROOT
BRANCH   1   2
ATOM      2  C   UNL     1       3.204   2.720  19.973  0.00  0.00    +0.000 C 
BRANCH   2   3
ATOM      3  C   UNL     1       3.103   4.239  20.120  0.00  0.00    +0.000 C 
BRANCH   3   4
ATOM      4  C   UNL     1       1.683   4.736  19.899  0.00  0.00    +0.000 C 
BRANCH   4   5
ATOM      5  C   UNL     1       1.674   5.847  18.850  0.00  0.00    +0.000 C 
BRANCH   5   6
ATOM      6  C   UNL     1       2.885   6.758  19.017  0.00  0.00    +0.000 C 
BRANCH   6   7
ATOM      7  C   UNL     1       3.088   7.643  17.788  0.00  0.00    +0.000 C 
BRANCH   7   8
ATOM      8  C   UNL     1       1.965   8.670  17.685  0.00  0.00    +0.000 C 
BRANCH   8   9
ATOM      9  C   UNL     1       1.643   9.325  19.030  0.00  0.00    +0.000 C 
BRANCH   9  10
ATOM     10  C   UNL     1       1.318  10.797  18.835  0.00  0.00    +0.000 C 
ATOM     11  O   UNL     1       0.299  11.322  19.268  0.00  0.00    +0.000 OA
ATOM     12  N   UNL     1       2.268  11.496  18.127  0.00  0.00    +0.000 N 
ATOM     13  H   UNL     1       3.085  11.031  17.754  0.00  0.00    +0.000 HD
BRANCH  12  14
ATOM     14  C   UNL     1       2.041  12.894  17.845  0.00  0.00    +0.000 C 
BRANCH  14  15
ATOM     15  C   UNL     1       3.017  13.761  18.570  0.00  0.00    +0.000 C 
ATOM     16  C   UNL     1       2.814  15.252  18.673  0.00  0.00    +0.000 C 
ATOM     17  C   UNL     1       2.621  14.389  19.887  0.00  0.00    +0.000 C 
ENDBRANCH  14  15
ENDBRANCH  12  14
ENDBRANCH   9  10
ENDBRANCH   8   9
ENDBRANCH   7   8
ENDBRANCH   6   7
ENDBRANCH   5   6
ENDBRANCH   4   5
ENDBRANCH   3   4
ENDBRANCH   2   3
ENDBRANCH   1   2
BRANCH   1  18
ATOM     18  C   UNL     1       3.752   2.456  17.524  0.00  0.00    +0.000 C 
BRANCH  18  19
ATOM     19  O   UNL     1       3.662   3.779  17.004  0.00  0.00    +0.000 OA
BRANCH  19  24
ATOM     20  C   UNL     1       6.125   4.179  14.240  0.00  0.00    +0.000 A 
ATOM     21  C   UNL     1       6.953   5.137  14.834  0.00  0.00    +0.000 A 
ATOM     22  C   UNL     1       6.676   5.591  16.121  0.00  0.00    +0.000 A 
ATOM     23  C   UNL     1       5.574   5.113  16.821  0.00  0.00    +0.000 A 
ATOM     24  C   UNL     1       4.731   4.168  16.239  0.00  0.00    +0.000 A 
ATOM     25  C   UNL     1       5.017   3.701  14.950  0.00  0.00    +0.000 A 
BRANCH  22  26
ATOM     26  O   UNL     1       7.472   6.517  16.725  0.00  0.00    +0.000 OA
ATOM     27  H   UNL     1       8.282   6.077  17.029  0.00  0.00    +0.000 HD
ENDBRANCH  22  26
BRANCH  20  28
ATOM     28  C   UNL     1       6.391   3.677  12.846  0.00  0.00    +0.000 C 
BRANCH  28  29
ATOM     29  C   UNL     1       5.142   3.070  12.210  0.00  0.00    +0.000 C 
BRANCH  29  30
ATOM     30  C   UNL     1       4.513   4.047  11.222  0.00  0.00    +0.000 C 
BRANCH  30  32
ATOM     31  C   UNL     1       2.867   4.315   9.353  0.00  0.00    +0.000 C 
ATOM     32  C   UNL     1       3.419   3.369  10.404  0.00  0.00    +0.000 C 
ENDBRANCH  30  32
ENDBRANCH  29  30
ENDBRANCH  28  29
ENDBRANCH  20  28
ENDBRANCH  19  24
ENDBRANCH  18  19
ENDBRANCH   1  18
TORSDOF 19
ENDMDL
MODEL 9
REMARK VINA RESULT:      -5.9      2.373      3.831
REMARK  Name = 
REMARK  20 active torsions:
REMARK  status: ('A' for Active; 'I' for Inactive)
REMARK    1  A    between atoms: C_1  and  C_2
REMARK    2  A    between atoms: C_2  and  C_3
REMARK    3  A    between atoms: C_3  and  C_4
REMARK    4  A    between atoms: C_4  and  C_5
REMARK    5  A    between atoms: C_5  and  C_6
REMARK    6  A    between atoms: C_8  and  O_9
REMARK    7  A    between atoms: C_11  and  O_12
REMARK    8  A    between atoms: O_12  and  C_13
REMARK    9  A    between atoms: C_13  and  C_14
REMARK   10  A    between atoms: C_14  and  C_15
REMARK   11  A    between atoms: C_15  and  C_16
REMARK   12  A    between atoms: C_16  and  C_17
REMARK   13  A    between atoms: C_17  and  C_18
REMARK   14  A    between atoms: C_18  and  C_19
REMARK   15  A    between atoms: C_19  and  C_20
REMARK   16  A    between atoms: C_20  and  C_21
REMARK   17  A    between atoms: C_21  and  C_22
REMARK   18  A    between atoms: C_22  and  C_23
REMARK   19  A    between atoms: N_25  and  C_26
REMARK   20  A    between atoms: C_26  and  C_27
REMARK                            x       y       z     vdW  Elec       q    Type
REMARK                         _______ _______ _______ _____ _____    ______ ____
ROOT
ATOM      1  C   UNL     1       1.540   4.815  20.395  0.00  0.00    +0.000 C 
ENDROOT
BRANCH   1   2
ATOM      2  C   UNL     1       1.284   3.737  21.452  0.00  0.00    +0.000 C 
BRANCH   2   3
ATOM      3  C   UNL     1       2.421   2.716  21.511  0.00  0.00    +0.000 C 
BRANCH   3   4
ATOM      4  C   UNL     1       2.474   1.854  20.260  0.00  0.00    +0.000 C 
BRANCH   4   5
ATOM      5  C   UNL     1       3.804   2.062  19.536  0.00  0.00    +0.000 C 
BRANCH   5   6
ATOM      6  C   UNL     1       3.729   1.542  18.106  0.00  0.00    +0.000 C 
BRANCH   6   7
ATOM      7  C   UNL     1       2.601   2.219  17.328  0.00  0.00    +0.000 C 
BRANCH   7   8
ATOM      8  C   UNL     1       2.745   3.735  17.400  0.00  0.00    +0.000 C 
BRANCH   8   9
ATOM      9  C   UNL     1       4.025   4.237  16.728  0.00  0.00    +0.000 C 
BRANCH   9  10
ATOM     10  C   UNL     1       4.748   5.218  17.636  0.00  0.00    +0.000 C 
ATOM     11  O   UNL     1       4.374   6.373  17.807  0.00  0.00    +0.000 OA
ATOM     12  N   UNL     1       5.863   4.701  18.253  0.00  0.00    +0.000 N 
ATOM     13  H   UNL     1       6.167   3.754  18.070  0.00  0.00    +0.000 HD
BRANCH  12  14
ATOM     14  C   UNL     1       6.652   5.560  19.105  0.00  0.00    +0.000 C 
BRANCH  14  15
ATOM     15  C   UNL     1       7.798   6.161  18.361  0.00  0.00    +0.000 C 
ATOM     16  C   UNL     1       7.579   6.987  17.118  0.00  0.00    +0.000 C 
ATOM     17  C   UNL     1       8.005   7.658  18.392  0.00  0.00    +0.000 C 
ENDBRANCH  14  15
ENDBRANCH  12  14
ENDBRANCH   9  10
ENDBRANCH   8   9
ENDBRANCH   7   8
ENDBRANCH   6   7
ENDBRANCH   5   6
ENDBRANCH   4   5
ENDBRANCH   3   4
ENDBRANCH   2   3
ENDBRANCH   1   2
BRANCH   1  18
ATOM     18  C   UNL     1       1.984   6.125  21.035  0.00  0.00    +0.000 C 
BRANCH  18  19
ATOM     19  O   UNL     1       2.088   7.144  20.045  0.00  0.00    +0.000 OA
BRANCH  19  24
ATOM     20  C   UNL     1       0.160  10.318  19.768  0.00  0.00    +0.000 A 
ATOM     21  C   UNL     1      -0.051  10.555  21.131  0.00  0.00    +0.000 A 
ATOM     22  C   UNL     1       0.467   9.672  22.076  0.00  0.00    +0.000 A 
ATOM     23  C   UNL     1       1.182   8.547  21.681  0.00  0.00    +0.000 A 
ATOM     24  C   UNL     1       1.390   8.290  20.327  0.00  0.00    +0.000 A 
ATOM     25  C   UNL     1       0.882   9.183  19.377  0.00  0.00    +0.000 A 
BRANCH  22  26
ATOM     26  O   UNL     1       0.284   9.885  23.409  0.00  0.00    +0.000 OA
ATOM     27  H   UNL     1      -0.211  10.712  23.525  0.00  0.00    +0.000 HD
ENDBRANCH  22  26
BRANCH  20  28
ATOM     28  C   UNL     1      -0.396  11.246  18.722  0.00  0.00    +0.000 C 
BRANCH  28  29
ATOM     29  C   UNL     1      -1.868  10.958  18.429  0.00  0.00    +0.000 C 
BRANCH  29  30
ATOM     30  C   UNL     1      -2.002   9.953  17.291  0.00  0.00    +0.000 C 
BRANCH  30  32
ATOM     31  C   UNL     1      -3.974  11.195  16.370  0.00  0.00    +0.000 C 
ATOM     32  C   UNL     1      -2.610  10.606  16.054  0.00  0.00    +0.000 C 
ENDBRANCH  30  32
ENDBRANCH  29  30
ENDBRANCH  28  29
ENDBRANCH  20  28
ENDBRANCH  19  24
ENDBRANCH  18  19
ENDBRANCH   1  18
TORSDOF 19
ENDMDL
