MODEL 1
REMARK VINA RESULT:      -7.6      0.000      0.000
REMARK  Name = 
REMARK  6 active torsions:
REMARK  status: ('A' for Active; 'I' for Inactive)
REMARK    1  A    between atoms: C_1  and  C_2
REMARK    2  A    between atoms: C_7  and  C_8
REMARK    3  A    between atoms: C_8  and  C_9
REMARK    4  A    between atoms: N_11  and  C_12
REMARK    5  A    between atoms: C_12  and  C_13
REMARK    6  A    between atoms: C_12  and  C_14
REMARK                            x       y       z     vdW  Elec       q    Type
REMARK                         _______ _______ _______ _____ _____    ______ ____
ROOT
ATOM      1  C   UNL     1       6.483   5.379  16.733  0.00  0.00    +0.000 C 
ATOM      2  O   UNL     1       6.718   4.654  17.703  0.00  0.00    +0.000 OA
ATOM      3  N   UNL     1       5.319   6.110  16.637  0.00  0.00    +0.000 N 
ATOM      4  H   UNL     1       5.165   6.758  15.872  0.00  0.00    +0.000 HD
ENDROOT
BRANCH   3   5
ATOM      5  C   UNL     1       4.359   6.107  17.726  0.00  0.00    +0.000 C 
ATOM      6  C   UNL     1       3.469   7.349  17.686  0.00  0.00    +0.000 C 
BRANCH   5   7
ATOM      7  C   UNL     1       3.532   4.861  17.670  0.00  0.00    +0.000 A 
ATOM      8  N   UNL     1       3.235   4.155  16.598  0.00  0.00    +0.000 NA
ATOM      9  N   UNL     1       2.421   3.118  16.982  0.00  0.00    +0.000 NA
ATOM     10  C   UNL     1       2.224   3.197  18.283  0.00  0.00    +0.000 A 
ATOM     11  N   UNL     1       2.917   4.284  18.762  0.00  0.00    +0.000 N 
ATOM     12  C   UNL     1       2.991   4.743  20.135  0.00  0.00    +0.000 C 
ATOM     13  C   UNL     1       1.664   4.680  20.879  0.00  0.00    +0.000 C 
ATOM     14  C   UNL     1       1.330   3.293  21.423  0.00  0.00    +0.000 C 
ATOM     15  C   UNL     1       1.753   2.118  20.539  0.00  0.00    +0.000 C 
ATOM     16  C   UNL     1       1.353   2.278  19.076  0.00  0.00    +0.000 C 
ENDBRANCH   5   7
ENDBRANCH   3   5
BRANCH   1  17
ATOM     17  C   UNL     1       7.443   5.491  15.558  0.00  0.00    +0.000 C 
BRANCH  17  24
ATOM     18  C   UNL     1       8.741   5.900  12.824  0.00  0.00    +0.000 C 
ATOM     19  C   UNL     1       7.568   4.982  13.037  0.00  0.00    +0.000 A 
ATOM     20  C   UNL     1       7.063   4.290  11.920  0.00  0.00    +0.000 A 
ATOM     21  C   UNL     1       5.970   3.432  12.035  0.00  0.00    +0.000 A 
ATOM     22  C   UNL     1       5.366   3.252  13.270  0.00  0.00    +0.000 A 
ATOM     23  C   UNL     1       5.862   3.918  14.390  0.00  0.00    +0.000 A 
ATOM     24  C   UNL     1       6.978   4.775  14.303  0.00  0.00    +0.000 A 
ENDBRANCH  17  24
ENDBRANCH   1  17
TORSDOF 4
ENDMDL
MODEL 2
REMARK VINA RESULT:      -7.6      1.414      1.921
REMARK  Name = 
REMARK  6 active torsions:
REMARK  status: ('A' for Active; 'I' for Inactive)
REMARK    1  A    between atoms: C_1  and  C_2
REMARK    2  A    between atoms: C_7  and  C_8
REMARK    3  A    between atoms: C_8  and  C_9
REMARK    4  A    between atoms: N_11  and  C_12
REMARK    5  A    between atoms: C_12  and  C_13
REMARK    6  A    between atoms: C_12  and  C_14
REMARK                            x       y       z     vdW  Elec       q    Type
REMARK                         _______ _______ _______ _____ _____    ______ ____
ROOT
ATOM      1  C   UNL     1       7.119   5.079  16.564  0.00  0.00    +0.000 C 
ATOM      2  O   UNL     1       7.861   4.192  16.996  0.00  0.00    +0.000 OA
ATOM      3  N   UNL     1       6.004   5.494  17.259  0.00  0.00    +0.000 N 
ATOM      4  H   UNL     1       5.440   6.272  16.933  0.00  0.00    +0.000 HD
ENDROOT
BRANCH   3   5
ATOM      5  C   UNL     1       5.710   4.947  18.570  0.00  0.00    +0.000 C 
ATOM      6  C   UNL     1       6.720   5.424  19.613  0.00  0.00    +0.000 C 
BRANCH   5   7
ATOM      7  C   UNL     1       4.317   5.319  18.974  0.00  0.00    +0.000 A 
ATOM      8  N   UNL     1       3.744   6.499  18.845  0.00  0.00    +0.000 NA
ATOM      9  N   UNL     1       2.482   6.421  19.381  0.00  0.00    +0.000 NA
ATOM     10  C   UNL     1       2.292   5.198  19.834  0.00  0.00    +0.000 A 
ATOM     11  N   UNL     1       3.428   4.463  19.590  0.00  0.00    +0.000 N 
ATOM     12  C   UNL     1       3.659   3.068  19.913  0.00  0.00    +0.000 C 
ATOM     13  C   UNL     1       3.130   2.656  21.280  0.00  0.00    +0.000 C 
ATOM     14  C   UNL     1       1.634   2.351  21.293  0.00  0.00    +0.000 C 
ATOM     15  C   UNL     1       0.772   3.233  20.389  0.00  0.00    +0.000 C 
ATOM     16  C   UNL     1       1.060   4.724  20.535  0.00  0.00    +0.000 C 
ENDBRANCH   5   7
ENDBRANCH   3   5
BRANCH   1  17
ATOM     17  C   UNL     1       7.363   5.753  15.222  0.00  0.00    +0.000 C 
BRANCH  17  24
ATOM     18  C   UNL     1       8.774   5.939  12.520  0.00  0.00    +0.000 C 
ATOM     19  C   UNL     1       7.616   5.011  12.769  0.00  0.00    +0.000 A 
ATOM     20  C   UNL     1       7.179   4.203  11.703  0.00  0.00    +0.000 A 
ATOM     21  C   UNL     1       6.104   3.328  11.851  0.00  0.00    +0.000 A 
ATOM     22  C   UNL     1       5.448   3.248  13.071  0.00  0.00    +0.000 A 
ATOM     23  C   UNL     1       5.876   4.031  14.143  0.00  0.00    +0.000 A 
ATOM     24  C   UNL     1       6.973   4.908  14.023  0.00  0.00    +0.000 A 
ENDBRANCH  17  24
ENDBRANCH   1  17
TORSDOF 4
ENDMDL
MODEL 3
REMARK VINA RESULT:      -7.4      2.710      6.904
REMARK  Name = 
REMARK  6 active torsions:
REMARK  status: ('A' for Active; 'I' for Inactive)
REMARK    1  A    between atoms: C_1  and  C_2
REMARK    2  A    between atoms: C_7  and  C_8
REMARK    3  A    between atoms: C_8  and  C_9
REMARK    4  A    between atoms: N_11  and  C_12
REMARK    5  A    between atoms: C_12  and  C_13
REMARK    6  A    between atoms: C_12  and  C_14
REMARK                            x       y       z     vdW  Elec       q    Type
REMARK                         _______ _______ _______ _____ _____    ______ ____
ROOT
ATOM      1  C   UNL     1       2.207   5.016  19.821  0.00  0.00    +0.000 C 
ATOM      2  O   UNL     1       1.580   4.607  18.840  0.00  0.00    +0.000 OA
ATOM      3  N   UNL     1       3.343   4.382  20.274  0.00  0.00    +0.000 N 
ATOM      4  H   UNL     1       3.892   4.765  21.036  0.00  0.00    +0.000 HD
ENDROOT
BRANCH   3   5
ATOM      5  C   UNL     1       3.885   3.244  19.554  0.00  0.00    +0.000 C 
ATOM      6  C   UNL     1       2.802   2.210  19.249  0.00  0.00    +0.000 C 
BRANCH   5   7
ATOM      7  C   UNL     1       4.543   3.708  18.292  0.00  0.00    +0.000 A 
ATOM      8  N   UNL     1       4.335   3.247  17.075  0.00  0.00    +0.000 NA
ATOM      9  N   UNL     1       5.173   3.915  16.217  0.00  0.00    +0.000 NA
ATOM     10  C   UNL     1       5.887   4.778  16.912  0.00  0.00    +0.000 A 
ATOM     11  N   UNL     1       5.515   4.685  18.233  0.00  0.00    +0.000 N 
ATOM     12  C   UNL     1       6.033   5.452  19.348  0.00  0.00    +0.000 C 
ATOM     13  C   UNL     1       7.542   5.653  19.310  0.00  0.00    +0.000 C 
ATOM     14  C   UNL     1       7.987   6.793  18.396  0.00  0.00    +0.000 C 
ATOM     15  C   UNL     1       7.173   6.965  17.112  0.00  0.00    +0.000 C 
ATOM     16  C   UNL     1       6.951   5.663  16.349  0.00  0.00    +0.000 C 
ENDBRANCH   5   7
ENDBRANCH   3   5
BRANCH   1  17
ATOM     17  C   UNL     1       1.753   6.228  20.621  0.00  0.00    +0.000 C 
BRANCH  17  24
ATOM     18  C   UNL     1       0.227   8.714  21.524  0.00  0.00    +0.000 C 
ATOM     19  C   UNL     1       1.012   8.665  20.242  0.00  0.00    +0.000 A 
ATOM     20  C   UNL     1       1.034   9.820  19.439  0.00  0.00    +0.000 A 
ATOM     21  C   UNL     1       1.727   9.848  18.230  0.00  0.00    +0.000 A 
ATOM     22  C   UNL     1       2.411   8.719  17.805  0.00  0.00    +0.000 A 
ATOM     23  C   UNL     1       2.412   7.569  18.594  0.00  0.00    +0.000 A 
ATOM     24  C   UNL     1       1.735   7.524  19.830  0.00  0.00    +0.000 A 
ENDBRANCH  17  24
ENDBRANCH   1  17
TORSDOF 4
ENDMDL
MODEL 4
REMARK VINA RESULT:      -7.3      1.491      2.359
REMARK  Name = 
REMARK  6 active torsions:
REMARK  status: ('A' for Active; 'I' for Inactive)
REMARK    1  A    between atoms: C_1  and  C_2
REMARK    2  A    between atoms: C_7  and  C_8
REMARK    3  A    between atoms: C_8  and  C_9
REMARK    4  A    between atoms: N_11  and  C_12
REMARK    5  A    between atoms: C_12  and  C_13
REMARK    6  A    between atoms: C_12  and  C_14
REMARK                            x       y       z     vdW  Elec       q    Type
REMARK                         _______ _______ _______ _____ _____    ______ ____
ROOT
ATOM      1  C   UNL     1       5.408   4.365  15.067  0.00  0.00    +0.000 C 
ATOM      2  O   UNL     1       5.949   3.338  15.486  0.00  0.00    +0.000 OA
ATOM      3  N   UNL     1       5.037   5.388  15.911  0.00  0.00    +0.000 N 
ATOM      4  H   UNL     1       4.659   6.257  15.551  0.00  0.00    +0.000 HD
ENDROOT
BRANCH   3   5
ATOM      5  C   UNL     1       5.345   5.319  17.328  0.00  0.00    +0.000 C 
ATOM      6  C   UNL     1       6.524   6.222  17.686  0.00  0.00    +0.000 C 
BRANCH   5   7
ATOM      7  C   UNL     1       4.134   5.686  18.129  0.00  0.00    +0.000 A 
ATOM      8  N   UNL     1       3.635   6.893  18.300  0.00  0.00    +0.000 NA
ATOM      9  N   UNL     1       2.552   6.792  19.138  0.00  0.00    +0.000 NA
ATOM     10  C   UNL     1       2.396   5.527  19.474  0.00  0.00    +0.000 A 
ATOM     11  N   UNL     1       3.374   4.789  18.850  0.00  0.00    +0.000 N 
ATOM     12  C   UNL     1       3.578   3.356  18.930  0.00  0.00    +0.000 C 
ATOM     13  C   UNL     1       3.393   2.782  20.328  0.00  0.00    +0.000 C 
ATOM     14  C   UNL     1       1.932   2.536  20.701  0.00  0.00    +0.000 C 
ATOM     15  C   UNL     1       0.933   3.565  20.171  0.00  0.00    +0.000 C 
ATOM     16  C   UNL     1       1.357   5.010  20.414  0.00  0.00    +0.000 C 
ENDBRANCH   5   7
ENDBRANCH   3   5
BRANCH   1  17
ATOM     17  C   UNL     1       5.082   4.560  13.593  0.00  0.00    +0.000 C 
BRANCH  17  24
ATOM     18  C   UNL     1       7.933   5.118  12.654  0.00  0.00    +0.000 C 
ATOM     19  C   UNL     1       7.155   3.909  12.213  0.00  0.00    +0.000 A 
ATOM     20  C   UNL     1       7.783   3.008  11.333  0.00  0.00    +0.000 A 
ATOM     21  C   UNL     1       7.123   1.872  10.868  0.00  0.00    +0.000 A 
ATOM     22  C   UNL     1       5.822   1.618  11.278  0.00  0.00    +0.000 A 
ATOM     23  C   UNL     1       5.189   2.492  12.161  0.00  0.00    +0.000 A 
ATOM     24  C   UNL     1       5.843   3.637  12.660  0.00  0.00    +0.000 A 
ENDBRANCH  17  24
ENDBRANCH   1  17
TORSDOF 4
ENDMDL
MODEL 5
REMARK VINA RESULT:      -7.3      2.859      6.766
REMARK  Name = 
REMARK  6 active torsions:
REMARK  status: ('A' for Active; 'I' for Inactive)
REMARK    1  A    between atoms: C_1  and  C_2
REMARK    2  A    between atoms: C_7  and  C_8
REMARK    3  A    between atoms: C_8  and  C_9
REMARK    4  A    between atoms: N_11  and  C_12
REMARK    5  A    between atoms: C_12  and  C_13
REMARK    6  A    between atoms: C_12  and  C_14
REMARK                            x       y       z     vdW  Elec       q    Type
REMARK                         _______ _______ _______ _____ _____    ______ ____
ROOT
ATOM      1  C   UNL     1       1.549   5.532  20.827  0.00  0.00    +0.000 C 
ATOM      2  O   UNL     1       0.699   4.932  20.164  0.00  0.00    +0.000 OA
ATOM      3  N   UNL     1       2.681   4.903  21.297  0.00  0.00    +0.000 N 
ATOM      4  H   UNL     1       3.409   5.420  21.779  0.00  0.00    +0.000 HD
ENDROOT
BRANCH   3   5
ATOM      5  C   UNL     1       2.947   3.517  20.956  0.00  0.00    +0.000 C 
ATOM      6  C   UNL     1       1.824   2.600  21.439  0.00  0.00    +0.000 C 
BRANCH   5   7
ATOM      7  C   UNL     1       3.138   3.385  19.477  0.00  0.00    +0.000 A 
ATOM      8  N   UNL     1       2.511   2.555  18.669  0.00  0.00    +0.000 NA
ATOM      9  N   UNL     1       3.016   2.729  17.404  0.00  0.00    +0.000 NA
ATOM     10  C   UNL     1       3.946   3.661  17.446  0.00  0.00    +0.000 A 
ATOM     11  N   UNL     1       4.052   4.111  18.742  0.00  0.00    +0.000 N 
ATOM     12  C   UNL     1       4.942   5.138  19.245  0.00  0.00    +0.000 C 
ATOM     13  C   UNL     1       6.349   5.073  18.666  0.00  0.00    +0.000 C 
ATOM     14  C   UNL     1       6.477   5.721  17.289  0.00  0.00    +0.000 C 
ATOM     15  C   UNL     1       5.273   5.543  16.362  0.00  0.00    +0.000 C 
ATOM     16  C   UNL     1       4.770   4.105  16.282  0.00  0.00    +0.000 C 
ENDBRANCH   5   7
ENDBRANCH   3   5
BRANCH   1  17
ATOM     17  C   UNL     1       1.393   6.999  21.200  0.00  0.00    +0.000 C 
BRANCH  17  24
ATOM     18  C   UNL     1       0.047   9.737  21.074  0.00  0.00    +0.000 C 
ATOM     19  C   UNL     1       0.934   9.216  19.976  0.00  0.00    +0.000 A 
ATOM     20  C   UNL     1       1.142  10.039  18.853  0.00  0.00    +0.000 A 
ATOM     21  C   UNL     1       1.940   9.622  17.789  0.00  0.00    +0.000 A 
ATOM     22  C   UNL     1       2.544   8.374  17.831  0.00  0.00    +0.000 A 
ATOM     23  C   UNL     1       2.360   7.551  18.942  0.00  0.00    +0.000 A 
ATOM     24  C   UNL     1       1.574   7.959  20.039  0.00  0.00    +0.000 A 
ENDBRANCH  17  24
ENDBRANCH   1  17
TORSDOF 4
ENDMDL
MODEL 6
REMARK VINA RESULT:      -7.3      3.756      7.727
REMARK  Name = 
REMARK  6 active torsions:
REMARK  status: ('A' for Active; 'I' for Inactive)
REMARK    1  A    between atoms: C_1  and  C_2
REMARK    2  A    between atoms: C_7  and  C_8
REMARK    3  A    between atoms: C_8  and  C_9
REMARK    4  A    between atoms: N_11  and  C_12
REMARK    5  A    between atoms: C_12  and  C_13
REMARK    6  A    between atoms: C_12  and  C_14
REMARK                            x       y       z     vdW  Elec       q    Type
REMARK                         _______ _______ _______ _____ _____    ______ ____
ROOT
ATOM      1  C   UNL     1       1.963   8.141  18.884  0.00  0.00    +0.000 C 
ATOM      2  O   UNL     1       1.687   8.022  20.081  0.00  0.00    +0.000 OA
ATOM      3  N   UNL     1       2.487   7.099  18.152  0.00  0.00    +0.000 N 
ATOM      4  H   UNL     1       2.643   7.183  17.153  0.00  0.00    +0.000 HD
ENDROOT
BRANCH   3   5
ATOM      5  C   UNL     1       2.660   5.791  18.757  0.00  0.00    +0.000 C 
ATOM      6  C   UNL     1       1.881   4.718  17.997  0.00  0.00    +0.000 C 
BRANCH   5   7
ATOM      7  C   UNL     1       4.117   5.447  18.813  0.00  0.00    +0.000 A 
ATOM      8  N   UNL     1       4.858   5.321  19.895  0.00  0.00    +0.000 NA
ATOM      9  N   UNL     1       6.144   5.044  19.500  0.00  0.00    +0.000 NA
ATOM     10  C   UNL     1       6.180   5.002  18.184  0.00  0.00    +0.000 A 
ATOM     11  N   UNL     1       4.914   5.245  17.706  0.00  0.00    +0.000 N 
ATOM     12  C   UNL     1       4.490   5.287  16.320  0.00  0.00    +0.000 C 
ATOM     13  C   UNL     1       5.472   5.993  15.396  0.00  0.00    +0.000 C 
ATOM     14  C   UNL     1       6.639   5.114  14.951  0.00  0.00    +0.000 C 
ATOM     15  C   UNL     1       7.166   4.136  16.003  0.00  0.00    +0.000 C 
ATOM     16  C   UNL     1       7.410   4.776  17.366  0.00  0.00    +0.000 C 
ENDBRANCH   5   7
ENDBRANCH   3   5
BRANCH   1  17
ATOM     17  C   UNL     1       1.775   9.455  18.140  0.00  0.00    +0.000 C 
BRANCH  17  24
ATOM     18  C   UNL     1       1.254  11.653  20.195  0.00  0.00    +0.000 C 
ATOM     19  C   UNL     1       0.173  11.099  19.307  0.00  0.00    +0.000 A 
ATOM     20  C   UNL     1      -1.124  11.627  19.442  0.00  0.00    +0.000 A 
ATOM     21  C   UNL     1      -2.181  11.156  18.665  0.00  0.00    +0.000 A 
ATOM     22  C   UNL     1      -1.956  10.148  17.739  0.00  0.00    +0.000 A 
ATOM     23  C   UNL     1      -0.674   9.622  17.582  0.00  0.00    +0.000 A 
ATOM     24  C   UNL     1       0.414  10.096  18.342  0.00  0.00    +0.000 A 
ENDBRANCH  17  24
ENDBRANCH   1  17
TORSDOF 4
ENDMDL
MODEL 7
REMARK VINA RESULT:      -7.2      1.904      7.308
REMARK  Name = 
REMARK  6 active torsions:
REMARK  status: ('A' for Active; 'I' for Inactive)
REMARK    1  A    between atoms: C_1  and  C_2
REMARK    2  A    between atoms: C_7  and  C_8
REMARK    3  A    between atoms: C_8  and  C_9
REMARK    4  A    between atoms: N_11  and  C_12
REMARK    5  A    between atoms: C_12  and  C_13
REMARK    6  A    between atoms: C_12  and  C_14
REMARK                            x       y       z     vdW  Elec       q    Type
REMARK                         _______ _______ _______ _____ _____    ______ ____
ROOT
ATOM      1  C   UNL     1       4.054   4.271  17.267  0.00  0.00    +0.000 C 
ATOM      2  O   UNL     1       3.448   5.328  17.462  0.00  0.00    +0.000 OA
ATOM      3  N   UNL     1       5.284   4.241  16.648  0.00  0.00    +0.000 N 
ATOM      4  H   UNL     1       5.806   3.377  16.556  0.00  0.00    +0.000 HD
ENDROOT
BRANCH   3   5
ATOM      5  C   UNL     1       5.946   5.477  16.271  0.00  0.00    +0.000 C 
ATOM      6  C   UNL     1       6.824   6.006  17.404  0.00  0.00    +0.000 C 
BRANCH   5   7
ATOM      7  C   UNL     1       6.756   5.261  15.030  0.00  0.00    +0.000 A 
ATOM      8  N   UNL     1       7.910   5.822  14.731  0.00  0.00    +0.000 NA
ATOM      9  N   UNL     1       8.285   5.385  13.485  0.00  0.00    +0.000 NA
ATOM     10  C   UNL     1       7.361   4.563  13.030  0.00  0.00    +0.000 A 
ATOM     11  N   UNL     1       6.375   4.449  13.982  0.00  0.00    +0.000 N 
ATOM     12  C   UNL     1       5.172   3.643  13.909  0.00  0.00    +0.000 C 
ATOM     13  C   UNL     1       4.493   3.671  12.547  0.00  0.00    +0.000 C 
ATOM     14  C   UNL     1       5.120   2.720  11.529  0.00  0.00    +0.000 C 
ATOM     15  C   UNL     1       6.641   2.578  11.609  0.00  0.00    +0.000 C 
ATOM     16  C   UNL     1       7.377   3.912  11.685  0.00  0.00    +0.000 C 
ENDBRANCH   5   7
ENDBRANCH   3   5
BRANCH   1  17
ATOM     17  C   UNL     1       3.471   2.922  17.665  0.00  0.00    +0.000 C 
BRANCH  17  24
ATOM     18  C   UNL     1       4.773   2.090  20.299  0.00  0.00    +0.000 C 
ATOM     19  C   UNL     1       3.336   2.526  20.206  0.00  0.00    +0.000 A 
ATOM     20  C   UNL     1       2.576   2.547  21.390  0.00  0.00    +0.000 A 
ATOM     21  C   UNL     1       1.235   2.925  21.383  0.00  0.00    +0.000 A 
ATOM     22  C   UNL     1       0.632   3.291  20.188  0.00  0.00    +0.000 A 
ATOM     23  C   UNL     1       1.373   3.291  19.007  0.00  0.00    +0.000 A 
ATOM     24  C   UNL     1       2.736   2.930  18.993  0.00  0.00    +0.000 A 
ENDBRANCH  17  24
ENDBRANCH   1  17
TORSDOF 4
ENDMDL
MODEL 8
REMARK VINA RESULT:      -7.2      3.222      6.893
REMARK  Name = 
REMARK  6 active torsions:
REMARK  status: ('A' for Active; 'I' for Inactive)
REMARK    1  A    between atoms: C_1  and  C_2
REMARK    2  A    between atoms: C_7  and  C_8
REMARK    3  A    between atoms: C_8  and  C_9
REMARK    4  A    between atoms: N_11  and  C_12
REMARK    5  A    between atoms: C_12  and  C_13
REMARK    6  A    between atoms: C_12  and  C_14
REMARK                            x       y       z     vdW  Elec       q    Type
REMARK                         _______ _______ _______ _____ _____    ______ ____
ROOT
ATOM      1  C   UNL     1       2.380   8.119  17.782  0.00  0.00    +0.000 C 
ATOM      2  O   UNL     1       1.439   7.455  17.340  0.00  0.00    +0.000 OA
ATOM      3  N   UNL     1       3.678   7.663  17.730  0.00  0.00    +0.000 N 
ATOM      4  H   UNL     1       4.454   8.245  18.030  0.00  0.00    +0.000 HD
ENDROOT
BRANCH   3   5
ATOM      5  C   UNL     1       3.989   6.405  17.076  0.00  0.00    +0.000 C 
ATOM      6  C   UNL     1       5.106   6.573  16.047  0.00  0.00    +0.000 C 
BRANCH   5   7
ATOM      7  C   UNL     1       4.364   5.379  18.101  0.00  0.00    +0.000 A 
ATOM      8  N   UNL     1       5.572   5.122  18.559  0.00  0.00    +0.000 NA
ATOM      9  N   UNL     1       5.479   4.082  19.450  0.00  0.00    +0.000 NA
ATOM     10  C   UNL     1       4.217   3.709  19.530  0.00  0.00    +0.000 A 
ATOM     11  N   UNL     1       3.473   4.510  18.697  0.00  0.00    +0.000 N 
ATOM     12  C   UNL     1       2.041   4.460  18.477  0.00  0.00    +0.000 C 
ATOM     13  C   UNL     1       1.482   3.048  18.375  0.00  0.00    +0.000 C 
ATOM     14  C   UNL     1       1.238   2.385  19.729  0.00  0.00    +0.000 C 
ATOM     15  C   UNL     1       2.261   2.711  20.817  0.00  0.00    +0.000 C 
ATOM     16  C   UNL     1       3.709   2.573  20.357  0.00  0.00    +0.000 C 
ENDBRANCH   5   7
ENDBRANCH   3   5
BRANCH   1  17
ATOM     17  C   UNL     1       2.171   9.473  18.446  0.00  0.00    +0.000 C 
BRANCH  17  24
ATOM     18  C   UNL     1      -0.006  11.549  18.968  0.00  0.00    +0.000 C 
ATOM     19  C   UNL     1       0.272  10.409  19.910  0.00  0.00    +0.000 A 
ATOM     20  C   UNL     1      -0.515  10.310  21.073  0.00  0.00    +0.000 A 
ATOM     21  C   UNL     1      -0.309   9.290  22.000  0.00  0.00    +0.000 A 
ATOM     22  C   UNL     1       0.687   8.351  21.778  0.00  0.00    +0.000 A 
ATOM     23  C   UNL     1       1.467   8.425  20.624  0.00  0.00    +0.000 A 
ATOM     24  C   UNL     1       1.264   9.435  19.662  0.00  0.00    +0.000 A 
ENDBRANCH  17  24
ENDBRANCH   1  17
TORSDOF 4
ENDMDL
MODEL 9
REMARK VINA RESULT:      -7.0      4.332      8.156
REMARK  Name = 
REMARK  6 active torsions:
REMARK  status: ('A' for Active; 'I' for Inactive)
REMARK    1  A    between atoms: C_1  and  C_2
REMARK    2  A    between atoms: C_7  and  C_8
REMARK    3  A    between atoms: C_8  and  C_9
REMARK    4  A    between atoms: N_11  and  C_12
REMARK    5  A    between atoms: C_12  and  C_13
REMARK    6  A    between atoms: C_12  and  C_14
REMARK                            x       y       z     vdW  Elec       q    Type
REMARK                         _______ _______ _______ _____ _____    ______ ____
ROOT
ATOM      1  C   UNL     1       1.111   9.521  18.549  0.00  0.00    +0.000 C 
ATOM      2  O   UNL     1       0.346   9.216  17.630  0.00  0.00    +0.000 OA
ATOM      3  N   UNL     1       2.114   8.676  18.970  0.00  0.00    +0.000 N 
ATOM      4  H   UNL     1       2.783   8.963  19.677  0.00  0.00    +0.000 HD
ENDROOT
BRANCH   3   5
ATOM      5  C   UNL     1       2.351   7.419  18.284  0.00  0.00    +0.000 C 
ATOM      6  C   UNL     1       3.735   7.390  17.637  0.00  0.00    +0.000 C 
BRANCH   5   7
ATOM      7  C   UNL     1       2.192   6.280  19.243  0.00  0.00    +0.000 A 
ATOM      8  N   UNL     1       2.014   6.361  20.546  0.00  0.00    +0.000 NA
ATOM      9  N   UNL     1       1.959   5.084  21.049  0.00  0.00    +0.000 NA
ATOM     10  C   UNL     1       2.105   4.233  20.053  0.00  0.00    +0.000 A 
ATOM     11  N   UNL     1       2.248   4.948  18.888  0.00  0.00    +0.000 N 
ATOM     12  C   UNL     1       2.425   4.420  17.549  0.00  0.00    +0.000 C 
ATOM     13  C   UNL     1       3.372   3.230  17.476  0.00  0.00    +0.000 C 
ATOM     14  C   UNL     1       2.718   1.901  17.849  0.00  0.00    +0.000 C 
ATOM     15  C   UNL     1       1.680   1.969  18.971  0.00  0.00    +0.000 C 
ATOM     16  C   UNL     1       2.152   2.747  20.195  0.00  0.00    +0.000 C 
ENDBRANCH   5   7
ENDBRANCH   3   5
BRANCH   1  17
ATOM     17  C   UNL     1       0.981  10.835  19.305  0.00  0.00    +0.000 C 
BRANCH  17  24
ATOM     18  C   UNL     1      -0.072  13.242  20.863  0.00  0.00    +0.000 C 
ATOM     19  C   UNL     1      -0.186  11.831  21.373  0.00  0.00    +0.000 A 
ATOM     20  C   UNL     1      -0.808  11.631  22.620  0.00  0.00    +0.000 A 
ATOM     21  C   UNL     1      -0.939  10.356  23.166  0.00  0.00    +0.000 A 
ATOM     22  C   UNL     1      -0.451   9.258  22.472  0.00  0.00    +0.000 A 
ATOM     23  C   UNL     1       0.155   9.436  21.229  0.00  0.00    +0.000 A 
ATOM     24  C   UNL     1       0.282  10.714  20.647  0.00  0.00    +0.000 A 
ENDBRANCH  17  24
ENDBRANCH   1  17
TORSDOF 4
ENDMDL
