MODEL 1
REMARK VINA RESULT:      -8.7      0.000      0.000
REMARK  Name = 
REMARK  7 active torsions:
REMARK  status: ('A' for Active; 'I' for Inactive)
REMARK    1  A    between atoms: C_1  and  O_2
REMARK    2  A    between atoms: O_2  and  C_3
REMARK    3  A    between atoms: C_5  and  N_6
REMARK    4  A    between atoms: N_6  and  C_7
REMARK    5  A    between atoms: CA_14  and  C_15
REMARK    6  A    between atoms: C_15  and  OXT_17
REMARK    7  A    between atoms: C_21  and  C_22
REMARK                            x       y       z     vdW  Elec       q    Type
REMARK                         _______ _______ _______ _____ _____    ______ ____
ROOT
ATOM      1  C   UNL     1       2.781   3.561  18.107  0.00  0.00    +0.000 A 
ATOM      2  C   UNL     1       2.480   2.263  18.597  0.00  0.00    +0.000 A 
ATOM      3  C   UNL     1       1.849   2.037  19.815  0.00  0.00    +0.000 A 
ATOM      4  C   UNL     1       1.480   3.115  20.597  0.00  0.00    +0.000 A 
ATOM      5  F   UNL     1       0.883   2.918  21.777  0.00  0.00    +0.000 F 
ATOM      6  C   UNL     1       1.738   4.399  20.130  0.00  0.00    +0.000 A 
ATOM      7  N   UNL     1       1.463   5.594  20.735  0.00  0.00    +0.000 N 
ATOM      8  CA  UNL     1       1.885   6.656  19.966  0.00  0.00    +0.000 A 
ATOM      9  C   UNL     1       2.446   6.097  18.825  0.00  0.00    +0.000 A 
ATOM     10  C   UNL     1       2.364   4.663  18.911  0.00  0.00    +0.000 A 
ATOM     11  H   UNL     1       1.020   5.697  21.643  0.00  0.00    +0.000 HD
ENDROOT
BRANCH   1  12
ATOM     12  N   UNL     1       3.453   3.679  16.867  0.00  0.00    +0.000 N 
ATOM     13  H   UNL     1       2.874   3.675  16.039  0.00  0.00    +0.000 HD
BRANCH  12  16
ATOM     14  C   UNL     1       6.628   4.665  15.143  0.00  0.00    +0.000 A 
ATOM     15  C   UNL     1       5.364   4.117  15.375  0.00  0.00    +0.000 A 
ATOM     16  C   UNL     1       4.807   4.035  16.662  0.00  0.00    +0.000 A 
ATOM     17  C   UNL     1       5.583   4.466  17.740  0.00  0.00    +0.000 A 
ATOM     18  C   UNL     1       6.852   5.038  17.531  0.00  0.00    +0.000 A 
ATOM     19  C   UNL     1       7.368   5.133  16.225  0.00  0.00    +0.000 A 
BRANCH  18  20
ATOM     20  C   UNL     1       7.643   5.616  18.679  0.00  0.00    +0.000 C 
ATOM     21  F   UNL     1       8.721   4.865  19.032  0.00  0.00    +0.000 F 
ATOM     22  F   UNL     1       8.123   6.860  18.407  0.00  0.00    +0.000 F 
ATOM     23  F   UNL     1       6.892   5.745  19.808  0.00  0.00    +0.000 F 
ENDBRANCH  18  20
BRANCH  14  25
ATOM     24  C   UNL     1       6.385   3.794  12.939  0.00  0.00    +0.000 C 
ATOM     25  O   UNL     1       6.996   4.720  13.828  0.00  0.00    +0.000 OA
ENDBRANCH  14  25
ENDBRANCH  12  16
ENDBRANCH   1  12
BRANCH   8  26
ATOM     26  C   UNL     1       1.683   8.000  20.461  0.00  0.00    +0.000 C 
ATOM     27  O   UNL     1       1.386   8.950  19.750  0.00  0.00    +0.000 OA
BRANCH  26  28
ATOM     28  OXT UNL     1       1.856   8.121  21.796  0.00  0.00    +0.000 OA
ATOM     29  HXT UNL     1       2.427   8.865  22.042  0.00  0.00    +0.000 HD
ENDBRANCH  26  28
ENDBRANCH   8  26
TORSDOF 6
ENDMDL
MODEL 2
REMARK VINA RESULT:      -8.3      3.329      5.027
REMARK  Name = 
REMARK  7 active torsions:
REMARK  status: ('A' for Active; 'I' for Inactive)
REMARK    1  A    between atoms: C_1  and  O_2
REMARK    2  A    between atoms: O_2  and  C_3
REMARK    3  A    between atoms: C_5  and  N_6
REMARK    4  A    between atoms: N_6  and  C_7
REMARK    5  A    between atoms: CA_14  and  C_15
REMARK    6  A    between atoms: C_15  and  OXT_17
REMARK    7  A    between atoms: C_21  and  C_22
REMARK                            x       y       z     vdW  Elec       q    Type
REMARK                         _______ _______ _______ _____ _____    ______ ____
ROOT
ATOM      1  C   UNL     1       2.203   7.733  19.386  0.00  0.00    +0.000 A 
ATOM      2  C   UNL     1       2.182   8.128  18.022  0.00  0.00    +0.000 A 
ATOM      3  C   UNL     1       1.408   9.180  17.548  0.00  0.00    +0.000 A 
ATOM      4  C   UNL     1       0.621   9.895  18.430  0.00  0.00    +0.000 A 
ATOM      5  F   UNL     1      -0.140  10.903  17.991  0.00  0.00    +0.000 F 
ATOM      6  C   UNL     1       0.642   9.547  19.776  0.00  0.00    +0.000 A 
ATOM      7  N   UNL     1      -0.052  10.112  20.811  0.00  0.00    +0.000 N 
ATOM      8  CA  UNL     1       0.221   9.480  22.003  0.00  0.00    +0.000 A 
ATOM      9  C   UNL     1       1.132   8.476  21.701  0.00  0.00    +0.000 A 
ATOM     10  C   UNL     1       1.411   8.501  20.289  0.00  0.00    +0.000 A 
ATOM     11  H   UNL     1      -0.701  10.887  20.719  0.00  0.00    +0.000 HD
ENDROOT
BRANCH   1  12
ATOM     12  N   UNL     1       3.004   6.627  19.759  0.00  0.00    +0.000 N 
ATOM     13  H   UNL     1       3.200   6.526  20.746  0.00  0.00    +0.000 HD
BRANCH  12  16
ATOM     14  C   UNL     1       2.750   3.445  17.801  0.00  0.00    +0.000 A 
ATOM     15  C   UNL     1       2.499   4.435  18.755  0.00  0.00    +0.000 A 
ATOM     16  C   UNL     1       3.365   5.524  18.950  0.00  0.00    +0.000 A 
ATOM     17  C   UNL     1       4.541   5.569  18.199  0.00  0.00    +0.000 A 
ATOM     18  C   UNL     1       4.808   4.593  17.220  0.00  0.00    +0.000 A 
ATOM     19  C   UNL     1       3.904   3.531  17.028  0.00  0.00    +0.000 A 
BRANCH  18  20
ATOM     20  C   UNL     1       6.016   4.703  16.322  0.00  0.00    +0.000 C 
ATOM     21  F   UNL     1       6.301   5.979  15.943  0.00  0.00    +0.000 F 
ATOM     22  F   UNL     1       7.146   4.223  16.908  0.00  0.00    +0.000 F 
ATOM     23  F   UNL     1       5.865   3.996  15.167  0.00  0.00    +0.000 F 
ENDBRANCH  18  20
BRANCH  14  25
ATOM     24  C   UNL     1       0.805   2.434  18.734  0.00  0.00    +0.000 C 
ATOM     25  O   UNL     1       1.780   2.487  17.700  0.00  0.00    +0.000 OA
ENDBRANCH  14  25
ENDBRANCH  12  16
ENDBRANCH   1  12
BRANCH   8  26
ATOM     26  C   UNL     1      -0.438   9.943  23.206  0.00  0.00    +0.000 C 
ATOM     27  O   UNL     1      -1.364  10.741  23.211  0.00  0.00    +0.000 OA
BRANCH  26  28
ATOM     28  OXT UNL     1       0.067   9.412  24.342  0.00  0.00    +0.000 OA
ATOM     29  HXT UNL     1       0.230   8.459  24.280  0.00  0.00    +0.000 HD
ENDBRANCH  26  28
ENDBRANCH   8  26
TORSDOF 6
ENDMDL
MODEL 3
REMARK VINA RESULT:      -8.3      3.230      6.501
REMARK  Name = 
REMARK  7 active torsions:
REMARK  status: ('A' for Active; 'I' for Inactive)
REMARK    1  A    between atoms: C_1  and  O_2
REMARK    2  A    between atoms: O_2  and  C_3
REMARK    3  A    between atoms: C_5  and  N_6
REMARK    4  A    between atoms: N_6  and  C_7
REMARK    5  A    between atoms: CA_14  and  C_15
REMARK    6  A    between atoms: C_15  and  OXT_17
REMARK    7  A    between atoms: C_21  and  C_22
REMARK                            x       y       z     vdW  Elec       q    Type
REMARK                         _______ _______ _______ _____ _____    ______ ____
ROOT
ATOM      1  C   UNL     1       5.014   4.039  16.312  0.00  0.00    +0.000 A 
ATOM      2  C   UNL     1       5.103   3.440  15.027  0.00  0.00    +0.000 A 
ATOM      3  C   UNL     1       6.026   3.837  14.066  0.00  0.00    +0.000 A 
ATOM      4  C   UNL     1       6.914   4.854  14.359  0.00  0.00    +0.000 A 
ATOM      5  F   UNL     1       7.802   5.258  13.444  0.00  0.00    +0.000 F 
ATOM      6  C   UNL     1       6.867   5.441  15.618  0.00  0.00    +0.000 A 
ATOM      7  N   UNL     1       7.641   6.454  16.114  0.00  0.00    +0.000 N 
ATOM      8  CA  UNL     1       7.284   6.775  17.404  0.00  0.00    +0.000 A 
ATOM      9  C   UNL     1       6.240   5.920  17.732  0.00  0.00    +0.000 A 
ATOM     10  C   UNL     1       5.958   5.065  16.609  0.00  0.00    +0.000 A 
ATOM     11  H   UNL     1       8.377   6.927  15.598  0.00  0.00    +0.000 HD
ENDROOT
BRANCH   1  12
ATOM     12  N   UNL     1       4.017   3.580  17.206  0.00  0.00    +0.000 N 
ATOM     13  H   UNL     1       3.952   2.579  17.332  0.00  0.00    +0.000 HD
BRANCH  12  16
ATOM     14  C   UNL     1       2.392   4.729  20.378  0.00  0.00    +0.000 A 
ATOM     15  C   UNL     1       2.951   3.897  19.404  0.00  0.00    +0.000 A 
ATOM     16  C   UNL     1       3.262   4.359  18.114  0.00  0.00    +0.000 A 
ATOM     17  C   UNL     1       2.939   5.679  17.795  0.00  0.00    +0.000 A 
ATOM     18  C   UNL     1       2.393   6.542  18.764  0.00  0.00    +0.000 A 
ATOM     19  C   UNL     1       2.121   6.055  20.057  0.00  0.00    +0.000 A 
BRANCH  18  20
ATOM     20  C   UNL     1       2.156   8.001  18.462  0.00  0.00    +0.000 C 
ATOM     21  F   UNL     1       3.262   8.651  18.008  0.00  0.00    +0.000 F 
ATOM     22  F   UNL     1       1.194   8.188  17.517  0.00  0.00    +0.000 F 
ATOM     23  F   UNL     1       1.740   8.693  19.559  0.00  0.00    +0.000 F 
ENDBRANCH  18  20
BRANCH  14  25
ATOM     24  C   UNL     1       1.697   2.809  21.606  0.00  0.00    +0.000 C 
ATOM     25  O   UNL     1       2.204   4.137  21.596  0.00  0.00    +0.000 OA
ENDBRANCH  14  25
ENDBRANCH  12  16
ENDBRANCH   1  12
BRANCH   8  26
ATOM     26  C   UNL     1       7.996   7.837  18.082  0.00  0.00    +0.000 C 
ATOM     27  O   UNL     1       7.983   9.005  17.720  0.00  0.00    +0.000 OA
BRANCH  26  28
ATOM     28  OXT UNL     1       8.690   7.422  19.165  0.00  0.00    +0.000 OA
ATOM     29  HXT UNL     1       9.151   6.581  19.025  0.00  0.00    +0.000 HD
ENDBRANCH  26  28
ENDBRANCH   8  26
TORSDOF 6
ENDMDL
MODEL 4
REMARK VINA RESULT:      -8.2      3.215      6.933
REMARK  Name = 
REMARK  7 active torsions:
REMARK  status: ('A' for Active; 'I' for Inactive)
REMARK    1  A    between atoms: C_1  and  O_2
REMARK    2  A    between atoms: O_2  and  C_3
REMARK    3  A    between atoms: C_5  and  N_6
REMARK    4  A    between atoms: N_6  and  C_7
REMARK    5  A    between atoms: CA_14  and  C_15
REMARK    6  A    between atoms: C_15  and  OXT_17
REMARK    7  A    between atoms: C_21  and  C_22
REMARK                            x       y       z     vdW  Elec       q    Type
REMARK                         _______ _______ _______ _____ _____    ______ ____
ROOT
ATOM      1  C   UNL     1       2.337   4.894  20.170  0.00  0.00    +0.000 A 
ATOM      2  C   UNL     1       1.269   3.976  19.986  0.00  0.00    +0.000 A 
ATOM      3  C   UNL     1       1.324   2.917  19.086  0.00  0.00    +0.000 A 
ATOM      4  C   UNL     1       2.466   2.727  18.333  0.00  0.00    +0.000 A 
ATOM      5  F   UNL     1       2.533   1.722  17.453  0.00  0.00    +0.000 F 
ATOM      6  C   UNL     1       3.537   3.595  18.511  0.00  0.00    +0.000 A 
ATOM      7  N   UNL     1       4.749   3.591  17.876  0.00  0.00    +0.000 N 
ATOM      8  CA  UNL     1       5.548   4.624  18.313  0.00  0.00    +0.000 A 
ATOM      9  C   UNL     1       4.803   5.302  19.270  0.00  0.00    +0.000 A 
ATOM     10  C   UNL     1       3.520   4.663  19.409  0.00  0.00    +0.000 A 
ATOM     11  H   UNL     1       5.027   2.927  17.160  0.00  0.00    +0.000 HD
ENDROOT
BRANCH   1  12
ATOM     12  N   UNL     1       2.167   5.955  21.091  0.00  0.00    +0.000 N 
ATOM     13  H   UNL     1       2.611   5.844  21.993  0.00  0.00    +0.000 HD
BRANCH  12  16
ATOM     14  C   UNL     1       0.906   9.442  21.618  0.00  0.00    +0.000 A 
ATOM     15  C   UNL     1       1.219   8.099  21.848  0.00  0.00    +0.000 A 
ATOM     16  C   UNL     1       1.652   7.244  20.820  0.00  0.00    +0.000 A 
ATOM     17  C   UNL     1       1.706   7.755  19.522  0.00  0.00    +0.000 A 
ATOM     18  C   UNL     1       1.413   9.109  19.268  0.00  0.00    +0.000 A 
ATOM     19  C   UNL     1       1.012   9.947  20.326  0.00  0.00    +0.000 A 
BRANCH  18  20
ATOM     20  C   UNL     1       1.588   9.697  17.889  0.00  0.00    +0.000 C 
ATOM     21  F   UNL     1       2.253  10.884  17.881  0.00  0.00    +0.000 F 
ATOM     22  F   UNL     1       2.278   8.873  17.055  0.00  0.00    +0.000 F 
ATOM     23  F   UNL     1       0.395   9.934  17.275  0.00  0.00    +0.000 F 
ENDBRANCH  18  20
BRANCH  14  25
ATOM     24  C   UNL     1      -0.806  10.101  23.138  0.00  0.00    +0.000 C 
ATOM     25  O   UNL     1       0.557  10.148  22.735  0.00  0.00    +0.000 OA
ENDBRANCH  14  25
ENDBRANCH  12  16
ENDBRANCH   1  12
BRANCH   8  26
ATOM     26  C   UNL     1       6.867   4.778  17.737  0.00  0.00    +0.000 C 
ATOM     27  O   UNL     1       7.891   4.359  18.258  0.00  0.00    +0.000 OA
BRANCH  26  28
ATOM     28  OXT UNL     1       6.872   5.438  16.558  0.00  0.00    +0.000 OA
ATOM     29  HXT UNL     1       7.490   6.184  16.539  0.00  0.00    +0.000 HD
ENDBRANCH  26  28
ENDBRANCH   8  26
TORSDOF 6
ENDMDL
MODEL 5
REMARK VINA RESULT:      -8.2      3.351      7.148
REMARK  Name = 
REMARK  7 active torsions:
REMARK  status: ('A' for Active; 'I' for Inactive)
REMARK    1  A    between atoms: C_1  and  O_2
REMARK    2  A    between atoms: O_2  and  C_3
REMARK    3  A    between atoms: C_5  and  N_6
REMARK    4  A    between atoms: N_6  and  C_7
REMARK    5  A    between atoms: CA_14  and  C_15
REMARK    6  A    between atoms: C_15  and  OXT_17
REMARK    7  A    between atoms: C_21  and  C_22
REMARK                            x       y       z     vdW  Elec       q    Type
REMARK                         _______ _______ _______ _____ _____    ______ ____
ROOT
ATOM      1  C   UNL     1       2.802   5.026  19.792  0.00  0.00    +0.000 A 
ATOM      2  C   UNL     1       1.728   4.099  19.717  0.00  0.00    +0.000 A 
ATOM      3  C   UNL     1       1.737   2.993  18.875  0.00  0.00    +0.000 A 
ATOM      4  C   UNL     1       2.836   2.760  18.073  0.00  0.00    +0.000 A 
ATOM      5  F   UNL     1       2.858   1.708  17.248  0.00  0.00    +0.000 F 
ATOM      6  C   UNL     1       3.914   3.636  18.145  0.00  0.00    +0.000 A 
ATOM      7  N   UNL     1       5.089   3.598  17.445  0.00  0.00    +0.000 N 
ATOM      8  CA  UNL     1       5.908   4.652  17.781  0.00  0.00    +0.000 A 
ATOM      9  C   UNL     1       5.215   5.382  18.738  0.00  0.00    +0.000 A 
ATOM     10  C   UNL     1       3.943   4.753  18.982  0.00  0.00    +0.000 A 
ATOM     11  H   UNL     1       5.329   2.895  16.753  0.00  0.00    +0.000 HD
ENDROOT
BRANCH   1  12
ATOM     12  N   UNL     1       2.680   6.136  20.661  0.00  0.00    +0.000 N 
ATOM     13  H   UNL     1       3.416   6.257  21.344  0.00  0.00    +0.000 HD
BRANCH  12  16
ATOM     14  C   UNL     1       0.156   8.757  21.548  0.00  0.00    +0.000 A 
ATOM     15  C   UNL     1       0.897   7.572  21.571  0.00  0.00    +0.000 A 
ATOM     16  C   UNL     1       1.780   7.221  20.537  0.00  0.00    +0.000 A 
ATOM     17  C   UNL     1       1.861   8.066  19.429  0.00  0.00    +0.000 A 
ATOM     18  C   UNL     1       1.139   9.275  19.390  0.00  0.00    +0.000 A 
ATOM     19  C   UNL     1       0.285   9.611  20.458  0.00  0.00    +0.000 A 
BRANCH  18  20
ATOM     20  C   UNL     1       1.316  10.250  18.253  0.00  0.00    +0.000 C 
ATOM     21  F   UNL     1       0.142  10.660  17.697  0.00  0.00    +0.000 F 
ATOM     22  F   UNL     1       1.967  11.383  18.633  0.00  0.00    +0.000 F 
ATOM     23  F   UNL     1       2.048   9.724  17.232  0.00  0.00    +0.000 F 
ENDBRANCH  18  20
BRANCH  14  25
ATOM     24  C   UNL     1      -0.831  10.323  23.048  0.00  0.00    +0.000 C 
ATOM     25  O   UNL     1      -0.612   8.974  22.659  0.00  0.00    +0.000 OA
ENDBRANCH  14  25
ENDBRANCH  12  16
ENDBRANCH   1  12
BRANCH   8  26
ATOM     26  C   UNL     1       7.193   4.773  17.127  0.00  0.00    +0.000 C 
ATOM     27  O   UNL     1       7.404   5.504  16.169  0.00  0.00    +0.000 OA
BRANCH  26  28
ATOM     28  OXT UNL     1       8.156   3.996  17.670  0.00  0.00    +0.000 OA
ATOM     29  HXT UNL     1       8.934   4.495  17.961  0.00  0.00    +0.000 HD
ENDBRANCH  26  28
ENDBRANCH   8  26
TORSDOF 6
ENDMDL
MODEL 6
REMARK VINA RESULT:      -8.2      2.917      3.655
REMARK  Name = 
REMARK  7 active torsions:
REMARK  status: ('A' for Active; 'I' for Inactive)
REMARK    1  A    between atoms: C_1  and  O_2
REMARK    2  A    between atoms: O_2  and  C_3
REMARK    3  A    between atoms: C_5  and  N_6
REMARK    4  A    between atoms: N_6  and  C_7
REMARK    5  A    between atoms: CA_14  and  C_15
REMARK    6  A    between atoms: C_15  and  OXT_17
REMARK    7  A    between atoms: C_21  and  C_22
REMARK                            x       y       z     vdW  Elec       q    Type
REMARK                         _______ _______ _______ _____ _____    ______ ____
ROOT
ATOM      1  C   UNL     1       3.974   3.320  18.271  0.00  0.00    +0.000 A 
ATOM      2  C   UNL     1       3.881   2.392  19.341  0.00  0.00    +0.000 A 
ATOM      3  C   UNL     1       3.296   2.700  20.565  0.00  0.00    +0.000 A 
ATOM      4  C   UNL     1       2.767   3.959  20.766  0.00  0.00    +0.000 A 
ATOM      5  F   UNL     1       2.211   4.278  21.939  0.00  0.00    +0.000 F 
ATOM      6  C   UNL     1       2.820   4.880  19.725  0.00  0.00    +0.000 A 
ATOM      7  N   UNL     1       2.364   6.170  19.708  0.00  0.00    +0.000 N 
ATOM      8  CA  UNL     1       2.613   6.774  18.496  0.00  0.00    +0.000 A 
ATOM      9  C   UNL     1       3.251   5.816  17.718  0.00  0.00    +0.000 A 
ATOM     10  C   UNL     1       3.393   4.605  18.483  0.00  0.00    +0.000 A 
ATOM     11  H   UNL     1       1.914   6.637  20.489  0.00  0.00    +0.000 HD
ENDROOT
BRANCH   1  12
ATOM     12  N   UNL     1       4.616   2.915  17.076  0.00  0.00    +0.000 N 
ATOM     13  H   UNL     1       4.414   1.979  16.752  0.00  0.00    +0.000 HD
BRANCH  12  16
ATOM     14  C   UNL     1       7.015   5.455  15.728  0.00  0.00    +0.000 A 
ATOM     15  C   UNL     1       6.160   4.774  16.599  0.00  0.00    +0.000 A 
ATOM     16  C   UNL     1       5.317   3.738  16.164  0.00  0.00    +0.000 A 
ATOM     17  C   UNL     1       5.303   3.433  14.801  0.00  0.00    +0.000 A 
ATOM     18  C   UNL     1       6.168   4.092  13.907  0.00  0.00    +0.000 A 
ATOM     19  C   UNL     1       7.022   5.106  14.381  0.00  0.00    +0.000 A 
BRANCH  18  20
ATOM     20  C   UNL     1       6.245   3.684  12.456  0.00  0.00    +0.000 C 
ATOM     21  F   UNL     1       5.055   3.766  11.801  0.00  0.00    +0.000 F 
ATOM     22  F   UNL     1       7.120   4.446  11.746  0.00  0.00    +0.000 F 
ATOM     23  F   UNL     1       6.665   2.396  12.306  0.00  0.00    +0.000 F 
ENDBRANCH  18  20
BRANCH  14  25
ATOM     24  C   UNL     1       7.337   6.977  17.533  0.00  0.00    +0.000 C 
ATOM     25  O   UNL     1       7.808   6.396  16.323  0.00  0.00    +0.000 OA
ENDBRANCH  14  25
ENDBRANCH  12  16
ENDBRANCH   1  12
BRANCH   8  26
ATOM     26  C   UNL     1       2.205   8.149  18.304  0.00  0.00    +0.000 C 
ATOM     27  O   UNL     1       2.414   8.786  17.282  0.00  0.00    +0.000 OA
BRANCH  26  28
ATOM     28  OXT UNL     1       1.566   8.681  19.370  0.00  0.00    +0.000 OA
ATOM     29  HXT UNL     1       2.160   8.903  20.102  0.00  0.00    +0.000 HD
ENDBRANCH  26  28
ENDBRANCH   8  26
TORSDOF 6
ENDMDL
MODEL 7
REMARK VINA RESULT:      -8.1      2.698      3.370
REMARK  Name = 
REMARK  7 active torsions:
REMARK  status: ('A' for Active; 'I' for Inactive)
REMARK    1  A    between atoms: C_1  and  O_2
REMARK    2  A    between atoms: O_2  and  C_3
REMARK    3  A    between atoms: C_5  and  N_6
REMARK    4  A    between atoms: N_6  and  C_7
REMARK    5  A    between atoms: CA_14  and  C_15
REMARK    6  A    between atoms: C_15  and  OXT_17
REMARK    7  A    between atoms: C_21  and  C_22
REMARK                            x       y       z     vdW  Elec       q    Type
REMARK                         _______ _______ _______ _____ _____    ______ ____
ROOT
ATOM      1  C   UNL     1       3.838   3.191  18.431  0.00  0.00    +0.000 A 
ATOM      2  C   UNL     1       3.156   1.946  18.450  0.00  0.00    +0.000 A 
ATOM      3  C   UNL     1       1.870   1.792  18.954  0.00  0.00    +0.000 A 
ATOM      4  C   UNL     1       1.203   2.892  19.457  0.00  0.00    +0.000 A 
ATOM      5  F   UNL     1      -0.031   2.762  19.957  0.00  0.00    +0.000 F 
ATOM      6  C   UNL     1       1.836   4.129  19.427  0.00  0.00    +0.000 A 
ATOM      7  N   UNL     1       1.367   5.335  19.870  0.00  0.00    +0.000 N 
ATOM      8  CA  UNL     1       2.295   6.335  19.684  0.00  0.00    +0.000 A 
ATOM      9  C   UNL     1       3.395   5.726  19.093  0.00  0.00    +0.000 A 
ATOM     10  C   UNL     1       3.124   4.322  18.924  0.00  0.00    +0.000 A 
ATOM     11  H   UNL     1       0.457   5.482  20.297  0.00  0.00    +0.000 HD
ENDROOT
BRANCH   1  12
ATOM     12  N   UNL     1       5.159   3.233  17.923  0.00  0.00    +0.000 N 
ATOM     13  H   UNL     1       5.785   2.505  18.236  0.00  0.00    +0.000 HD
BRANCH  12  16
ATOM     14  C   UNL     1       7.086   5.831  16.035  0.00  0.00    +0.000 A 
ATOM     15  C   UNL     1       6.439   5.161  17.077  0.00  0.00    +0.000 A 
ATOM     16  C   UNL     1       5.636   4.030  16.855  0.00  0.00    +0.000 A 
ATOM     17  C   UNL     1       5.441   3.613  15.537  0.00  0.00    +0.000 A 
ATOM     18  C   UNL     1       6.097   4.260  14.472  0.00  0.00    +0.000 A 
ATOM     19  C   UNL     1       6.919   5.373  14.733  0.00  0.00    +0.000 A 
BRANCH  18  20
ATOM     20  C   UNL     1       5.987   3.740  13.060  0.00  0.00    +0.000 C 
ATOM     21  F   UNL     1       6.765   4.413  12.168  0.00  0.00    +0.000 F 
ATOM     22  F   UNL     1       6.344   2.431  12.957  0.00  0.00    +0.000 F 
ATOM     23  F   UNL     1       4.715   3.819  12.579  0.00  0.00    +0.000 F 
ENDBRANCH  18  20
BRANCH  14  25
ATOM     24  C   UNL     1       7.407   7.674  17.511  0.00  0.00    +0.000 C 
ATOM     25  O   UNL     1       7.873   6.877  16.430  0.00  0.00    +0.000 OA
ENDBRANCH  14  25
ENDBRANCH  12  16
ENDBRANCH   1  12
BRANCH   8  26
ATOM     26  C   UNL     1       1.967   7.680  20.106  0.00  0.00    +0.000 C 
ATOM     27  O   UNL     1       1.821   8.619  19.336  0.00  0.00    +0.000 OA
BRANCH  26  28
ATOM     28  OXT UNL     1       1.838   7.814  21.445  0.00  0.00    +0.000 OA
ATOM     29  HXT UNL     1       2.565   7.410  21.942  0.00  0.00    +0.000 HD
ENDBRANCH  26  28
ENDBRANCH   8  26
TORSDOF 6
ENDMDL
MODEL 8
REMARK VINA RESULT:      -8.1      3.357      7.205
REMARK  Name = 
REMARK  7 active torsions:
REMARK  status: ('A' for Active; 'I' for Inactive)
REMARK    1  A    between atoms: C_1  and  O_2
REMARK    2  A    between atoms: O_2  and  C_3
REMARK    3  A    between atoms: C_5  and  N_6
REMARK    4  A    between atoms: N_6  and  C_7
REMARK    5  A    between atoms: CA_14  and  C_15
REMARK    6  A    between atoms: C_15  and  OXT_17
REMARK    7  A    between atoms: C_21  and  C_22
REMARK                            x       y       z     vdW  Elec       q    Type
REMARK                         _______ _______ _______ _____ _____    ______ ____
ROOT
ATOM      1  C   UNL     1       2.958   6.573  18.814  0.00  0.00    +0.000 A 
ATOM      2  C   UNL     1       2.104   5.943  19.758  0.00  0.00    +0.000 A 
ATOM      3  C   UNL     1       2.346   4.676  20.274  0.00  0.00    +0.000 A 
ATOM      4  C   UNL     1       3.470   3.982  19.870  0.00  0.00    +0.000 A 
ATOM      5  F   UNL     1       3.714   2.757  20.346  0.00  0.00    +0.000 F 
ATOM      6  C   UNL     1       4.338   4.585  18.967  0.00  0.00    +0.000 A 
ATOM      7  N   UNL     1       5.495   4.084  18.436  0.00  0.00    +0.000 N 
ATOM      8  CA  UNL     1       6.073   4.975  17.560  0.00  0.00    +0.000 A 
ATOM      9  C   UNL     1       5.241   6.087  17.545  0.00  0.00    +0.000 A 
ATOM     10  C   UNL     1       4.131   5.858  18.432  0.00  0.00    +0.000 A 
ATOM     11  H   UNL     1       5.879   3.166  18.643  0.00  0.00    +0.000 HD
ENDROOT
BRANCH   1  12
ATOM     12  N   UNL     1       2.604   7.854  18.328  0.00  0.00    +0.000 N 
ATOM     13  H   UNL     1       2.933   8.092  17.402  0.00  0.00    +0.000 HD
BRANCH  12  16
ATOM     14  C   UNL     1      -0.321  10.175  18.620  0.00  0.00    +0.000 A 
ATOM     15  C   UNL     1       0.752   9.459  18.080  0.00  0.00    +0.000 A 
ATOM     16  C   UNL     1       1.655   8.744  18.884  0.00  0.00    +0.000 A 
ATOM     17  C   UNL     1       1.495   8.812  20.269  0.00  0.00    +0.000 A 
ATOM     18  C   UNL     1       0.412   9.512  20.836  0.00  0.00    +0.000 A 
ATOM     19  C   UNL     1      -0.493  10.193  20.000  0.00  0.00    +0.000 A 
BRANCH  18  20
ATOM     20  C   UNL     1       0.164   9.488  22.324  0.00  0.00    +0.000 C 
ATOM     21  F   UNL     1      -0.187  10.698  22.839  0.00  0.00    +0.000 F 
ATOM     22  F   UNL     1      -0.829   8.627  22.674  0.00  0.00    +0.000 F 
ATOM     23  F   UNL     1       1.265   9.091  23.023  0.00  0.00    +0.000 F 
ENDBRANCH  18  20
BRANCH  14  25
ATOM     24  C   UNL     1      -1.977   9.918  16.926  0.00  0.00    +0.000 C 
ATOM     25  O   UNL     1      -1.136  10.768  17.696  0.00  0.00    +0.000 OA
ENDBRANCH  14  25
ENDBRANCH  12  16
ENDBRANCH   1  12
BRANCH   8  26
ATOM     26  C   UNL     1       7.304   4.602  16.896  0.00  0.00    +0.000 C 
ATOM     27  O   UNL     1       7.510   4.764  15.701  0.00  0.00    +0.000 OA
BRANCH  26  28
ATOM     28  OXT UNL     1       8.221   4.048  17.720  0.00  0.00    +0.000 OA
ATOM     29  HXT UNL     1       8.021   3.129  17.952  0.00  0.00    +0.000 HD
ENDBRANCH  26  28
ENDBRANCH   8  26
TORSDOF 6
ENDMDL
MODEL 9
REMARK VINA RESULT:      -8.1      2.582      3.343
REMARK  Name = 
REMARK  7 active torsions:
REMARK  status: ('A' for Active; 'I' for Inactive)
REMARK    1  A    between atoms: C_1  and  O_2
REMARK    2  A    between atoms: O_2  and  C_3
REMARK    3  A    between atoms: C_5  and  N_6
REMARK    4  A    between atoms: N_6  and  C_7
REMARK    5  A    between atoms: CA_14  and  C_15
REMARK    6  A    between atoms: C_15  and  OXT_17
REMARK    7  A    between atoms: C_21  and  C_22
REMARK                            x       y       z     vdW  Elec       q    Type
REMARK                         _______ _______ _______ _____ _____    ______ ____
ROOT
ATOM      1  C   UNL     1       3.140   3.656  18.261  0.00  0.00    +0.000 A 
ATOM      2  C   UNL     1       3.259   2.433  18.972  0.00  0.00    +0.000 A 
ATOM      3  C   UNL     1       3.010   2.319  20.335  0.00  0.00    +0.000 A 
ATOM      4  C   UNL     1       2.619   3.435  21.048  0.00  0.00    +0.000 A 
ATOM      5  F   UNL     1       2.386   3.349  22.362  0.00  0.00    +0.000 F 
ATOM      6  C   UNL     1       2.468   4.641  20.372  0.00  0.00    +0.000 A 
ATOM      7  N   UNL     1       2.096   5.857  20.876  0.00  0.00    +0.000 N 
ATOM      8  CA  UNL     1       2.075   6.823  19.895  0.00  0.00    +0.000 A 
ATOM      9  C   UNL     1       2.447   6.179  18.721  0.00  0.00    +0.000 A 
ATOM     10  C   UNL     1       2.703   4.791  19.005  0.00  0.00    +0.000 A 
ATOM     11  H   UNL     1       1.877   6.039  21.851  0.00  0.00    +0.000 HD
ENDROOT
BRANCH   1  12
ATOM     12  N   UNL     1       3.446   3.669  16.879  0.00  0.00    +0.000 N 
ATOM     13  H   UNL     1       2.680   3.482  16.246  0.00  0.00    +0.000 HD
BRANCH  12  16
ATOM     14  C   UNL     1       6.946   4.940  16.476  0.00  0.00    +0.000 A 
ATOM     15  C   UNL     1       5.694   4.667  17.033  0.00  0.00    +0.000 A 
ATOM     16  C   UNL     1       4.635   4.140  16.274  0.00  0.00    +0.000 A 
ATOM     17  C   UNL     1       4.842   3.947  14.906  0.00  0.00    +0.000 A 
ATOM     18  C   UNL     1       6.101   4.197  14.326  0.00  0.00    +0.000 A 
ATOM     19  C   UNL     1       7.149   4.696  15.122  0.00  0.00    +0.000 A 
BRANCH  18  20
ATOM     20  C   UNL     1       6.366   3.875  12.876  0.00  0.00    +0.000 C 
ATOM     21  F   UNL     1       7.333   4.649  12.312  0.00  0.00    +0.000 F 
ATOM     22  F   UNL     1       6.761   2.586  12.692  0.00  0.00    +0.000 F 
ATOM     23  F   UNL     1       5.258   4.039  12.101  0.00  0.00    +0.000 F 
ENDBRANCH  18  20
BRANCH  14  25
ATOM     24  C   UNL     1       7.476   5.542  18.720  0.00  0.00    +0.000 C 
ATOM     25  O   UNL     1       7.880   5.395  17.365  0.00  0.00    +0.000 OA
ENDBRANCH  14  25
ENDBRANCH  12  16
ENDBRANCH   1  12
BRANCH   8  26
ATOM     26  C   UNL     1       1.711   8.176  20.254  0.00  0.00    +0.000 C 
ATOM     27  O   UNL     1       1.435   9.047  19.441  0.00  0.00    +0.000 OA
BRANCH  26  28
ATOM     28  OXT UNL     1       1.706   8.403  21.587  0.00  0.00    +0.000 OA
ATOM     29  HXT UNL     1       1.526   9.326  21.818  0.00  0.00    +0.000 HD
ENDBRANCH  26  28
ENDBRANCH   8  26
TORSDOF 6
ENDMDL
