MODEL 1
REMARK VINA RESULT:      -6.2      0.000      0.000
REMARK  Name = 
REMARK  5 active torsions:
REMARK  status: ('A' for Active; 'I' for Inactive)
REMARK    1  A    between atoms: C_1  and  S_2
REMARK    2  A    between atoms: S_2  and  C_3
REMARK    3  A    between atoms: C_5  and  C_6
REMARK    4  A    between atoms: C_10  and  C_11
REMARK    5  A    between atoms: N_15  and  C_16
REMARK                            x       y       z     vdW  Elec       q    Type
REMARK                         _______ _______ _______ _____ _____    ______ ____
ROOT
ATOM      1  C   UNL     1      -2.153  13.236  20.685  0.00  0.00    +0.000 A 
ATOM      2  C   UNL     1      -2.185  14.462  21.288  0.00  0.00    +0.000 A 
ATOM      3  S   UNL     1      -3.766  15.117  21.193  0.00  0.00    +0.000 S 
ATOM      4  C   UNL     1      -4.308  13.683  20.401  0.00  0.00    +0.000 A 
ATOM      5  N   UNL     1      -5.604  13.536  20.059  0.00  0.00    +0.000 N 
ATOM      6  N   UNL     1      -3.353  12.788  20.188  0.00  0.00    +0.000 NA
ATOM      7  H   UNL     1      -5.923  14.174  19.328  0.00  0.00    +0.000 HD
ENDROOT
BRANCH   5   8
ATOM      8  C   UNL     1      -6.245  12.263  19.987  0.00  0.00    +0.000 A 
ATOM      9  C   UNL     1      -6.975  11.714  21.068  0.00  0.00    +0.000 A 
ATOM     10 CL   UNL     1      -7.296  12.557  22.553  0.00  0.00    +0.000 Cl
ATOM     11  C   UNL     1      -7.551  10.445  20.977  0.00  0.00    +0.000 A 
ATOM     12  C   UNL     1      -7.460   9.707  19.802  0.00  0.00    +0.000 A 
ATOM     13  C   UNL     1      -6.796  10.244  18.701  0.00  0.00    +0.000 A 
ATOM     14  C   UNL     1      -6.200  11.508  18.791  0.00  0.00    +0.000 A 
ATOM     15 CL   UNL     1      -5.369  12.103  17.392  0.00  0.00    +0.000 Cl
ENDBRANCH   5   8
BRANCH   1  20
ATOM     16  C   UNL     1      -0.481  11.423  21.369  0.00  0.00    +0.000 A 
ATOM     17  S   UNL     1       0.901  10.642  20.721  0.00  0.00    +0.000 S 
ATOM     18  C   UNL     1       0.828  11.529  19.259  0.00  0.00    +0.000 A 
ATOM     19  C   UNL     1      -0.202  12.442  19.288  0.00  0.00    +0.000 A 
ATOM     20  C   UNL     1      -0.972  12.376  20.491  0.00  0.00    +0.000 A 
BRANCH  18  21
ATOM     21  C   UNL     1       1.771  11.276  18.174  0.00  0.00    +0.000 C 
ATOM     22  N   UNL     1       1.875  10.110  17.623  0.00  0.00    +0.000 NA
ATOM     23  N   UNL     1       2.608  12.231  17.668  0.00  0.00    +0.000 N 
ATOM     24  H   UNL     1       1.199   9.467  18.060  0.00  0.00    +0.000 HD
ATOM     25  H   UNL     1       2.909  12.962  18.293  0.00  0.00    +0.000 HD
ATOM     26  H   UNL     1       3.355  11.815  17.122  0.00  0.00    +0.000 HD
ENDBRANCH  18  21
BRANCH  16  28
ATOM     27  C   UNL     1      -0.063   9.512  23.292  0.00  0.00    +0.000 C 
ATOM     28  S   UNL     1      -1.110  10.949  22.944  0.00  0.00    +0.000 S 
ENDBRANCH  16  28
ENDBRANCH   1  20
TORSDOF 4
ENDMDL
MODEL 2
REMARK VINA RESULT:      -6.2      2.863      3.884
REMARK  Name = 
REMARK  5 active torsions:
REMARK  status: ('A' for Active; 'I' for Inactive)
REMARK    1  A    between atoms: C_1  and  S_2
REMARK    2  A    between atoms: S_2  and  C_3
REMARK    3  A    between atoms: C_5  and  C_6
REMARK    4  A    between atoms: C_10  and  C_11
REMARK    5  A    between atoms: N_15  and  C_16
REMARK                            x       y       z     vdW  Elec       q    Type
REMARK                         _______ _______ _______ _____ _____    ______ ____
ROOT
ATOM      1  C   UNL     1      -2.342  11.259  18.303  0.00  0.00    +0.000 A 
ATOM      2  C   UNL     1      -2.240  11.310  16.941  0.00  0.00    +0.000 A 
ATOM      3  S   UNL     1      -3.785  11.090  16.232  0.00  0.00    +0.000 S 
ATOM      4  C   UNL     1      -4.489  11.001  17.804  0.00  0.00    +0.000 A 
ATOM      5  N   UNL     1      -5.823  10.859  17.952  0.00  0.00    +0.000 N 
ATOM      6  N   UNL     1      -3.614  11.091  18.796  0.00  0.00    +0.000 NA
ATOM      7  H   UNL     1      -6.190   9.962  17.632  0.00  0.00    +0.000 HD
ENDROOT
BRANCH   5   8
ATOM      8  C   UNL     1      -6.533  11.367  19.081  0.00  0.00    +0.000 A 
ATOM      9  C   UNL     1      -6.734  12.752  19.295  0.00  0.00    +0.000 A 
ATOM     10 CL   UNL     1      -6.269  13.989  18.168  0.00  0.00    +0.000 Cl
ATOM     11  C   UNL     1      -7.397  13.215  20.434  0.00  0.00    +0.000 A 
ATOM     12  C   UNL     1      -7.916  12.322  21.365  0.00  0.00    +0.000 A 
ATOM     13  C   UNL     1      -7.783  10.951  21.153  0.00  0.00    +0.000 A 
ATOM     14  C   UNL     1      -7.104  10.479  20.023  0.00  0.00    +0.000 A 
ATOM     15 CL   UNL     1      -6.954   8.764  19.836  0.00  0.00    +0.000 Cl
ENDBRANCH   5   8
BRANCH   1  20
ATOM     16  C   UNL     1      -0.383  12.404  19.487  0.00  0.00    +0.000 A 
ATOM     17  S   UNL     1       0.737  12.059  20.740  0.00  0.00    +0.000 S 
ATOM     18  C   UNL     1       0.065  10.513  21.038  0.00  0.00    +0.000 A 
ATOM     19  C   UNL     1      -0.962  10.245  20.161  0.00  0.00    +0.000 A 
ATOM     20  C   UNL     1      -1.239  11.335  19.277  0.00  0.00    +0.000 A 
BRANCH  18  21
ATOM     21  C   UNL     1       0.575   9.663  22.109  0.00  0.00    +0.000 C 
ATOM     22  N   UNL     1       0.189   9.812  23.336  0.00  0.00    +0.000 NA
ATOM     23  N   UNL     1       1.485   8.664  21.908  0.00  0.00    +0.000 N 
ATOM     24  H   UNL     1      -0.503  10.574  23.384  0.00  0.00    +0.000 HD
ATOM     25  H   UNL     1       2.138   8.780  21.148  0.00  0.00    +0.000 HD
ATOM     26  H   UNL     1       1.909   8.370  22.780  0.00  0.00    +0.000 HD
ENDBRANCH  18  21
BRANCH  16  28
ATOM     27  C   UNL     1       0.200  15.025  20.046  0.00  0.00    +0.000 C 
ATOM     28  S   UNL     1      -0.360  13.970  18.683  0.00  0.00    +0.000 S 
ENDBRANCH  16  28
ENDBRANCH   1  20
TORSDOF 4
ENDMDL
MODEL 3
REMARK VINA RESULT:      -6.1      2.772      3.712
REMARK  Name = 
REMARK  5 active torsions:
REMARK  status: ('A' for Active; 'I' for Inactive)
REMARK    1  A    between atoms: C_1  and  S_2
REMARK    2  A    between atoms: S_2  and  C_3
REMARK    3  A    between atoms: C_5  and  C_6
REMARK    4  A    between atoms: C_10  and  C_11
REMARK    5  A    between atoms: N_15  and  C_16
REMARK                            x       y       z     vdW  Elec       q    Type
REMARK                         _______ _______ _______ _____ _____    ______ ____
ROOT
ATOM      1  C   UNL     1      -2.546  11.048  18.029  0.00  0.00    +0.000 A 
ATOM      2  C   UNL     1      -2.434  11.121  16.669  0.00  0.00    +0.000 A 
ATOM      3  S   UNL     1      -3.993  11.136  15.956  0.00  0.00    +0.000 S 
ATOM      4  C   UNL     1      -4.707  11.103  17.526  0.00  0.00    +0.000 A 
ATOM      5  N   UNL     1      -6.047  11.143  17.672  0.00  0.00    +0.000 N 
ATOM      6  N   UNL     1      -3.829  11.045  18.519  0.00  0.00    +0.000 NA
ATOM      7  H   UNL     1      -6.534  10.314  17.329  0.00  0.00    +0.000 HD
ENDROOT
BRANCH   5   8
ATOM      8  C   UNL     1      -6.683  11.715  18.815  0.00  0.00    +0.000 A 
ATOM      9  C   UNL     1      -6.912  13.106  18.945  0.00  0.00    +0.000 A 
ATOM     10 CL   UNL     1      -6.577  14.267  17.698  0.00  0.00    +0.000 Cl
ATOM     11  C   UNL     1      -7.498  13.634  20.097  0.00  0.00    +0.000 A 
ATOM     12  C   UNL     1      -7.913  12.799  21.128  0.00  0.00    +0.000 A 
ATOM     13  C   UNL     1      -7.752  11.420  21.006  0.00  0.00    +0.000 A 
ATOM     14  C   UNL     1      -7.150  10.884  19.861  0.00  0.00    +0.000 A 
ATOM     15 CL   UNL     1      -6.958   9.164  19.787  0.00  0.00    +0.000 Cl
ENDBRANCH   5   8
BRANCH   1  20
ATOM     16  C   UNL     1      -1.078  11.885  19.951  0.00  0.00    +0.000 A 
ATOM     17  S   UNL     1       0.247  11.331  20.889  0.00  0.00    +0.000 S 
ATOM     18  C   UNL     1       0.311   9.826  20.073  0.00  0.00    +0.000 A 
ATOM     19  C   UNL     1      -0.629   9.771  19.069  0.00  0.00    +0.000 A 
ATOM     20  C   UNL     1      -1.445  10.944  19.003  0.00  0.00    +0.000 A 
BRANCH  18  21
ATOM     21  C   UNL     1       1.265   8.795  20.467  0.00  0.00    +0.000 C 
ATOM     22  N   UNL     1       1.924   8.109  19.590  0.00  0.00    +0.000 NA
ATOM     23  N   UNL     1       1.530   8.474  21.769  0.00  0.00    +0.000 N 
ATOM     24  H   UNL     1       1.668   8.431  18.645  0.00  0.00    +0.000 HD
ATOM     25  H   UNL     1       0.788   8.604  22.438  0.00  0.00    +0.000 HD
ATOM     26  H   UNL     1       2.003   7.579  21.839  0.00  0.00    +0.000 HD
ENDBRANCH  18  21
BRANCH  16  28
ATOM     27  C   UNL     1      -0.638  14.541  19.427  0.00  0.00    +0.000 C 
ATOM     28  S   UNL     1      -1.806  13.453  20.285  0.00  0.00    +0.000 S 
ENDBRANCH  16  28
ENDBRANCH   1  20
TORSDOF 4
ENDMDL
MODEL 4
REMARK VINA RESULT:      -6.1      1.929      2.830
REMARK  Name = 
REMARK  5 active torsions:
REMARK  status: ('A' for Active; 'I' for Inactive)
REMARK    1  A    between atoms: C_1  and  S_2
REMARK    2  A    between atoms: S_2  and  C_3
REMARK    3  A    between atoms: C_5  and  C_6
REMARK    4  A    between atoms: C_10  and  C_11
REMARK    5  A    between atoms: N_15  and  C_16
REMARK                            x       y       z     vdW  Elec       q    Type
REMARK                         _______ _______ _______ _____ _____    ______ ____
ROOT
ATOM      1  C   UNL     1      -2.681  13.154  20.790  0.00  0.00    +0.000 A 
ATOM      2  C   UNL     1      -2.823  14.456  21.182  0.00  0.00    +0.000 A 
ATOM      3  S   UNL     1      -4.438  14.970  20.921  0.00  0.00    +0.000 S 
ATOM      4  C   UNL     1      -4.844  13.391  20.357  0.00  0.00    +0.000 A 
ATOM      5  N   UNL     1      -6.110  13.096  19.995  0.00  0.00    +0.000 N 
ATOM      6  N   UNL     1      -3.823  12.546  20.330  0.00  0.00    +0.000 NA
ATOM      7  H   UNL     1      -6.434  13.583  19.158  0.00  0.00    +0.000 HD
ENDROOT
BRANCH   5   8
ATOM      8  C   UNL     1      -6.661  11.784  20.110  0.00  0.00    +0.000 A 
ATOM      9  C   UNL     1      -7.429  11.375  21.227  0.00  0.00    +0.000 A 
ATOM     10 CL   UNL     1      -7.907  12.432  22.519  0.00  0.00    +0.000 Cl
ATOM     11  C   UNL     1      -7.915  10.069  21.326  0.00  0.00    +0.000 A 
ATOM     12  C   UNL     1      -7.693   9.151  20.306  0.00  0.00    +0.000 A 
ATOM     13  C   UNL     1      -6.989   9.540  19.169  0.00  0.00    +0.000 A 
ATOM     14  C   UNL     1      -6.483  10.842  19.070  0.00  0.00    +0.000 A 
ATOM     15 CL   UNL     1      -5.594  11.251  17.640  0.00  0.00    +0.000 Cl
ENDBRANCH   5   8
BRANCH   1  20
ATOM     16  C   UNL     1      -0.370  12.491  19.912  0.00  0.00    +0.000 A 
ATOM     17  S   UNL     1       0.876  11.376  20.293  0.00  0.00    +0.000 S 
ATOM     18  C   UNL     1       0.026  10.751  21.642  0.00  0.00    +0.000 A 
ATOM     19  C   UNL     1      -1.208  11.347  21.766  0.00  0.00    +0.000 A 
ATOM     20  C   UNL     1      -1.438  12.363  20.785  0.00  0.00    +0.000 A 
BRANCH  18  21
ATOM     21  C   UNL     1       0.618   9.726  22.497  0.00  0.00    +0.000 C 
ATOM     22  N   UNL     1       0.301   9.619  23.747  0.00  0.00    +0.000 NA
ATOM     23  N   UNL     1       1.539   8.819  22.055  0.00  0.00    +0.000 N 
ATOM     24  H   UNL     1      -0.405  10.332  23.980  0.00  0.00    +0.000 HD
ATOM     25  H   UNL     1       2.143   9.103  21.299  0.00  0.00    +0.000 HD
ATOM     26  H   UNL     1       2.020   8.375  22.829  0.00  0.00    +0.000 HD
ENDBRANCH  18  21
BRANCH  16  28
ATOM     27  C   UNL     1       1.367  14.443  19.077  0.00  0.00    +0.000 C 
ATOM     28  S   UNL     1      -0.169  13.623  18.578  0.00  0.00    +0.000 S 
ENDBRANCH  16  28
ENDBRANCH   1  20
TORSDOF 4
ENDMDL
MODEL 5
REMARK VINA RESULT:      -6.0      5.730      8.662
REMARK  Name = 
REMARK  5 active torsions:
REMARK  status: ('A' for Active; 'I' for Inactive)
REMARK    1  A    between atoms: C_1  and  S_2
REMARK    2  A    between atoms: S_2  and  C_3
REMARK    3  A    between atoms: C_5  and  C_6
REMARK    4  A    between atoms: C_10  and  C_11
REMARK    5  A    between atoms: N_15  and  C_16
REMARK                            x       y       z     vdW  Elec       q    Type
REMARK                         _______ _______ _______ _____ _____    ______ ____
ROOT
ATOM      1  C   UNL     1       2.072   8.358  18.458  0.00  0.00    +0.000 A 
ATOM      2  C   UNL     1       3.057   8.701  17.575  0.00  0.00    +0.000 A 
ATOM      3  S   UNL     1       4.173   7.410  17.416  0.00  0.00    +0.000 S 
ATOM      4  C   UNL     1       3.222   6.461  18.499  0.00  0.00    +0.000 A 
ATOM      5  N   UNL     1       3.575   5.192  18.791  0.00  0.00    +0.000 N 
ATOM      6  N   UNL     1       2.158   7.090  18.978  0.00  0.00    +0.000 NA
ATOM      7  H   UNL     1       4.441   5.107  19.324  0.00  0.00    +0.000 HD
ENDROOT
BRANCH   5   8
ATOM      8  C   UNL     1       2.624   4.185  19.132  0.00  0.00    +0.000 A 
ATOM      9  C   UNL     1       2.048   4.084  20.422  0.00  0.00    +0.000 A 
ATOM     10 CL   UNL     1       2.317   5.231  21.698  0.00  0.00    +0.000 Cl
ATOM     11  C   UNL     1       1.153   3.059  20.732  0.00  0.00    +0.000 A 
ATOM     12  C   UNL     1       0.770   2.135  19.766  0.00  0.00    +0.000 A 
ATOM     13  C   UNL     1       1.275   2.241  18.472  0.00  0.00    +0.000 A 
ATOM     14  C   UNL     1       2.187   3.256  18.158  0.00  0.00    +0.000 A 
ATOM     15 CL   UNL     1       2.796   3.313  16.537  0.00  0.00    +0.000 Cl
ENDBRANCH   5   8
BRANCH   1  20
ATOM     16  C   UNL     1       0.617   9.488  20.236  0.00  0.00    +0.000 A 
ATOM     17  S   UNL     1      -0.727  10.551  20.308  0.00  0.00    +0.000 S 
ATOM     18  C   UNL     1      -0.827  10.684  18.604  0.00  0.00    +0.000 A 
ATOM     19  C   UNL     1       0.116   9.889  17.991  0.00  0.00    +0.000 A 
ATOM     20  C   UNL     1       0.964   9.211  18.923  0.00  0.00    +0.000 A 
BRANCH  18  21
ATOM     21  C   UNL     1      -1.811  11.557  17.972  0.00  0.00    +0.000 C 
ATOM     22  N   UNL     1      -2.587  12.323  18.670  0.00  0.00    +0.000 NA
ATOM     23  N   UNL     1      -1.991  11.632  16.620  0.00  0.00    +0.000 N 
ATOM     24  H   UNL     1      -2.367  12.207  19.670  0.00  0.00    +0.000 HD
ATOM     25  H   UNL     1      -1.789  10.805  16.079  0.00  0.00    +0.000 HD
ATOM     26  H   UNL     1      -2.872  12.077  16.389  0.00  0.00    +0.000 HD
ENDBRANCH  18  21
BRANCH  16  28
ATOM     27  C   UNL     1       0.161   9.466  22.941  0.00  0.00    +0.000 C 
ATOM     28  S   UNL     1       1.386   8.928  21.718  0.00  0.00    +0.000 S 
ENDBRANCH  16  28
ENDBRANCH   1  20
TORSDOF 4
ENDMDL
MODEL 6
REMARK VINA RESULT:      -5.9      3.173      6.570
REMARK  Name = 
REMARK  5 active torsions:
REMARK  status: ('A' for Active; 'I' for Inactive)
REMARK    1  A    between atoms: C_1  and  S_2
REMARK    2  A    between atoms: S_2  and  C_3
REMARK    3  A    between atoms: C_5  and  C_6
REMARK    4  A    between atoms: C_10  and  C_11
REMARK    5  A    between atoms: N_15  and  C_16
REMARK                            x       y       z     vdW  Elec       q    Type
REMARK                         _______ _______ _______ _____ _____    ______ ____
ROOT
ATOM      1  C   UNL     1      -2.852  13.518  21.116  0.00  0.00    +0.000 A 
ATOM      2  C   UNL     1      -2.489  14.822  21.305  0.00  0.00    +0.000 A 
ATOM      3  S   UNL     1      -0.791  14.930  21.519  0.00  0.00    +0.000 S 
ATOM      4  C   UNL     1      -0.658  13.226  21.283  0.00  0.00    +0.000 A 
ATOM      5  N   UNL     1       0.549  12.624  21.291  0.00  0.00    +0.000 N 
ATOM      6  N   UNL     1      -1.819  12.613  21.096  0.00  0.00    +0.000 NA
ATOM      7  H   UNL     1       1.019  12.632  22.197  0.00  0.00    +0.000 HD
ENDROOT
BRANCH   5   8
ATOM      8  C   UNL     1       0.827  11.441  20.544  0.00  0.00    +0.000 A 
ATOM      9  C   UNL     1       0.711  10.143  21.098  0.00  0.00    +0.000 A 
ATOM     10 CL   UNL     1       0.099   9.818  22.691  0.00  0.00    +0.000 Cl
ATOM     11  C   UNL     1       1.034   9.009  20.350  0.00  0.00    +0.000 A 
ATOM     12  C   UNL     1       1.435   9.125  19.024  0.00  0.00    +0.000 A 
ATOM     13  C   UNL     1       1.505  10.385  18.432  0.00  0.00    +0.000 A 
ATOM     14  C   UNL     1       1.200  11.528  19.182  0.00  0.00    +0.000 A 
ATOM     15 CL   UNL     1       1.333  13.064  18.391  0.00  0.00    +0.000 Cl
ENDBRANCH   5   8
BRANCH   1  20
ATOM     16  C   UNL     1      -5.249  13.066  21.890  0.00  0.00    +0.000 A 
ATOM     17  S   UNL     1      -6.679  12.344  21.280  0.00  0.00    +0.000 S 
ATOM     18  C   UNL     1      -5.956  11.973  19.773  0.00  0.00    +0.000 A 
ATOM     19  C   UNL     1      -4.631  12.347  19.757  0.00  0.00    +0.000 A 
ATOM     20  C   UNL     1      -4.220  12.994  20.964  0.00  0.00    +0.000 A 
BRANCH  18  21
ATOM     21  C   UNL     1      -6.725  11.348  18.701  0.00  0.00    +0.000 C 
ATOM     22  N   UNL     1      -7.220  10.159  18.824  0.00  0.00    +0.000 NA
ATOM     23  N   UNL     1      -6.974  11.956  17.503  0.00  0.00    +0.000 N 
ATOM     24  H   UNL     1      -6.993   9.792  19.760  0.00  0.00    +0.000 HD
ATOM     25  H   UNL     1      -6.291  12.617  17.168  0.00  0.00    +0.000 HD
ATOM     26  H   UNL     1      -7.282  11.286  16.806  0.00  0.00    +0.000 HD
ENDBRANCH  18  21
BRANCH  16  28
ATOM     27  C   UNL     1      -4.349  12.534  24.426  0.00  0.00    +0.000 C 
ATOM     28  S   UNL     1      -5.240  13.803  23.490  0.00  0.00    +0.000 S 
ENDBRANCH  16  28
ENDBRANCH   1  20
TORSDOF 4
ENDMDL
MODEL 7
REMARK VINA RESULT:      -5.9      5.007      6.811
REMARK  Name = 
REMARK  5 active torsions:
REMARK  status: ('A' for Active; 'I' for Inactive)
REMARK    1  A    between atoms: C_1  and  S_2
REMARK    2  A    between atoms: S_2  and  C_3
REMARK    3  A    between atoms: C_5  and  C_6
REMARK    4  A    between atoms: C_10  and  C_11
REMARK    5  A    between atoms: N_15  and  C_16
REMARK                            x       y       z     vdW  Elec       q    Type
REMARK                         _______ _______ _______ _____ _____    ______ ____
ROOT
ATOM      1  C   UNL     1       2.417  14.359  19.223  0.00  0.00    +0.000 A 
ATOM      2  C   UNL     1       1.424  15.268  18.986  0.00  0.00    +0.000 A 
ATOM      3  S   UNL     1      -0.079  14.460  18.822  0.00  0.00    +0.000 S 
ATOM      4  C   UNL     1       0.701  12.954  19.139  0.00  0.00    +0.000 A 
ATOM      5  N   UNL     1      -0.012  11.810  19.197  0.00  0.00    +0.000 N 
ATOM      6  N   UNL     1       2.011  13.050  19.317  0.00  0.00    +0.000 NA
ATOM      7  H   UNL     1      -0.419  11.521  18.307  0.00  0.00    +0.000 HD
ENDROOT
BRANCH   5   8
ATOM      8  C   UNL     1       0.373  10.700  20.006  0.00  0.00    +0.000 A 
ATOM      9  C   UNL     1       1.050   9.572  19.481  0.00  0.00    +0.000 A 
ATOM     10 CL   UNL     1       1.609   9.450  17.842  0.00  0.00    +0.000 Cl
ATOM     11  C   UNL     1       1.373   8.484  20.295  0.00  0.00    +0.000 A 
ATOM     12  C   UNL     1       1.077   8.502  21.653  0.00  0.00    +0.000 A 
ATOM     13  C   UNL     1       0.462   9.621  22.210  0.00  0.00    +0.000 A 
ATOM     14  C   UNL     1       0.119  10.709  21.398  0.00  0.00    +0.000 A 
ATOM     15 CL   UNL     1      -0.668  12.056  22.152  0.00  0.00    +0.000 Cl
ENDBRANCH   5   8
BRANCH   1  20
ATOM     16  C   UNL     1       4.527  15.055  20.493  0.00  0.00    +0.000 A 
ATOM     17  S   UNL     1       6.206  15.230  20.193  0.00  0.00    +0.000 S 
ATOM     18  C   UNL     1       6.061  14.711  18.568  0.00  0.00    +0.000 A 
ATOM     19  C   UNL     1       4.746  14.459  18.247  0.00  0.00    +0.000 A 
ATOM     20  C   UNL     1       3.858  14.637  19.355  0.00  0.00    +0.000 A 
BRANCH  18  21
ATOM     21  C   UNL     1       7.235  14.575  17.712  0.00  0.00    +0.000 C 
ATOM     22  N   UNL     1       7.541  13.449  17.152  0.00  0.00    +0.000 NA
ATOM     23  N   UNL     1       8.091  15.605  17.441  0.00  0.00    +0.000 N 
ATOM     24  H   UNL     1       6.833  12.742  17.403  0.00  0.00    +0.000 HD
ATOM     25  H   UNL     1       8.194  16.318  18.146  0.00  0.00    +0.000 HD
ATOM     26  H   UNL     1       8.967  15.266  17.060  0.00  0.00    +0.000 HD
ENDBRANCH  18  21
BRANCH  16  28
ATOM     27  C   UNL     1       5.176  14.621  23.123  0.00  0.00    +0.000 C 
ATOM     28  S   UNL     1       3.877  15.363  22.101  0.00  0.00    +0.000 S 
ENDBRANCH  16  28
ENDBRANCH   1  20
TORSDOF 4
ENDMDL
MODEL 8
REMARK VINA RESULT:      -5.8     10.248     12.800
REMARK  Name = 
REMARK  5 active torsions:
REMARK  status: ('A' for Active; 'I' for Inactive)
REMARK    1  A    between atoms: C_1  and  S_2
REMARK    2  A    between atoms: S_2  and  C_3
REMARK    3  A    between atoms: C_5  and  C_6
REMARK    4  A    between atoms: C_10  and  C_11
REMARK    5  A    between atoms: N_15  and  C_16
REMARK                            x       y       z     vdW  Elec       q    Type
REMARK                         _______ _______ _______ _____ _____    ______ ____
ROOT
ATOM      1  C   UNL     1       6.658  13.910  22.319  0.00  0.00    +0.000 A 
ATOM      2  C   UNL     1       5.590  14.582  21.793  0.00  0.00    +0.000 A 
ATOM      3  S   UNL     1       6.010  15.240  20.267  0.00  0.00    +0.000 S 
ATOM      4  C   UNL     1       7.576  14.528  20.395  0.00  0.00    +0.000 A 
ATOM      5  N   UNL     1       8.471  14.654  19.394  0.00  0.00    +0.000 N 
ATOM      6  N   UNL     1       7.781  13.872  21.529  0.00  0.00    +0.000 NA
ATOM      7  H   UNL     1       8.811  15.606  19.249  0.00  0.00    +0.000 HD
ENDROOT
BRANCH   5   8
ATOM      8  C   UNL     1       9.471  13.671  19.123  0.00  0.00    +0.000 A 
ATOM      9  C   UNL     1       9.272  12.616  18.201  0.00  0.00    +0.000 A 
ATOM     10 CL   UNL     1       7.864  12.453  17.197  0.00  0.00    +0.000 Cl
ATOM     11  C   UNL     1      10.256  11.647  17.994  0.00  0.00    +0.000 A 
ATOM     12  C   UNL     1      11.476  11.722  18.657  0.00  0.00    +0.000 A 
ATOM     13  C   UNL     1      11.723  12.780  19.529  0.00  0.00    +0.000 A 
ATOM     14  C   UNL     1      10.734  13.746  19.755  0.00  0.00    +0.000 A 
ATOM     15 CL   UNL     1      11.099  15.020  20.871  0.00  0.00    +0.000 Cl
ENDBRANCH   5   8
BRANCH   1  20
ATOM     16  C   UNL     1       7.530  13.636  24.710  0.00  0.00    +0.000 A 
ATOM     17  S   UNL     1       7.272  12.610  26.059  0.00  0.00    +0.000 S 
ATOM     18  C   UNL     1       6.073  11.696  25.249  0.00  0.00    +0.000 A 
ATOM     19  C   UNL     1       5.911  12.134  23.954  0.00  0.00    +0.000 A 
ATOM     20  C   UNL     1       6.733  13.262  23.640  0.00  0.00    +0.000 A 
BRANCH  18  21
ATOM     21  C   UNL     1       5.361  10.616  25.926  0.00  0.00    +0.000 C 
ATOM     22  N   UNL     1       4.414   9.955  25.341  0.00  0.00    +0.000 NA
ATOM     23  N   UNL     1       5.630  10.227  27.208  0.00  0.00    +0.000 N 
ATOM     24  H   UNL     1       4.296  10.309  24.381  0.00  0.00    +0.000 HD
ATOM     25  H   UNL     1       5.981  10.930  27.840  0.00  0.00    +0.000 HD
ATOM     26  H   UNL     1       4.878   9.663  27.587  0.00  0.00    +0.000 HD
ENDBRANCH  18  21
BRANCH  16  28
ATOM     27  C   UNL     1       7.965  15.879  26.228  0.00  0.00    +0.000 C 
ATOM     28  S   UNL     1       8.665  14.978  24.820  0.00  0.00    +0.000 S 
ENDBRANCH  16  28
ENDBRANCH   1  20
TORSDOF 4
ENDMDL
MODEL 9
REMARK VINA RESULT:      -5.8      4.996      6.619
REMARK  Name = 
REMARK  5 active torsions:
REMARK  status: ('A' for Active; 'I' for Inactive)
REMARK    1  A    between atoms: C_1  and  S_2
REMARK    2  A    between atoms: S_2  and  C_3
REMARK    3  A    between atoms: C_5  and  C_6
REMARK    4  A    between atoms: C_10  and  C_11
REMARK    5  A    between atoms: N_15  and  C_16
REMARK                            x       y       z     vdW  Elec       q    Type
REMARK                         _______ _______ _______ _____ _____    ______ ____
ROOT
ATOM      1  C   UNL     1       2.394  14.346  19.196  0.00  0.00    +0.000 A 
ATOM      2  C   UNL     1       1.403  15.245  18.915  0.00  0.00    +0.000 A 
ATOM      3  S   UNL     1      -0.098  14.430  18.771  0.00  0.00    +0.000 S 
ATOM      4  C   UNL     1       0.680  12.938  19.154  0.00  0.00    +0.000 A 
ATOM      5  N   UNL     1      -0.034  11.797  19.251  0.00  0.00    +0.000 N 
ATOM      6  N   UNL     1       1.989  13.042  19.339  0.00  0.00    +0.000 NA
ATOM      7  H   UNL     1      -0.433  11.472  18.370  0.00  0.00    +0.000 HD
ENDROOT
BRANCH   5   8
ATOM      8  C   UNL     1       0.346  10.720  20.107  0.00  0.00    +0.000 A 
ATOM      9  C   UNL     1       0.099  10.729  21.501  0.00  0.00    +0.000 A 
ATOM     10 CL   UNL     1      -0.801  11.968  22.321  0.00  0.00    +0.000 Cl
ATOM     11  C   UNL     1       0.524   9.676  22.314  0.00  0.00    +0.000 A 
ATOM     12  C   UNL     1       1.162   8.569  21.766  0.00  0.00    +0.000 A 
ATOM     13  C   UNL     1       1.369   8.505  20.390  0.00  0.00    +0.000 A 
ATOM     14  C   UNL     1       0.962   9.565  19.569  0.00  0.00    +0.000 A 
ATOM     15 CL   UNL     1       1.275   9.430  17.871  0.00  0.00    +0.000 Cl
ENDBRANCH   5   8
BRANCH   1  20
ATOM     16  C   UNL     1       4.496  15.080  20.459  0.00  0.00    +0.000 A 
ATOM     17  S   UNL     1       6.176  15.251  20.163  0.00  0.00    +0.000 S 
ATOM     18  C   UNL     1       6.041  14.688  18.551  0.00  0.00    +0.000 A 
ATOM     19  C   UNL     1       4.728  14.425  18.230  0.00  0.00    +0.000 A 
ATOM     20  C   UNL     1       3.834  14.630  19.328  0.00  0.00    +0.000 A 
BRANCH  18  21
ATOM     21  C   UNL     1       7.220  14.531  17.706  0.00  0.00    +0.000 C 
ATOM     22  N   UNL     1       7.522  13.395  17.165  0.00  0.00    +0.000 NA
ATOM     23  N   UNL     1       8.085  15.552  17.426  0.00  0.00    +0.000 N 
ATOM     24  H   UNL     1       6.808  12.697  17.421  0.00  0.00    +0.000 HD
ATOM     25  H   UNL     1       8.188  16.275  18.121  0.00  0.00    +0.000 HD
ATOM     26  H   UNL     1       8.961  15.201  17.056  0.00  0.00    +0.000 HD
ENDBRANCH  18  21
BRANCH  16  28
ATOM     27  C   UNL     1       3.791  17.240  21.996  0.00  0.00    +0.000 C 
ATOM     28  S   UNL     1       3.836  15.430  22.054  0.00  0.00    +0.000 S 
ENDBRANCH  16  28
ENDBRANCH   1  20
TORSDOF 4
ENDMDL
