MODEL 1
REMARK VINA RESULT:      -8.1      0.000      0.000
REMARK  Name = 
REMARK  10 active torsions:
REMARK  status: ('A' for Active; 'I' for Inactive)
REMARK    1  A    between atoms: C_1  and  C_2
REMARK    2  A    between atoms: C_2  and  O_3
REMARK    3  A    between atoms: O_3  and  C_4
REMARK    4  A    between atoms: C_6  and  C_7
REMARK    5  A    between atoms: C_7  and  C_8
REMARK    6  A    between atoms: C_8  and  N_9
REMARK    7  A    between atoms: N_12  and  C_13
REMARK    8  A    between atoms: C_13  and  C_14
REMARK    9  A    between atoms: C_14  and  C_15
REMARK   10  A    between atoms: C_29  and  C_30
REMARK                            x       y       z     vdW  Elec       q    Type
REMARK                         _______ _______ _______ _____ _____    ______ ____
ROOT
ATOM      1  N   UNL     1       2.286   5.689  20.500  0.00  0.00    +0.000 NA
ATOM      2  C   UNL     1       2.151   4.430  21.269  0.00  0.00    +0.000 C 
ATOM      3  C   UNL     1       1.334   3.270  20.629  0.00  0.00    +0.000 C 
ATOM      4  N   UNL     1       1.590   3.031  19.192  0.00  0.00    +0.000 NA
ATOM      5  C   UNL     1       1.399   4.335  18.518  0.00  0.00    +0.000 C 
ATOM      6  C   UNL     1       2.345   5.440  19.044  0.00  0.00    +0.000 C 
ENDROOT
BRANCH   1   7
ATOM      7  C   UNL     1       1.282   6.720  20.809  0.00  0.00    +0.000 C 
BRANCH   7   8
ATOM      8  C   UNL     1       1.723   8.163  20.478  0.00  0.00    +0.000 C 
BRANCH   8  11
ATOM      9  C   UNL     1      -0.616  11.177  21.089  0.00  0.00    +0.000 A 
ATOM     10  C   UNL     1       0.290  10.283  20.478  0.00  0.00    +0.000 A 
ATOM     11  C   UNL     1       0.816   9.172  21.167  0.00  0.00    +0.000 A 
ATOM     12  C   UNL     1       0.428   8.970  22.491  0.00  0.00    +0.000 A 
ATOM     13  C   UNL     1      -0.496   9.824  23.096  0.00  0.00    +0.000 A 
ATOM     14  C   UNL     1      -1.045  10.910  22.398  0.00  0.00    +0.000 A 
BRANCH  14  15
ATOM     15  C   UNL     1      -2.075  11.650  23.077  0.00  0.00    +0.000 C 
ATOM     16  N   UNL     1      -2.920  12.232  23.613  0.00  0.00    +0.000 NA
ENDBRANCH  14  15
BRANCH   9  17
ATOM     17  O   UNL     1      -1.012  12.203  20.265  0.00  0.00    +0.000 OA
BRANCH  17  19
ATOM     18  C   UNL     1      -2.182  11.717  18.215  0.00  0.00    +0.000 C 
ATOM     19  C   UNL     1      -2.313  12.114  19.676  0.00  0.00    +0.000 C 
ENDBRANCH  17  19
ENDBRANCH   9  17
ENDBRANCH   8  11
ENDBRANCH   7   8
ENDBRANCH   1   7
BRANCH   4  20
ATOM     20  C   UNL     1       2.948   2.512  18.912  0.00  0.00    +0.000 C 
BRANCH  20  21
ATOM     21  C   UNL     1       3.445   2.715  17.473  0.00  0.00    +0.000 C 
BRANCH  21  22
ATOM     22  C   UNL     1       4.521   3.780  17.419  0.00  0.00    +0.000 A 
ATOM     23  C   UNL     1       4.734   4.511  16.225  0.00  0.00    +0.000 A 
ATOM     24  C   UNL     1       5.717   5.500  16.157  0.00  0.00    +0.000 A 
ATOM     25  C   UNL     1       6.472   5.728  17.293  0.00  0.00    +0.000 A 
ATOM     26  C   UNL     1       6.295   5.013  18.458  0.00  0.00    +0.000 A 
ATOM     27  C   UNL     1       5.325   4.028  18.543  0.00  0.00    +0.000 A 
ATOM     28  C   UNL     1       7.255   5.490  19.471  0.00  0.00    +0.000 C 
ATOM     29  O   UNL     1       7.970   6.541  18.784  0.00  0.00    +0.000 OA
ATOM     30  C   UNL     1       7.535   6.702  17.497  0.00  0.00    +0.000 C 
ATOM     31  O   UNL     1       7.952   7.502  16.686  0.00  0.00    +0.000 OA
ENDBRANCH  21  22
ENDBRANCH  20  21
ENDBRANCH   4  20
TORSDOF 9
ENDMDL
MODEL 2
REMARK VINA RESULT:      -8.0      1.068      1.229
REMARK  Name = 
REMARK  10 active torsions:
REMARK  status: ('A' for Active; 'I' for Inactive)
REMARK    1  A    between atoms: C_1  and  C_2
REMARK    2  A    between atoms: C_2  and  O_3
REMARK    3  A    between atoms: O_3  and  C_4
REMARK    4  A    between atoms: C_6  and  C_7
REMARK    5  A    between atoms: C_7  and  C_8
REMARK    6  A    between atoms: C_8  and  N_9
REMARK    7  A    between atoms: N_12  and  C_13
REMARK    8  A    between atoms: C_13  and  C_14
REMARK    9  A    between atoms: C_14  and  C_15
REMARK   10  A    between atoms: C_29  and  C_30
REMARK                            x       y       z     vdW  Elec       q    Type
REMARK                         _______ _______ _______ _____ _____    ______ ____
ROOT
ATOM      1  N   UNL     1       2.061   6.146  20.383  0.00  0.00    +0.000 NA
ATOM      2  C   UNL     1       1.731   4.811  20.931  0.00  0.00    +0.000 C 
ATOM      3  C   UNL     1       1.101   3.762  19.969  0.00  0.00    +0.000 C 
ATOM      4  N   UNL     1       1.714   3.686  18.626  0.00  0.00    +0.000 NA
ATOM      5  C   UNL     1       1.706   5.066  18.090  0.00  0.00    +0.000 C 
ATOM      6  C   UNL     1       2.489   6.068  18.969  0.00  0.00    +0.000 C 
ENDROOT
BRANCH   1   7
ATOM      7  C   UNL     1       1.015   7.167  20.552  0.00  0.00    +0.000 C 
BRANCH   7   8
ATOM      8  C   UNL     1       1.270   8.161  21.707  0.00  0.00    +0.000 C 
BRANCH   8  11
ATOM      9  C   UNL     1      -0.791  11.003  20.095  0.00  0.00    +0.000 A 
ATOM     10  C   UNL     1       0.064   9.892  20.259  0.00  0.00    +0.000 A 
ATOM     11  C   UNL     1       0.420   9.412  21.535  0.00  0.00    +0.000 A 
ATOM     12  C   UNL     1      -0.087  10.069  22.655  0.00  0.00    +0.000 A 
ATOM     13  C   UNL     1      -0.963  11.146  22.507  0.00  0.00    +0.000 A 
ATOM     14  C   UNL     1      -1.344  11.602  21.236  0.00  0.00    +0.000 A 
BRANCH  14  15
ATOM     15  C   UNL     1      -2.342  12.637  21.203  0.00  0.00    +0.000 C 
ATOM     16  N   UNL     1      -3.135  13.480  21.159  0.00  0.00    +0.000 NA
ENDBRANCH  14  15
BRANCH   9  17
ATOM     17  O   UNL     1      -1.017  11.330  18.779  0.00  0.00    +0.000 OA
BRANCH  17  19
ATOM     18  C   UNL     1      -2.745   9.981  17.778  0.00  0.00    +0.000 C 
ATOM     19  C   UNL     1      -1.253  10.257  17.861  0.00  0.00    +0.000 C 
ENDBRANCH  17  19
ENDBRANCH   9  17
ENDBRANCH   8  11
ENDBRANCH   7   8
ENDBRANCH   1   7
BRANCH   4  20
ATOM     20  C   UNL     1       3.097   3.157  18.637  0.00  0.00    +0.000 C 
BRANCH  20  21
ATOM     21  C   UNL     1       3.857   3.277  17.307  0.00  0.00    +0.000 C 
BRANCH  21  22
ATOM     22  C   UNL     1       4.865   4.407  17.361  0.00  0.00    +0.000 A 
ATOM     23  C   UNL     1       4.858   5.409  16.361  0.00  0.00    +0.000 A 
ATOM     24  C   UNL     1       5.775   6.461  16.397  0.00  0.00    +0.000 A 
ATOM     25  C   UNL     1       6.686   6.478  17.436  0.00  0.00    +0.000 A 
ATOM     26  C   UNL     1       6.724   5.501  18.407  0.00  0.00    +0.000 A 
ATOM     27  C   UNL     1       5.823   4.449  18.387  0.00  0.00    +0.000 A 
ATOM     28  C   UNL     1       7.809   5.803  19.359  0.00  0.00    +0.000 C 
ATOM     29  O   UNL     1       8.362   7.038  18.852  0.00  0.00    +0.000 OA
ATOM     30  C   UNL     1       7.726   7.458  17.717  0.00  0.00    +0.000 C 
ATOM     31  O   UNL     1       7.976   8.456  17.073  0.00  0.00    +0.000 OA
ENDBRANCH  21  22
ENDBRANCH  20  21
ENDBRANCH   4  20
TORSDOF 9
ENDMDL
MODEL 3
REMARK VINA RESULT:      -7.9      2.135      9.357
REMARK  Name = 
REMARK  10 active torsions:
REMARK  status: ('A' for Active; 'I' for Inactive)
REMARK    1  A    between atoms: C_1  and  C_2
REMARK    2  A    between atoms: C_2  and  O_3
REMARK    3  A    between atoms: O_3  and  C_4
REMARK    4  A    between atoms: C_6  and  C_7
REMARK    5  A    between atoms: C_7  and  C_8
REMARK    6  A    between atoms: C_8  and  N_9
REMARK    7  A    between atoms: N_12  and  C_13
REMARK    8  A    between atoms: C_13  and  C_14
REMARK    9  A    between atoms: C_14  and  C_15
REMARK   10  A    between atoms: C_29  and  C_30
REMARK                            x       y       z     vdW  Elec       q    Type
REMARK                         _______ _______ _______ _____ _____    ______ ____
ROOT
ATOM      1  N   UNL     1       1.973   4.023  18.208  0.00  0.00    +0.000 NA
ATOM      2  C   UNL     1       1.240   3.635  19.435  0.00  0.00    +0.000 C 
ATOM      3  C   UNL     1       1.833   4.071  20.807  0.00  0.00    +0.000 C 
ATOM      4  N   UNL     1       2.342   5.458  20.866  0.00  0.00    +0.000 NA
ATOM      5  C   UNL     1       3.289   5.598  19.737  0.00  0.00    +0.000 C 
ATOM      6  C   UNL     1       2.640   5.334  18.358  0.00  0.00    +0.000 C 
ENDROOT
BRANCH   1   7
ATOM      7  C   UNL     1       2.918   3.015  17.701  0.00  0.00    +0.000 C 
BRANCH   7   8
ATOM      8  C   UNL     1       4.393   3.272  18.080  0.00  0.00    +0.000 C 
BRANCH   8  11
ATOM      9  C   UNL     1       6.817   5.515  16.077  0.00  0.00    +0.000 A 
ATOM     10  C   UNL     1       6.062   4.965  17.135  0.00  0.00    +0.000 A 
ATOM     11  C   UNL     1       5.139   3.921  16.924  0.00  0.00    +0.000 A 
ATOM     12  C   UNL     1       4.973   3.437  15.627  0.00  0.00    +0.000 A 
ATOM     13  C   UNL     1       5.740   3.946  14.578  0.00  0.00    +0.000 A 
ATOM     14  C   UNL     1       6.682   4.962  14.795  0.00  0.00    +0.000 A 
BRANCH  14  15
ATOM     15  C   UNL     1       7.500   5.325  13.668  0.00  0.00    +0.000 C 
ATOM     16  N   UNL     1       8.177   5.610  12.772  0.00  0.00    +0.000 NA
ENDBRANCH  14  15
BRANCH   9  17
ATOM     17  O   UNL     1       7.657   6.529  16.473  0.00  0.00    +0.000 OA
BRANCH  17  19
ATOM     18  C   UNL     1       8.031   8.498  17.812  0.00  0.00    +0.000 C 
ATOM     19  C   UNL     1       7.443   7.097  17.769  0.00  0.00    +0.000 C 
ENDBRANCH  17  19
ENDBRANCH   9  17
ENDBRANCH   8  11
ENDBRANCH   7   8
ENDBRANCH   1   7
BRANCH   4  20
ATOM     20  C   UNL     1       1.278   6.483  20.762  0.00  0.00    +0.000 C 
BRANCH  20  21
ATOM     21  C   UNL     1       1.763   7.904  20.440  0.00  0.00    +0.000 C 
BRANCH  21  22
ATOM     22  C   UNL     1       0.817   8.940  21.010  0.00  0.00    +0.000 A 
ATOM     23  C   UNL     1       0.314   8.793  22.325  0.00  0.00    +0.000 A 
ATOM     24  C   UNL     1      -0.554   9.740  22.870  0.00  0.00    +0.000 A 
ATOM     25  C   UNL     1      -0.906  10.814  22.074  0.00  0.00    +0.000 A 
ATOM     26  C   UNL     1      -0.445  10.965  20.784  0.00  0.00    +0.000 A 
ATOM     27  C   UNL     1       0.416  10.035  20.227  0.00  0.00    +0.000 A 
ATOM     28  C   UNL     1      -1.008  12.201  20.209  0.00  0.00    +0.000 C 
ATOM     29  O   UNL     1      -1.805  12.738  21.288  0.00  0.00    +0.000 OA
ATOM     30  C   UNL     1      -1.770  11.941  22.398  0.00  0.00    +0.000 C 
ATOM     31  O   UNL     1      -2.343  12.137  23.450  0.00  0.00    +0.000 OA
ENDBRANCH  21  22
ENDBRANCH  20  21
ENDBRANCH   4  20
TORSDOF 9
ENDMDL
MODEL 4
REMARK VINA RESULT:      -7.8      0.819      1.489
REMARK  Name = 
REMARK  10 active torsions:
REMARK  status: ('A' for Active; 'I' for Inactive)
REMARK    1  A    between atoms: C_1  and  C_2
REMARK    2  A    between atoms: C_2  and  O_3
REMARK    3  A    between atoms: O_3  and  C_4
REMARK    4  A    between atoms: C_6  and  C_7
REMARK    5  A    between atoms: C_7  and  C_8
REMARK    6  A    between atoms: C_8  and  N_9
REMARK    7  A    between atoms: N_12  and  C_13
REMARK    8  A    between atoms: C_13  and  C_14
REMARK    9  A    between atoms: C_14  and  C_15
REMARK   10  A    between atoms: C_29  and  C_30
REMARK                            x       y       z     vdW  Elec       q    Type
REMARK                         _______ _______ _______ _____ _____    ______ ____
ROOT
ATOM      1  N   UNL     1       2.155   5.499  20.494  0.00  0.00    +0.000 NA
ATOM      2  C   UNL     1       2.095   4.358  21.436  0.00  0.00    +0.000 C 
ATOM      3  C   UNL     1       1.240   3.122  21.031  0.00  0.00    +0.000 C 
ATOM      4  N   UNL     1       1.381   2.687  19.625  0.00  0.00    +0.000 NA
ATOM      5  C   UNL     1       1.124   3.886  18.795  0.00  0.00    +0.000 C 
ATOM      6  C   UNL     1       2.099   5.051  19.085  0.00  0.00    +0.000 C 
ENDROOT
BRANCH   1   7
ATOM      7  C   UNL     1       1.170   6.564  20.739  0.00  0.00    +0.000 C 
BRANCH   7   8
ATOM      8  C   UNL     1       1.673   7.989  20.415  0.00  0.00    +0.000 C 
BRANCH   8  11
ATOM      9  C   UNL     1      -0.707  10.974  21.008  0.00  0.00    +0.000 A 
ATOM     10  C   UNL     1       0.162  10.053  20.383  0.00  0.00    +0.000 A 
ATOM     11  C   UNL     1       0.808   9.033  21.108  0.00  0.00    +0.000 A 
ATOM     12  C   UNL     1       0.581   8.949  22.481  0.00  0.00    +0.000 A 
ATOM     13  C   UNL     1      -0.305   9.829  23.106  0.00  0.00    +0.000 A 
ATOM     14  C   UNL     1      -0.973  10.824  22.377  0.00  0.00    +0.000 A 
BRANCH  14  15
ATOM     15  C   UNL     1      -1.951  11.595  23.099  0.00  0.00    +0.000 C 
ATOM     16  N   UNL     1      -2.735  12.233  23.665  0.00  0.00    +0.000 NA
ENDBRANCH  14  15
BRANCH   9  17
ATOM     17  O   UNL     1      -1.236  11.902  20.143  0.00  0.00    +0.000 OA
BRANCH  17  19
ATOM     18  C   UNL     1      -0.563  13.111  18.170  0.00  0.00    +0.000 C 
ATOM     19  C   UNL     1      -0.366  12.934  19.666  0.00  0.00    +0.000 C 
ENDBRANCH  17  19
ENDBRANCH   9  17
ENDBRANCH   8  11
ENDBRANCH   7   8
ENDBRANCH   1   7
BRANCH   4  20
ATOM     20  C   UNL     1       2.717   2.132  19.309  0.00  0.00    +0.000 C 
BRANCH  20  21
ATOM     21  C   UNL     1       3.158   2.273  17.845  0.00  0.00    +0.000 C 
BRANCH  21  22
ATOM     22  C   UNL     1       4.275   3.289  17.713  0.00  0.00    +0.000 A 
ATOM     23  C   UNL     1       4.888   3.821  18.873  0.00  0.00    +0.000 A 
ATOM     24  C   UNL     1       5.923   4.753  18.771  0.00  0.00    +0.000 A 
ATOM     25  C   UNL     1       6.313   5.136  17.502  0.00  0.00    +0.000 A 
ATOM     26  C   UNL     1       5.715   4.646  16.361  0.00  0.00    +0.000 A 
ATOM     27  C   UNL     1       4.687   3.722  16.443  0.00  0.00    +0.000 A 
ATOM     28  C   UNL     1       6.352   5.256  15.179  0.00  0.00    +0.000 C 
ATOM     29  O   UNL     1       7.367   6.110  15.750  0.00  0.00    +0.000 OA
ATOM     30  C   UNL     1       7.366   6.066  17.117  0.00  0.00    +0.000 C 
ATOM     31  O   UNL     1       8.101   6.680  17.863  0.00  0.00    +0.000 OA
ENDBRANCH  21  22
ENDBRANCH  20  21
ENDBRANCH   4  20
TORSDOF 9
ENDMDL
MODEL 5
REMARK VINA RESULT:      -7.7      4.078      7.588
REMARK  Name = 
REMARK  10 active torsions:
REMARK  status: ('A' for Active; 'I' for Inactive)
REMARK    1  A    between atoms: C_1  and  C_2
REMARK    2  A    between atoms: C_2  and  O_3
REMARK    3  A    between atoms: O_3  and  C_4
REMARK    4  A    between atoms: C_6  and  C_7
REMARK    5  A    between atoms: C_7  and  C_8
REMARK    6  A    between atoms: C_8  and  N_9
REMARK    7  A    between atoms: N_12  and  C_13
REMARK    8  A    between atoms: C_13  and  C_14
REMARK    9  A    between atoms: C_14  and  C_15
REMARK   10  A    between atoms: C_29  and  C_30
REMARK                            x       y       z     vdW  Elec       q    Type
REMARK                         _______ _______ _______ _____ _____    ______ ____
ROOT
ATOM      1  N   UNL     1       6.298   5.044  15.827  0.00  0.00    +0.000 NA
ATOM      2  C   UNL     1       5.478   6.278  15.806  0.00  0.00    +0.000 C 
ATOM      3  C   UNL     1       5.222   7.007  17.157  0.00  0.00    +0.000 C 
ATOM      4  N   UNL     1       6.397   7.125  18.046  0.00  0.00    +0.000 NA
ATOM      5  C   UNL     1       6.935   5.754  18.202  0.00  0.00    +0.000 C 
ATOM      6  C   UNL     1       7.353   5.105  16.862  0.00  0.00    +0.000 C 
ENDROOT
BRANCH   1   7
ATOM      7  C   UNL     1       5.537   3.790  15.935  0.00  0.00    +0.000 C 
BRANCH   7   8
ATOM      8  C   UNL     1       4.012   3.978  16.096  0.00  0.00    +0.000 C 
BRANCH   8  11
ATOM      9  C   UNL     1       2.941   4.345  19.790  0.00  0.00    +0.000 A 
ATOM     10  C   UNL     1       3.422   4.640  18.496  0.00  0.00    +0.000 A 
ATOM     11  C   UNL     1       3.577   3.641  17.515  0.00  0.00    +0.000 A 
ATOM     12  C   UNL     1       3.250   2.327  17.851  0.00  0.00    +0.000 A 
ATOM     13  C   UNL     1       2.738   2.027  19.114  0.00  0.00    +0.000 A 
ATOM     14  C   UNL     1       2.553   3.028  20.079  0.00  0.00    +0.000 A 
BRANCH  14  15
ATOM     15  C   UNL     1       1.907   2.626  21.300  0.00  0.00    +0.000 C 
ATOM     16  N   UNL     1       1.369   2.314  22.277  0.00  0.00    +0.000 NA
ENDBRANCH  14  15
BRANCH   9  17
ATOM     17  O   UNL     1       2.866   5.445  20.611  0.00  0.00    +0.000 OA
BRANCH  17  19
ATOM     18  C   UNL     1       2.048   7.668  20.169  0.00  0.00    +0.000 C 
ATOM     19  C   UNL     1       1.680   6.242  20.542  0.00  0.00    +0.000 C 
ENDBRANCH  17  19
ENDBRANCH   9  17
ENDBRANCH   8  11
ENDBRANCH   7   8
ENDBRANCH   1   7
BRANCH   4  20
ATOM     20  C   UNL     1       7.450   8.023  17.518  0.00  0.00    +0.000 C 
BRANCH  20  21
ATOM     21  C   UNL     1       8.549   8.406  18.520  0.00  0.00    +0.000 C 
BRANCH  21  22
ATOM     22  C   UNL     1       8.769   9.905  18.533  0.00  0.00    +0.000 A 
ATOM     23  C   UNL     1       8.203  10.713  17.517  0.00  0.00    +0.000 A 
ATOM     24  C   UNL     1       8.390  12.096  17.516  0.00  0.00    +0.000 A 
ATOM     25  C   UNL     1       9.151  12.638  18.534  0.00  0.00    +0.000 A 
ATOM     26  C   UNL     1       9.728  11.868  19.520  0.00  0.00    +0.000 A 
ATOM     27  C   UNL     1       9.555  10.494  19.537  0.00  0.00    +0.000 A 
ATOM     28  C   UNL     1      10.477  12.741  20.443  0.00  0.00    +0.000 C 
ATOM     29  O   UNL     1      10.255  14.063  19.905  0.00  0.00    +0.000 OA
ATOM     30  C   UNL     1       9.482  14.035  18.777  0.00  0.00    +0.000 C 
ATOM     31  O   UNL     1       9.136  14.989  18.111  0.00  0.00    +0.000 OA
ENDBRANCH  21  22
ENDBRANCH  20  21
ENDBRANCH   4  20
TORSDOF 9
ENDMDL
MODEL 6
REMARK VINA RESULT:      -7.7      2.613      3.776
REMARK  Name = 
REMARK  10 active torsions:
REMARK  status: ('A' for Active; 'I' for Inactive)
REMARK    1  A    between atoms: C_1  and  C_2
REMARK    2  A    between atoms: C_2  and  O_3
REMARK    3  A    between atoms: O_3  and  C_4
REMARK    4  A    between atoms: C_6  and  C_7
REMARK    5  A    between atoms: C_7  and  C_8
REMARK    6  A    between atoms: C_8  and  N_9
REMARK    7  A    between atoms: N_12  and  C_13
REMARK    8  A    between atoms: C_13  and  C_14
REMARK    9  A    between atoms: C_14  and  C_15
REMARK   10  A    between atoms: C_29  and  C_30
REMARK                            x       y       z     vdW  Elec       q    Type
REMARK                         _______ _______ _______ _____ _____    ______ ____
ROOT
ATOM      1  N   UNL     1       2.158   7.922  19.987  0.00  0.00    +0.000 NA
ATOM      2  C   UNL     1       2.020   6.686  20.792  0.00  0.00    +0.000 C 
ATOM      3  C   UNL     1       1.662   5.367  20.047  0.00  0.00    +0.000 C 
ATOM      4  N   UNL     1       2.388   5.138  18.780  0.00  0.00    +0.000 NA
ATOM      5  C   UNL     1       2.185   6.356  17.963  0.00  0.00    +0.000 C 
ATOM      6  C   UNL     1       2.709   7.642  18.643  0.00  0.00    +0.000 C 
ENDROOT
BRANCH   1   7
ATOM      7  C   UNL     1       0.941   8.742  19.889  0.00  0.00    +0.000 C 
BRANCH   7   8
ATOM      8  C   UNL     1       1.030   9.901  18.871  0.00  0.00    +0.000 C 
BRANCH   8  11
ATOM      9  C   UNL     1      -2.515  10.346  17.402  0.00  0.00    +0.000 A 
ATOM     10  C   UNL     1      -1.201   9.878  17.620  0.00  0.00    +0.000 A 
ATOM     11  C   UNL     1      -0.353  10.465  18.578  0.00  0.00    +0.000 A 
ATOM     12  C   UNL     1      -0.836  11.544  19.318  0.00  0.00    +0.000 A 
ATOM     13  C   UNL     1      -2.146  11.993  19.140  0.00  0.00    +0.000 A 
ATOM     14  C   UNL     1      -3.001  11.386  18.209  0.00  0.00    +0.000 A 
BRANCH  14  15
ATOM     15  C   UNL     1      -4.362  11.850  18.195  0.00  0.00    +0.000 C 
ATOM     16  N   UNL     1      -5.459  12.224  18.206  0.00  0.00    +0.000 NA
ENDBRANCH  14  15
BRANCH   9  17
ATOM     17  O   UNL     1      -3.188   9.656  16.422  0.00  0.00    +0.000 OA
BRANCH  17  19
ATOM     18  C   UNL     1      -3.899  10.139  14.171  0.00  0.00    +0.000 C 
ATOM     19  C   UNL     1      -2.726   9.801  15.075  0.00  0.00    +0.000 C 
ENDBRANCH  17  19
ENDBRANCH   9  17
ENDBRANCH   8  11
ENDBRANCH   7   8
ENDBRANCH   1   7
BRANCH   4  20
ATOM     20  C   UNL     1       3.836   4.889  18.965  0.00  0.00    +0.000 C 
BRANCH  20  21
ATOM     21  C   UNL     1       4.394   3.669  18.218  0.00  0.00    +0.000 C 
BRANCH  21  22
ATOM     22  C   UNL     1       5.278   4.098  17.065  0.00  0.00    +0.000 A 
ATOM     23  C   UNL     1       6.366   4.974  17.295  0.00  0.00    +0.000 A 
ATOM     24  C   UNL     1       7.194   5.377  16.246  0.00  0.00    +0.000 A 
ATOM     25  C   UNL     1       6.905   4.894  14.984  0.00  0.00    +0.000 A 
ATOM     26  C   UNL     1       5.839   4.057  14.735  0.00  0.00    +0.000 A 
ATOM     27  C   UNL     1       5.005   3.649  15.763  0.00  0.00    +0.000 A 
ATOM     28  C   UNL     1       5.801   3.733  13.297  0.00  0.00    +0.000 C 
ATOM     29  O   UNL     1       6.944   4.440  12.765  0.00  0.00    +0.000 OA
ATOM     30  C   UNL     1       7.612   5.138  13.733  0.00  0.00    +0.000 C 
ATOM     31  O   UNL     1       8.601   5.823  13.581  0.00  0.00    +0.000 OA
ENDBRANCH  21  22
ENDBRANCH  20  21
ENDBRANCH   4  20
TORSDOF 9
ENDMDL
MODEL 7
REMARK VINA RESULT:      -7.6      2.120      9.041
REMARK  Name = 
REMARK  10 active torsions:
REMARK  status: ('A' for Active; 'I' for Inactive)
REMARK    1  A    between atoms: C_1  and  C_2
REMARK    2  A    between atoms: C_2  and  O_3
REMARK    3  A    between atoms: O_3  and  C_4
REMARK    4  A    between atoms: C_6  and  C_7
REMARK    5  A    between atoms: C_7  and  C_8
REMARK    6  A    between atoms: C_8  and  N_9
REMARK    7  A    between atoms: N_12  and  C_13
REMARK    8  A    between atoms: C_13  and  C_14
REMARK    9  A    between atoms: C_14  and  C_15
REMARK   10  A    between atoms: C_29  and  C_30
REMARK                            x       y       z     vdW  Elec       q    Type
REMARK                         _______ _______ _______ _____ _____    ______ ____
ROOT
ATOM      1  N   UNL     1       1.732   3.594  18.503  0.00  0.00    +0.000 NA
ATOM      2  C   UNL     1       2.165   3.689  19.916  0.00  0.00    +0.000 C 
ATOM      3  C   UNL     1       3.060   4.895  20.325  0.00  0.00    +0.000 C 
ATOM      4  N   UNL     1       2.654   6.203  19.768  0.00  0.00    +0.000 NA
ATOM      5  C   UNL     1       2.545   6.012  18.304  0.00  0.00    +0.000 C 
ATOM      6  C   UNL     1       1.517   4.929  17.904  0.00  0.00    +0.000 C 
ENDROOT
BRANCH   1   7
ATOM      7  C   UNL     1       2.594   2.771  17.640  0.00  0.00    +0.000 C 
BRANCH   7   8
ATOM      8  C   UNL     1       4.080   2.740  18.061  0.00  0.00    +0.000 C 
BRANCH   8  11
ATOM      9  C   UNL     1       6.891   4.948  16.596  0.00  0.00    +0.000 A 
ATOM     10  C   UNL     1       6.049   4.277  17.510  0.00  0.00    +0.000 A 
ATOM     11  C   UNL     1       4.932   3.533  17.082  0.00  0.00    +0.000 A 
ATOM     12  C   UNL     1       4.659   3.476  15.715  0.00  0.00    +0.000 A 
ATOM     13  C   UNL     1       5.504   4.103  14.798  0.00  0.00    +0.000 A 
ATOM     14  C   UNL     1       6.635   4.816  15.224  0.00  0.00    +0.000 A 
BRANCH  14  15
ATOM     15  C   UNL     1       7.499   5.318  14.189  0.00  0.00    +0.000 C 
ATOM     16  N   UNL     1       8.200   5.701  13.350  0.00  0.00    +0.000 NA
ENDBRANCH  14  15
BRANCH   9  17
ATOM     17  O   UNL     1       7.922   5.628  17.200  0.00  0.00    +0.000 OA
BRANCH  17  19
ATOM     18  C   UNL     1       7.684   8.002  17.532  0.00  0.00    +0.000 C 
ATOM     19  C   UNL     1       7.581   6.626  18.167  0.00  0.00    +0.000 C 
ENDBRANCH  17  19
ENDBRANCH   9  17
ENDBRANCH   8  11
ENDBRANCH   7   8
ENDBRANCH   1   7
BRANCH   4  20
ATOM     20  C   UNL     1       1.369   6.702  20.309  0.00  0.00    +0.000 C 
BRANCH  20  21
ATOM     21  C   UNL     1       1.476   7.921  21.238  0.00  0.00    +0.000 C 
BRANCH  21  22
ATOM     22  C   UNL     1       0.894   9.155  20.579  0.00  0.00    +0.000 A 
ATOM     23  C   UNL     1       1.245   9.478  19.246  0.00  0.00    +0.000 A 
ATOM     24  C   UNL     1       0.715  10.607  18.620  0.00  0.00    +0.000 A 
ATOM     25  C   UNL     1      -0.154  11.394  19.353  0.00  0.00    +0.000 A 
ATOM     26  C   UNL     1      -0.492  11.109  20.659  0.00  0.00    +0.000 A 
ATOM     27  C   UNL     1       0.025   9.994  21.296  0.00  0.00    +0.000 A 
ATOM     28  C   UNL     1      -1.424  12.139  21.155  0.00  0.00    +0.000 C 
ATOM     29  O   UNL     1      -1.594  13.011  20.016  0.00  0.00    +0.000 OA
ATOM     30  C   UNL     1      -0.855  12.602  18.941  0.00  0.00    +0.000 C 
ATOM     31  O   UNL     1      -0.797  13.139  17.854  0.00  0.00    +0.000 OA
ENDBRANCH  21  22
ENDBRANCH  20  21
ENDBRANCH   4  20
TORSDOF 9
ENDMDL
MODEL 8
REMARK VINA RESULT:      -7.6      2.482     10.224
REMARK  Name = 
REMARK  10 active torsions:
REMARK  status: ('A' for Active; 'I' for Inactive)
REMARK    1  A    between atoms: C_1  and  C_2
REMARK    2  A    between atoms: C_2  and  O_3
REMARK    3  A    between atoms: O_3  and  C_4
REMARK    4  A    between atoms: C_6  and  C_7
REMARK    5  A    between atoms: C_7  and  C_8
REMARK    6  A    between atoms: C_8  and  N_9
REMARK    7  A    between atoms: N_12  and  C_13
REMARK    8  A    between atoms: C_13  and  C_14
REMARK    9  A    between atoms: C_14  and  C_15
REMARK   10  A    between atoms: C_29  and  C_30
REMARK                            x       y       z     vdW  Elec       q    Type
REMARK                         _______ _______ _______ _____ _____    ______ ____
ROOT
ATOM      1  N   UNL     1       0.238   8.719  21.050  0.00  0.00    +0.000 NA
ATOM      2  C   UNL     1      -0.334   8.636  22.414  0.00  0.00    +0.000 C 
ATOM      3  C   UNL     1      -0.121   9.847  23.369  0.00  0.00    +0.000 C 
ATOM      4  N   UNL     1      -0.310  11.179  22.756  0.00  0.00    +0.000 NA
ATOM      5  C   UNL     1       0.556  11.208  21.556  0.00  0.00    +0.000 C 
ATOM      6  C   UNL     1       0.215  10.103  20.529  0.00  0.00    +0.000 C 
ENDROOT
BRANCH   1   7
ATOM      7  C   UNL     1       1.577   8.129  20.898  0.00  0.00    +0.000 C 
BRANCH   7   8
ATOM      8  C   UNL     1       1.921   7.684  19.458  0.00  0.00    +0.000 C 
BRANCH   8  11
ATOM      9  C   UNL     1       4.399   4.784  18.847  0.00  0.00    +0.000 A 
ATOM     10  C   UNL     1       3.762   6.042  18.780  0.00  0.00    +0.000 A 
ATOM     11  C   UNL     1       2.557   6.302  19.462  0.00  0.00    +0.000 A 
ATOM     12  C   UNL     1       1.987   5.275  20.214  0.00  0.00    +0.000 A 
ATOM     13  C   UNL     1       2.626   4.038  20.320  0.00  0.00    +0.000 A 
ATOM     14  C   UNL     1       3.842   3.791  19.666  0.00  0.00    +0.000 A 
BRANCH  14  15
ATOM     15  C   UNL     1       4.470   2.527  19.942  0.00  0.00    +0.000 C 
ATOM     16  N   UNL     1       4.979   1.515  20.186  0.00  0.00    +0.000 NA
ENDBRANCH  14  15
BRANCH   9  17
ATOM     17  O   UNL     1       5.557   4.717  18.109  0.00  0.00    +0.000 OA
BRANCH  17  19
ATOM     18  C   UNL     1       7.533   5.744  19.029  0.00  0.00    +0.000 C 
ATOM     19  C   UNL     1       6.376   5.889  18.054  0.00  0.00    +0.000 C 
ENDBRANCH  17  19
ENDBRANCH   9  17
ENDBRANCH   8  11
ENDBRANCH   7   8
ENDBRANCH   1   7
BRANCH   4  20
ATOM     20  C   UNL     1      -1.713  11.458  22.372  0.00  0.00    +0.000 C 
BRANCH  20  21
ATOM     21  C   UNL     1      -1.931  12.754  21.577  0.00  0.00    +0.000 C 
BRANCH  21  22
ATOM     22  C   UNL     1      -3.009  12.569  20.528  0.00  0.00    +0.000 A 
ATOM     23  C   UNL     1      -4.336  12.981  20.798  0.00  0.00    +0.000 A 
ATOM     24  C   UNL     1      -5.342  12.824  19.842  0.00  0.00    +0.000 A 
ATOM     25  C   UNL     1      -4.990  12.248  18.636  0.00  0.00    +0.000 A 
ATOM     26  C   UNL     1      -3.709  11.822  18.361  0.00  0.00    +0.000 A 
ATOM     27  C   UNL     1      -2.699  11.968  19.298  0.00  0.00    +0.000 A 
ATOM     28  C   UNL     1      -3.667  11.250  17.003  0.00  0.00    +0.000 C 
ATOM     29  O   UNL     1      -5.024  11.409  16.533  0.00  0.00    +0.000 OA
ATOM     30  C   UNL     1      -5.829  11.989  17.474  0.00  0.00    +0.000 C 
ATOM     31  O   UNL     1      -7.011  12.241  17.361  0.00  0.00    +0.000 OA
ENDBRANCH  21  22
ENDBRANCH  20  21
ENDBRANCH   4  20
TORSDOF 9
ENDMDL
MODEL 9
REMARK VINA RESULT:      -7.6      1.157      2.035
REMARK  Name = 
REMARK  10 active torsions:
REMARK  status: ('A' for Active; 'I' for Inactive)
REMARK    1  A    between atoms: C_1  and  C_2
REMARK    2  A    between atoms: C_2  and  O_3
REMARK    3  A    between atoms: O_3  and  C_4
REMARK    4  A    between atoms: C_6  and  C_7
REMARK    5  A    between atoms: C_7  and  C_8
REMARK    6  A    between atoms: C_8  and  N_9
REMARK    7  A    between atoms: N_12  and  C_13
REMARK    8  A    between atoms: C_13  and  C_14
REMARK    9  A    between atoms: C_14  and  C_15
REMARK   10  A    between atoms: C_29  and  C_30
REMARK                            x       y       z     vdW  Elec       q    Type
REMARK                         _______ _______ _______ _____ _____    ______ ____
ROOT
ATOM      1  N   UNL     1       2.410   5.976  20.072  0.00  0.00    +0.000 NA
ATOM      2  C   UNL     1       2.042   4.812  20.911  0.00  0.00    +0.000 C 
ATOM      3  C   UNL     1       1.187   3.685  20.260  0.00  0.00    +0.000 C 
ATOM      4  N   UNL     1       1.592   3.292  18.894  0.00  0.00    +0.000 NA
ATOM      5  C   UNL     1       1.633   4.541  18.100  0.00  0.00    +0.000 C 
ATOM      6  C   UNL     1       2.622   5.589  18.660  0.00  0.00    +0.000 C 
ENDROOT
BRANCH   1   7
ATOM      7  C   UNL     1       1.496   7.126  20.163  0.00  0.00    +0.000 C 
BRANCH   7   8
ATOM      8  C   UNL     1       1.911   8.343  19.307  0.00  0.00    +0.000 C 
BRANCH   8  11
ATOM      9  C   UNL     1      -0.046  11.150  21.099  0.00  0.00    +0.000 A 
ATOM     10  C   UNL     1       0.750  10.009  20.864  0.00  0.00    +0.000 A 
ATOM     11  C   UNL     1       0.981   9.520  19.562  0.00  0.00    +0.000 A 
ATOM     12  C   UNL     1       0.392  10.189  18.490  0.00  0.00    +0.000 A 
ATOM     13  C   UNL     1      -0.367  11.341  18.705  0.00  0.00    +0.000 A 
ATOM     14  C   UNL     1      -0.568  11.845  19.999  0.00  0.00    +0.000 A 
BRANCH  14  15
ATOM     15  C   UNL     1      -1.263  13.101  20.092  0.00  0.00    +0.000 C 
ATOM     16  N   UNL     1      -1.804  14.124  20.158  0.00  0.00    +0.000 NA
ENDBRANCH  14  15
BRANCH   9  17
ATOM     17  O   UNL     1      -0.165  11.470  22.431  0.00  0.00    +0.000 OA
BRANCH  17  19
ATOM     18  C   UNL     1      -2.370  11.893  23.304  0.00  0.00    +0.000 C 
ATOM     19  C   UNL     1      -1.247  10.881  23.159  0.00  0.00    +0.000 C 
ENDBRANCH  17  19
ENDBRANCH   9  17
ENDBRANCH   8  11
ENDBRANCH   7   8
ENDBRANCH   1   7
BRANCH   4  20
ATOM     20  C   UNL     1       2.909   2.616  18.839  0.00  0.00    +0.000 C 
BRANCH  20  21
ATOM     21  C   UNL     1       3.604   2.642  17.470  0.00  0.00    +0.000 C 
BRANCH  21  22
ATOM     22  C   UNL     1       4.652   3.734  17.416  0.00  0.00    +0.000 A 
ATOM     23  C   UNL     1       4.876   4.441  16.210  0.00  0.00    +0.000 A 
ATOM     24  C   UNL     1       5.833   5.455  16.142  0.00  0.00    +0.000 A 
ATOM     25  C   UNL     1       6.552   5.731  17.290  0.00  0.00    +0.000 A 
ATOM     26  C   UNL     1       6.364   5.041  18.468  0.00  0.00    +0.000 A 
ATOM     27  C   UNL     1       5.419   4.031  18.553  0.00  0.00    +0.000 A 
ATOM     28  C   UNL     1       7.285   5.568  19.492  0.00  0.00    +0.000 C 
ATOM     29  O   UNL     1       7.988   6.621  18.798  0.00  0.00    +0.000 OA
ATOM     30  C   UNL     1       7.583   6.739  17.497  0.00  0.00    +0.000 C 
ATOM     31  O   UNL     1       7.999   7.531  16.677  0.00  0.00    +0.000 OA
ENDBRANCH  21  22
ENDBRANCH  20  21
ENDBRANCH   4  20
TORSDOF 9
ENDMDL
