MODEL 1
REMARK VINA RESULT:      -7.6      0.000      0.000
REMARK  Name = 
REMARK  7 active torsions:
REMARK  status: ('A' for Active; 'I' for Inactive)
REMARK    1  A    between atoms: C_1  and  C_2
REMARK    2  A    between atoms: C_2  and  C_3
REMARK    3  A    between atoms: C_2  and  C_4
REMARK    4  A    between atoms: C_2  and  C_5
REMARK    5  A    between atoms: C_7  and  C_8
REMARK    6  A    between atoms: C_13  and  C_14
REMARK    7  A    between atoms: C_14  and  N_15
REMARK                            x       y       z     vdW  Elec       q    Type
REMARK                         _______ _______ _______ _____ _____    ______ ____
ROOT
ATOM      1  C   UNL     1       2.013   6.458  20.069  0.00  0.00    +0.000 C 
ATOM      2  O   UNL     1       1.509   5.777  20.963  0.00  0.00    +0.000 OA
ATOM      3  N   UNL     1       1.895   7.841  20.000  0.00  0.00    +0.000 N 
ATOM      4  C   UNL     1       1.332   8.519  21.155  0.00  0.00    +0.000 C 
ATOM      5  C   UNL     1       0.013   9.143  20.726  0.00  0.00    +0.000 C 
ATOM      6  C   UNL     1       0.245  10.211  19.624  0.00  0.00    +0.000 C 
ATOM      7  C   UNL     1       0.811   9.463  18.423  0.00  0.00    +0.000 C 
ATOM      8  C   UNL     1       2.047   8.676  18.793  0.00  0.00    +0.000 C 
ENDROOT
BRANCH   1  11
ATOM      9  C   UNL     1       4.919   5.179  17.996  0.00  0.00    +0.000 A 
ATOM     10  C   UNL     1       4.175   5.864  19.041  0.00  0.00    +0.000 A 
ATOM     11  C   UNL     1       2.849   5.766  19.043  0.00  0.00    +0.000 A 
ATOM     12  N   UNL     1       2.264   4.888  18.196  0.00  0.00    +0.000 N 
ATOM     13  C   UNL     1       3.010   4.090  17.376  0.00  0.00    +0.000 A 
ATOM     14  O   UNL     1       2.413   3.170  16.797  0.00  0.00    +0.000 OA
ATOM     15  N   UNL     1       4.352   4.310  17.223  0.00  0.00    +0.000 NA
ATOM     16  H   UNL     1       1.283   4.662  18.294  0.00  0.00    +0.000 HD
BRANCH   9  18
ATOM     17  C   UNL     1       7.054   5.552  19.247  0.00  0.00    +0.000 C 
ATOM     18  C   UNL     1       6.406   5.556  17.850  0.00  0.00    +0.000 C 
ATOM     19  C   UNL     1       6.527   6.961  17.228  0.00  0.00    +0.000 C 
ATOM     20  C   UNL     1       7.147   4.571  16.938  0.00  0.00    +0.000 C 
ENDBRANCH   9  18
ENDBRANCH   1  11
BRANCH   6  21
ATOM     21  C   UNL     1       1.173  11.403  20.043  0.00  0.00    +0.000 C 
BRANCH  21  22
ATOM     22  N   UNL     1       1.099  12.620  19.188  0.00  0.00    +0.000 NA
ATOM     23  C   UNL     1       0.002  13.510  19.601  0.00  0.00    +0.000 C 
ATOM     24  C   UNL     1      -0.048  14.804  18.782  0.00  0.00    +0.000 C 
ATOM     25  C   UNL     1       1.280  15.544  18.847  0.00  0.00    +0.000 C 
ATOM     26  C   UNL     1       2.392  14.628  18.356  0.00  0.00    +0.000 C 
ATOM     27  C   UNL     1       2.400  13.326  19.166  0.00  0.00    +0.000 C 
ENDBRANCH  21  22
ENDBRANCH   6  21
TORSDOF 4
ENDMDL
MODEL 2
REMARK VINA RESULT:      -7.5      0.673      1.180
REMARK  Name = 
REMARK  7 active torsions:
REMARK  status: ('A' for Active; 'I' for Inactive)
REMARK    1  A    between atoms: C_1  and  C_2
REMARK    2  A    between atoms: C_2  and  C_3
REMARK    3  A    between atoms: C_2  and  C_4
REMARK    4  A    between atoms: C_2  and  C_5
REMARK    5  A    between atoms: C_7  and  C_8
REMARK    6  A    between atoms: C_13  and  C_14
REMARK    7  A    between atoms: C_14  and  N_15
REMARK                            x       y       z     vdW  Elec       q    Type
REMARK                         _______ _______ _______ _____ _____    ______ ____
ROOT
ATOM      1  C   UNL     1       2.051   6.454  19.764  0.00  0.00    +0.000 C 
ATOM      2  O   UNL     1       1.581   5.868  20.740  0.00  0.00    +0.000 OA
ATOM      3  N   UNL     1       2.029   7.836  19.616  0.00  0.00    +0.000 N 
ATOM      4  C   UNL     1       1.623   8.623  20.768  0.00  0.00    +0.000 C 
ATOM      5  C   UNL     1       0.321   9.321  20.413  0.00  0.00    +0.000 C 
ATOM      6  C   UNL     1       0.530  10.302  19.229  0.00  0.00    +0.000 C 
ATOM      7  C   UNL     1       0.929   9.443  18.035  0.00  0.00    +0.000 C 
ATOM      8  C   UNL     1       2.132   8.584  18.348  0.00  0.00    +0.000 C 
ENDROOT
BRANCH   1  11
ATOM      9  C   UNL     1       4.598   5.041  17.337  0.00  0.00    +0.000 A 
ATOM     10  C   UNL     1       4.006   5.862  18.381  0.00  0.00    +0.000 A 
ATOM     11  C   UNL     1       2.738   5.640  18.718  0.00  0.00    +0.000 A 
ATOM     12  N   UNL     1       2.118   4.547  18.217  0.00  0.00    +0.000 N 
ATOM     13  C   UNL     1       2.777   3.666  17.408  0.00  0.00    +0.000 A 
ATOM     14  O   UNL     1       2.208   2.589  17.173  0.00  0.00    +0.000 OA
ATOM     15  N   UNL     1       4.009   3.975  16.900  0.00  0.00    +0.000 NA
ATOM     16  H   UNL     1       1.223   4.255  18.587  0.00  0.00    +0.000 HD
BRANCH   9  18
ATOM     17  C   UNL     1       5.919   5.380  15.239  0.00  0.00    +0.000 C 
ATOM     18  C   UNL     1       5.951   5.518  16.772  0.00  0.00    +0.000 C 
ATOM     19  C   UNL     1       7.088   4.650  17.346  0.00  0.00    +0.000 C 
ATOM     20  C   UNL     1       6.233   6.976  17.150  0.00  0.00    +0.000 C 
ENDBRANCH   9  18
ENDBRANCH   1  11
BRANCH   6  21
ATOM     21  C   UNL     1       1.577  11.440  19.488  0.00  0.00    +0.000 C 
BRANCH  21  22
ATOM     22  N   UNL     1       1.281  12.755  18.855  0.00  0.00    +0.000 NA
ATOM     23  C   UNL     1       0.053  13.358  19.397  0.00  0.00    +0.000 C 
ATOM     24  C   UNL     1      -0.231  14.745  18.812  0.00  0.00    +0.000 C 
ATOM     25  C   UNL     1       0.950  15.680  19.027  0.00  0.00    +0.000 C 
ATOM     26  C   UNL     1       2.196  15.070  18.404  0.00  0.00    +0.000 C 
ATOM     27  C   UNL     1       2.441  13.669  18.977  0.00  0.00    +0.000 C 
ENDBRANCH  21  22
ENDBRANCH   6  21
TORSDOF 4
ENDMDL
MODEL 3
REMARK VINA RESULT:      -7.4      4.936      6.694
REMARK  Name = 
REMARK  7 active torsions:
REMARK  status: ('A' for Active; 'I' for Inactive)
REMARK    1  A    between atoms: C_1  and  C_2
REMARK    2  A    between atoms: C_2  and  C_3
REMARK    3  A    between atoms: C_2  and  C_4
REMARK    4  A    between atoms: C_2  and  C_5
REMARK    5  A    between atoms: C_7  and  C_8
REMARK    6  A    between atoms: C_13  and  C_14
REMARK    7  A    between atoms: C_14  and  N_15
REMARK                            x       y       z     vdW  Elec       q    Type
REMARK                         _______ _______ _______ _____ _____    ______ ____
ROOT
ATOM      1  C   UNL     1       5.089   4.501  17.412  0.00  0.00    +0.000 C 
ATOM      2  O   UNL     1       4.942   4.020  16.288  0.00  0.00    +0.000 OA
ATOM      3  N   UNL     1       5.709   5.722  17.648  0.00  0.00    +0.000 N 
ATOM      4  C   UNL     1       5.999   6.556  16.494  0.00  0.00    +0.000 C 
ATOM      5  C   UNL     1       7.511   6.669  16.376  0.00  0.00    +0.000 C 
ATOM      6  C   UNL     1       8.107   7.375  17.623  0.00  0.00    +0.000 C 
ATOM      7  C   UNL     1       7.807   6.463  18.807  0.00  0.00    +0.000 C 
ATOM      8  C   UNL     1       6.331   6.161  18.913  0.00  0.00    +0.000 C 
ENDROOT
BRANCH   1  11
ATOM      9  C   UNL     1       2.728   3.065  20.008  0.00  0.00    +0.000 A 
ATOM     10  C   UNL     1       3.211   3.793  18.845  0.00  0.00    +0.000 A 
ATOM     11  C   UNL     1       4.513   3.762  18.575  0.00  0.00    +0.000 A 
ATOM     12  N   UNL     1       5.298   2.910  19.274  0.00  0.00    +0.000 N 
ATOM     13  C   UNL     1       4.773   2.072  20.214  0.00  0.00    +0.000 A 
ATOM     14  O   UNL     1       5.519   1.180  20.647  0.00  0.00    +0.000 OA
ATOM     15  N   UNL     1       3.481   2.222  20.638  0.00  0.00    +0.000 NA
ATOM     16  H   UNL     1       6.249   2.736  18.977  0.00  0.00    +0.000 HD
BRANCH   9  18
ATOM     17  C   UNL     1       1.049   2.710  21.830  0.00  0.00    +0.000 C 
ATOM     18  C   UNL     1       1.284   3.365  20.456  0.00  0.00    +0.000 C 
ATOM     19  C   UNL     1       0.292   2.783  19.429  0.00  0.00    +0.000 C 
ATOM     20  C   UNL     1       1.030   4.873  20.557  0.00  0.00    +0.000 C 
ENDBRANCH   9  18
ENDBRANCH   1  11
BRANCH   6  21
ATOM     21  C   UNL     1       7.581   8.830  17.875  0.00  0.00    +0.000 C 
BRANCH  21  22
ATOM     22  N   UNL     1       8.622   9.884  18.022  0.00  0.00    +0.000 NA
ATOM     23  C   UNL     1       8.126  11.204  17.600  0.00  0.00    +0.000 C 
ATOM     24  C   UNL     1       9.156  12.317  17.813  0.00  0.00    +0.000 C 
ATOM     25  C   UNL     1       9.614  12.369  19.263  0.00  0.00    +0.000 C 
ATOM     26  C   UNL     1      10.183  11.015  19.661  0.00  0.00    +0.000 C 
ATOM     27  C   UNL     1       9.148   9.912  19.407  0.00  0.00    +0.000 C 
ENDBRANCH  21  22
ENDBRANCH   6  21
TORSDOF 4
ENDMDL
MODEL 4
REMARK VINA RESULT:      -7.3      0.864      1.153
REMARK  Name = 
REMARK  7 active torsions:
REMARK  status: ('A' for Active; 'I' for Inactive)
REMARK    1  A    between atoms: C_1  and  C_2
REMARK    2  A    between atoms: C_2  and  C_3
REMARK    3  A    between atoms: C_2  and  C_4
REMARK    4  A    between atoms: C_2  and  C_5
REMARK    5  A    between atoms: C_7  and  C_8
REMARK    6  A    between atoms: C_13  and  C_14
REMARK    7  A    between atoms: C_14  and  N_15
REMARK                            x       y       z     vdW  Elec       q    Type
REMARK                         _______ _______ _______ _____ _____    ______ ____
ROOT
ATOM      1  C   UNL     1       2.141   6.515  19.707  0.00  0.00    +0.000 C 
ATOM      2  O   UNL     1       1.710   5.935  20.705  0.00  0.00    +0.000 OA
ATOM      3  N   UNL     1       2.049   7.889  19.520  0.00  0.00    +0.000 N 
ATOM      4  C   UNL     1       1.617   8.688  20.654  0.00  0.00    +0.000 C 
ATOM      5  C   UNL     1       0.278   9.312  20.295  0.00  0.00    +0.000 C 
ATOM      6  C   UNL     1       0.426  10.267  19.080  0.00  0.00    +0.000 C 
ATOM      7  C   UNL     1       0.855   9.394  17.907  0.00  0.00    +0.000 C 
ATOM      8  C   UNL     1       2.102   8.605  18.230  0.00  0.00    +0.000 C 
ENDROOT
BRANCH   1  11
ATOM      9  C   UNL     1       4.779   5.050  17.411  0.00  0.00    +0.000 A 
ATOM     10  C   UNL     1       4.158   5.860  18.447  0.00  0.00    +0.000 A 
ATOM     11  C   UNL     1       2.857   5.705  18.677  0.00  0.00    +0.000 A 
ATOM     12  N   UNL     1       2.212   4.678  18.076  0.00  0.00    +0.000 N 
ATOM     13  C   UNL     1       2.877   3.793  17.277  0.00  0.00    +0.000 A 
ATOM     14  O   UNL     1       2.263   2.768  16.947  0.00  0.00    +0.000 OA
ATOM     15  N   UNL     1       4.162   4.044  16.879  0.00  0.00    +0.000 NA
ATOM     16  H   UNL     1       1.274   4.429  18.363  0.00  0.00    +0.000 HD
BRANCH   9  18
ATOM     17  C   UNL     1       7.219   4.750  17.879  0.00  0.00    +0.000 C 
ATOM     18  C   UNL     1       6.198   5.463  16.973  0.00  0.00    +0.000 C 
ATOM     19  C   UNL     1       6.360   6.990  17.113  0.00  0.00    +0.000 C 
ATOM     20  C   UNL     1       6.464   5.092  15.510  0.00  0.00    +0.000 C 
ENDBRANCH   9  18
ENDBRANCH   1  11
BRANCH   6  21
ATOM     21  C   UNL     1       1.418  11.462  19.295  0.00  0.00    +0.000 C 
BRANCH  21  22
ATOM     22  N   UNL     1       0.808  12.744  19.744  0.00  0.00    +0.000 NA
ATOM     23  C   UNL     1       1.741  13.535  20.563  0.00  0.00    +0.000 C 
ATOM     24  C   UNL     1       1.160  14.891  20.974  0.00  0.00    +0.000 C 
ATOM     25  C   UNL     1       0.725  15.692  19.756  0.00  0.00    +0.000 C 
ATOM     26  C   UNL     1      -0.287  14.884  18.957  0.00  0.00    +0.000 C 
ATOM     27  C   UNL     1       0.302  13.517  18.587  0.00  0.00    +0.000 C 
ENDBRANCH  21  22
ENDBRANCH   6  21
TORSDOF 4
ENDMDL
MODEL 5
REMARK VINA RESULT:      -7.3      1.282      1.713
REMARK  Name = 
REMARK  7 active torsions:
REMARK  status: ('A' for Active; 'I' for Inactive)
REMARK    1  A    between atoms: C_1  and  C_2
REMARK    2  A    between atoms: C_2  and  C_3
REMARK    3  A    between atoms: C_2  and  C_4
REMARK    4  A    between atoms: C_2  and  C_5
REMARK    5  A    between atoms: C_7  and  C_8
REMARK    6  A    between atoms: C_13  and  C_14
REMARK    7  A    between atoms: C_14  and  N_15
REMARK                            x       y       z     vdW  Elec       q    Type
REMARK                         _______ _______ _______ _____ _____    ______ ____
ROOT
ATOM      1  C   UNL     1       2.103   6.582  19.686  0.00  0.00    +0.000 C 
ATOM      2  O   UNL     1       1.717   6.048  20.727  0.00  0.00    +0.000 OA
ATOM      3  N   UNL     1       2.012   7.948  19.447  0.00  0.00    +0.000 N 
ATOM      4  C   UNL     1       1.640   8.798  20.565  0.00  0.00    +0.000 C 
ATOM      5  C   UNL     1       0.290   9.418  20.244  0.00  0.00    +0.000 C 
ATOM      6  C   UNL     1       0.387  10.321  18.985  0.00  0.00    +0.000 C 
ATOM      7  C   UNL     1       0.753   9.395  17.830  0.00  0.00    +0.000 C 
ATOM      8  C   UNL     1       2.008   8.609  18.127  0.00  0.00    +0.000 C 
ENDROOT
BRANCH   1  11
ATOM      9  C   UNL     1       4.589   5.062  17.260  0.00  0.00    +0.000 A 
ATOM     10  C   UNL     1       4.024   5.926  18.285  0.00  0.00    +0.000 A 
ATOM     11  C   UNL     1       2.763   5.724  18.658  0.00  0.00    +0.000 A 
ATOM     12  N   UNL     1       2.126   4.616  18.213  0.00  0.00    +0.000 N 
ATOM     13  C   UNL     1       2.763   3.701  17.425  0.00  0.00    +0.000 A 
ATOM     14  O   UNL     1       2.184   2.620  17.245  0.00  0.00    +0.000 OA
ATOM     15  N   UNL     1       3.986   3.983  16.878  0.00  0.00    +0.000 NA
ATOM     16  H   UNL     1       1.238   4.344  18.613  0.00  0.00    +0.000 HD
BRANCH   9  18
ATOM     17  C   UNL     1       5.819   5.440  15.114  0.00  0.00    +0.000 C 
ATOM     18  C   UNL     1       5.931   5.509  16.648  0.00  0.00    +0.000 C 
ATOM     19  C   UNL     1       7.058   4.572  17.127  0.00  0.00    +0.000 C 
ATOM     20  C   UNL     1       6.292   6.937  17.071  0.00  0.00    +0.000 C 
ENDBRANCH   9  18
ENDBRANCH   1  11
BRANCH   6  21
ATOM     21  C   UNL     1       1.397  11.514  19.103  0.00  0.00    +0.000 C 
BRANCH  21  22
ATOM     22  N   UNL     1       0.835  12.795  19.613  0.00  0.00    +0.000 NA
ATOM     23  C   UNL     1      -0.610  12.899  19.355  0.00  0.00    +0.000 C 
ATOM     24  C   UNL     1      -1.223  14.176  19.937  0.00  0.00    +0.000 C 
ATOM     25  C   UNL     1      -0.950  14.283  21.430  0.00  0.00    +0.000 C 
ATOM     26  C   UNL     1       0.552  14.239  21.671  0.00  0.00    +0.000 C 
ATOM     27  C   UNL     1       1.149  12.970  21.050  0.00  0.00    +0.000 C 
ENDBRANCH  21  22
ENDBRANCH   6  21
TORSDOF 4
ENDMDL
MODEL 6
REMARK VINA RESULT:      -7.2      1.082      1.819
REMARK  Name = 
REMARK  7 active torsions:
REMARK  status: ('A' for Active; 'I' for Inactive)
REMARK    1  A    between atoms: C_1  and  C_2
REMARK    2  A    between atoms: C_2  and  C_3
REMARK    3  A    between atoms: C_2  and  C_4
REMARK    4  A    between atoms: C_2  and  C_5
REMARK    5  A    between atoms: C_7  and  C_8
REMARK    6  A    between atoms: C_13  and  C_14
REMARK    7  A    between atoms: C_14  and  N_15
REMARK                            x       y       z     vdW  Elec       q    Type
REMARK                         _______ _______ _______ _____ _____    ______ ____
ROOT
ATOM      1  C   UNL     1       2.033   6.408  20.194  0.00  0.00    +0.000 C 
ATOM      2  O   UNL     1       1.578   5.709  21.101  0.00  0.00    +0.000 OA
ATOM      3  N   UNL     1       1.893   7.790  20.148  0.00  0.00    +0.000 N 
ATOM      4  C   UNL     1       1.371   8.447  21.335  0.00  0.00    +0.000 C 
ATOM      5  C   UNL     1       0.027   9.056  20.971  0.00  0.00    +0.000 C 
ATOM      6  C   UNL     1       0.195  10.141  19.874  0.00  0.00    +0.000 C 
ATOM      7  C   UNL     1       0.719   9.414  18.640  0.00  0.00    +0.000 C 
ATOM      8  C   UNL     1       1.980   8.641  18.946  0.00  0.00    +0.000 C 
ENDROOT
BRANCH   1  11
ATOM      9  C   UNL     1       4.864   5.191  17.985  0.00  0.00    +0.000 A 
ATOM     10  C   UNL     1       4.157   5.853  19.071  0.00  0.00    +0.000 A 
ATOM     11  C   UNL     1       2.833   5.741  19.125  0.00  0.00    +0.000 A 
ATOM     12  N   UNL     1       2.223   4.869  18.288  0.00  0.00    +0.000 N 
ATOM     13  C   UNL     1       2.942   4.092  17.427  0.00  0.00    +0.000 A 
ATOM     14  O   UNL     1       2.331   3.174  16.858  0.00  0.00    +0.000 OA
ATOM     15  N   UNL     1       4.275   4.328  17.222  0.00  0.00    +0.000 NA
ATOM     16  H   UNL     1       1.249   4.632  18.422  0.00  0.00    +0.000 HD
BRANCH   9  18
ATOM     17  C   UNL     1       6.998   4.565  16.837  0.00  0.00    +0.000 C 
ATOM     18  C   UNL     1       6.341   5.585  17.785  0.00  0.00    +0.000 C 
ATOM     19  C   UNL     1       7.069   5.574  19.144  0.00  0.00    +0.000 C 
ATOM     20  C   UNL     1       6.470   6.993  17.192  0.00  0.00    +0.000 C 
ENDBRANCH   9  18
ENDBRANCH   1  11
BRANCH   6  21
ATOM     21  C   UNL     1       1.124  11.341  20.267  0.00  0.00    +0.000 C 
BRANCH  21  22
ATOM     22  N   UNL     1       0.434  12.616  20.606  0.00  0.00    +0.000 NA
ATOM     23  C   UNL     1      -0.297  13.164  19.453  0.00  0.00    +0.000 C 
ATOM     24  C   UNL     1      -1.075  14.437  19.798  0.00  0.00    +0.000 C 
ATOM     25  C   UNL     1      -2.032  14.196  20.957  0.00  0.00    +0.000 C 
ATOM     26  C   UNL     1      -1.249  13.690  22.160  0.00  0.00    +0.000 C 
ATOM     27  C   UNL     1      -0.450  12.437  21.781  0.00  0.00    +0.000 C 
ENDBRANCH  21  22
ENDBRANCH   6  21
TORSDOF 4
ENDMDL
MODEL 7
REMARK VINA RESULT:      -7.0      2.553      3.930
REMARK  Name = 
REMARK  7 active torsions:
REMARK  status: ('A' for Active; 'I' for Inactive)
REMARK    1  A    between atoms: C_1  and  C_2
REMARK    2  A    between atoms: C_2  and  C_3
REMARK    3  A    between atoms: C_2  and  C_4
REMARK    4  A    between atoms: C_2  and  C_5
REMARK    5  A    between atoms: C_7  and  C_8
REMARK    6  A    between atoms: C_13  and  C_14
REMARK    7  A    between atoms: C_14  and  N_15
REMARK                            x       y       z     vdW  Elec       q    Type
REMARK                         _______ _______ _______ _____ _____    ______ ____
ROOT
ATOM      1  C   UNL     1       2.867   7.598  18.063  0.00  0.00    +0.000 C 
ATOM      2  O   UNL     1       3.365   7.988  17.006  0.00  0.00    +0.000 OA
ATOM      3  N   UNL     1       1.844   8.271  18.722  0.00  0.00    +0.000 N 
ATOM      4  C   UNL     1       1.200   9.362  18.012  0.00  0.00    +0.000 C 
ATOM      5  C   UNL     1       1.506  10.647  18.766  0.00  0.00    +0.000 C 
ATOM      6  C   UNL     1       0.905  10.601  20.196  0.00  0.00    +0.000 C 
ATOM      7  C   UNL     1       1.620   9.464  20.917  0.00  0.00    +0.000 C 
ATOM      8  C   UNL     1       1.505   8.165  20.155  0.00  0.00    +0.000 C 
ENDROOT
BRANCH   1  11
ATOM      9  C   UNL     1       3.036   4.097  19.510  0.00  0.00    +0.000 A 
ATOM     10  C   UNL     1       2.497   5.323  18.941  0.00  0.00    +0.000 A 
ATOM     11  C   UNL     1       3.343   6.302  18.630  0.00  0.00    +0.000 A 
ATOM     12  N   UNL     1       4.671   6.047  18.677  0.00  0.00    +0.000 N 
ATOM     13  C   UNL     1       5.145   4.809  19.002  0.00  0.00    +0.000 A 
ATOM     14  O   UNL     1       6.353   4.604  18.810  0.00  0.00    +0.000 OA
ATOM     15  N   UNL     1       4.306   3.853  19.507  0.00  0.00    +0.000 NA
ATOM     16  H   UNL     1       5.329   6.706  18.282  0.00  0.00    +0.000 HD
BRANCH   9  18
ATOM     17  C   UNL     1       1.866   1.908  19.190  0.00  0.00    +0.000 C 
ATOM     18  C   UNL     1       2.016   3.120  20.128  0.00  0.00    +0.000 C 
ATOM     19  C   UNL     1       0.654   3.824  20.287  0.00  0.00    +0.000 C 
ATOM     20  C   UNL     1       2.466   2.643  21.513  0.00  0.00    +0.000 C 
ENDBRANCH   9  18
ENDBRANCH   1  11
BRANCH   6  21
ATOM     21  C   UNL     1      -0.652  10.424  20.254  0.00  0.00    +0.000 C 
BRANCH  21  22
ATOM     22  N   UNL     1      -1.401  11.476  20.996  0.00  0.00    +0.000 NA
ATOM     23  C   UNL     1      -0.782  11.768  22.299  0.00  0.00    +0.000 C 
ATOM     24  C   UNL     1      -1.493  12.899  23.048  0.00  0.00    +0.000 C 
ATOM     25  C   UNL     1      -1.553  14.162  22.202  0.00  0.00    +0.000 C 
ATOM     26  C   UNL     1      -2.253  13.855  20.886  0.00  0.00    +0.000 C 
ATOM     27  C   UNL     1      -1.546  12.697  20.171  0.00  0.00    +0.000 C 
ENDBRANCH  21  22
ENDBRANCH   6  21
TORSDOF 4
ENDMDL
MODEL 8
REMARK VINA RESULT:      -7.0      2.616      8.572
REMARK  Name = 
REMARK  7 active torsions:
REMARK  status: ('A' for Active; 'I' for Inactive)
REMARK    1  A    between atoms: C_1  and  C_2
REMARK    2  A    between atoms: C_2  and  C_3
REMARK    3  A    between atoms: C_2  and  C_4
REMARK    4  A    between atoms: C_2  and  C_5
REMARK    5  A    between atoms: C_7  and  C_8
REMARK    6  A    between atoms: C_13  and  C_14
REMARK    7  A    between atoms: C_14  and  N_15
REMARK                            x       y       z     vdW  Elec       q    Type
REMARK                         _______ _______ _______ _____ _____    ______ ____
ROOT
ATOM      1  C   UNL     1       1.122   9.263  19.104  0.00  0.00    +0.000 C 
ATOM      2  O   UNL     1       0.924   9.703  17.971  0.00  0.00    +0.000 OA
ATOM      3  N   UNL     1       1.961   8.188  19.373  0.00  0.00    +0.000 N 
ATOM      4  C   UNL     1       2.799   7.709  18.287  0.00  0.00    +0.000 C 
ATOM      5  C   UNL     1       2.348   6.298  17.944  0.00  0.00    +0.000 C 
ATOM      6  C   UNL     1       2.561   5.347  19.151  0.00  0.00    +0.000 C 
ATOM      7  C   UNL     1       1.651   5.862  20.260  0.00  0.00    +0.000 C 
ATOM      8  C   UNL     1       1.918   7.317  20.564  0.00  0.00    +0.000 C 
ENDROOT
BRANCH   1  11
ATOM      9  C   UNL     1      -1.128  11.431  21.252  0.00  0.00    +0.000 A 
ATOM     10  C   UNL     1      -0.570  10.766  20.085  0.00  0.00    +0.000 A 
ATOM     11  C   UNL     1       0.478   9.964  20.254  0.00  0.00    +0.000 A 
ATOM     12  N   UNL     1       0.858   9.655  21.515  0.00  0.00    +0.000 N 
ATOM     13  C   UNL     1       0.169  10.121  22.598  0.00  0.00    +0.000 A 
ATOM     14  O   UNL     1       0.448   9.618  23.697  0.00  0.00    +0.000 OA
ATOM     15  N   UNL     1      -0.784  11.092  22.452  0.00  0.00    +0.000 NA
ATOM     16  H   UNL     1       1.531   8.917  21.677  0.00  0.00    +0.000 HD
BRANCH   9  18
ATOM     17  C   UNL     1      -1.356  13.887  20.830  0.00  0.00    +0.000 C 
ATOM     18  C   UNL     1      -2.134  12.567  20.980  0.00  0.00    +0.000 C 
ATOM     19  C   UNL     1      -3.121  12.679  22.159  0.00  0.00    +0.000 C 
ATOM     20  C   UNL     1      -2.947  12.303  19.707  0.00  0.00    +0.000 C 
ENDBRANCH   9  18
ENDBRANCH   1  11
BRANCH   6  21
ATOM     21  C   UNL     1       4.045   5.222  19.642  0.00  0.00    +0.000 C 
BRANCH  21  22
ATOM     22  N   UNL     1       5.094   5.395  18.600  0.00  0.00    +0.000 NA
ATOM     23  C   UNL     1       6.423   5.609  19.195  0.00  0.00    +0.000 C 
ATOM     24  C   UNL     1       7.530   5.717  18.142  0.00  0.00    +0.000 C 
ATOM     25  C   UNL     1       7.550   4.490  17.241  0.00  0.00    +0.000 C 
ATOM     26  C   UNL     1       6.187   4.324  16.586  0.00  0.00    +0.000 C 
ATOM     27  C   UNL     1       5.092   4.253  17.657  0.00  0.00    +0.000 C 
ENDBRANCH  21  22
ENDBRANCH   6  21
TORSDOF 4
ENDMDL
MODEL 9
REMARK VINA RESULT:      -6.8      2.823      4.218
REMARK  Name = 
REMARK  7 active torsions:
REMARK  status: ('A' for Active; 'I' for Inactive)
REMARK    1  A    between atoms: C_1  and  C_2
REMARK    2  A    between atoms: C_2  and  C_3
REMARK    3  A    between atoms: C_2  and  C_4
REMARK    4  A    between atoms: C_2  and  C_5
REMARK    5  A    between atoms: C_7  and  C_8
REMARK    6  A    between atoms: C_13  and  C_14
REMARK    7  A    between atoms: C_14  and  N_15
REMARK                            x       y       z     vdW  Elec       q    Type
REMARK                         _______ _______ _______ _____ _____    ______ ____
ROOT
ATOM      1  C   UNL     1       2.610   7.732  18.327  0.00  0.00    +0.000 C 
ATOM      2  O   UNL     1       3.005   8.107  17.222  0.00  0.00    +0.000 OA
ATOM      3  N   UNL     1       1.664   8.420  19.077  0.00  0.00    +0.000 N 
ATOM      4  C   UNL     1       0.962   9.512  18.424  0.00  0.00    +0.000 C 
ATOM      5  C   UNL     1       1.353  10.800  19.131  0.00  0.00    +0.000 C 
ATOM      6  C   UNL     1       0.895  10.772  20.614  0.00  0.00    +0.000 C 
ATOM      7  C   UNL     1       1.668   9.635  21.272  0.00  0.00    +0.000 C 
ATOM      8  C   UNL     1       1.467   8.331  20.537  0.00  0.00    +0.000 C 
ENDROOT
BRANCH   1  11
ATOM      9  C   UNL     1       2.901   4.173  19.603  0.00  0.00    +0.000 A 
ATOM     10  C   UNL     1       2.325   5.395  19.064  0.00  0.00    +0.000 A 
ATOM     11  C   UNL     1       3.128   6.436  18.856  0.00  0.00    +0.000 A 
ATOM     12  N   UNL     1       4.464   6.255  18.974  0.00  0.00    +0.000 N 
ATOM     13  C   UNL     1       4.991   5.029  19.265  0.00  0.00    +0.000 A 
ATOM     14  O   UNL     1       6.218   4.904  19.140  0.00  0.00    +0.000 OA
ATOM     15  N   UNL     1       4.182   4.001  19.667  0.00  0.00    +0.000 NA
ATOM     16  H   UNL     1       5.104   6.970  18.655  0.00  0.00    +0.000 HD
BRANCH   9  18
ATOM     17  C   UNL     1       2.295   2.710  21.540  0.00  0.00    +0.000 C 
ATOM     18  C   UNL     1       1.906   3.108  20.105  0.00  0.00    +0.000 C 
ATOM     19  C   UNL     1       1.968   1.869  19.189  0.00  0.00    +0.000 C 
ATOM     20  C   UNL     1       0.467   3.634  20.091  0.00  0.00    +0.000 C 
ENDBRANCH   9  18
ENDBRANCH   1  11
BRANCH   6  21
ATOM     21  C   UNL     1      -0.650  10.611  20.827  0.00  0.00    +0.000 C 
BRANCH  21  22
ATOM     22  N   UNL     1      -1.360  11.801  21.372  0.00  0.00    +0.000 NA
ATOM     23  C   UNL     1      -2.473  12.217  20.504  0.00  0.00    +0.000 C 
ATOM     24  C   UNL     1      -3.264  13.394  21.082  0.00  0.00    +0.000 C 
ATOM     25  C   UNL     1      -3.781  13.072  22.477  0.00  0.00    +0.000 C 
ATOM     26  C   UNL     1      -2.610  12.706  23.376  0.00  0.00    +0.000 C 
ATOM     27  C   UNL     1      -1.812  11.551  22.760  0.00  0.00    +0.000 C 
ENDBRANCH  21  22
ENDBRANCH   6  21
TORSDOF 4
ENDMDL
