MODEL 1
REMARK VINA RESULT:      -8.6      0.000      0.000
REMARK  Name = 
REMARK  6 active torsions:
REMARK  status: ('A' for Active; 'I' for Inactive)
REMARK    1  A    between atoms: C_1  and  O_2
REMARK    2  A    between atoms: O_2  and  C_3
REMARK    3  A    between atoms: C_9  and  C_10
REMARK    4  A    between atoms: C_12  and  C_13
REMARK    5  A    between atoms: N_18  and  C_19
REMARK    6  A    between atoms: C_20  and  C_21
REMARK                            x       y       z     vdW  Elec       q    Type
REMARK                         _______ _______ _______ _____ _____    ______ ____
ROOT
ATOM      1  C   UNL     1       2.200   5.868  19.746  0.00  0.00    +0.000 A 
ATOM      2  C   UNL     1       1.646   4.980  20.696  0.00  0.00    +0.000 A 
ATOM      3  C   UNL     1       1.924   3.606  20.671  0.00  0.00    +0.000 A 
ATOM      4  C   UNL     1       1.323   2.666  21.673  0.00  0.00    +0.000 C 
ATOM      5  C   UNL     1       2.781   3.116  19.688  0.00  0.00    +0.000 A 
ATOM      6  C   UNL     1       3.353   3.990  18.754  0.00  0.00    +0.000 A 
ATOM      7  C   UNL     1       4.261   3.470  17.714  0.00  0.00    +0.000 A 
ATOM      8  O   UNL     1       4.508   2.266  17.683  0.00  0.00    +0.000 OA
ATOM      9  N   UNL     1       4.783   4.399  16.817  0.00  0.00    +0.000 N 
ATOM     10  C   UNL     1       5.675   3.898  15.784  0.00  0.00    +0.000 C 
ATOM     11  C   UNL     1       4.475   5.733  16.927  0.00  0.00    +0.000 A 
ATOM     12  C   UNL     1       5.046   6.737  15.947  0.00  0.00    +0.000 C 
ATOM     13  N   UNL     1       3.695   6.212  17.841  0.00  0.00    +0.000 NA
ATOM     14  C   UNL     1       3.086   5.358  18.770  0.00  0.00    +0.000 A 
ENDROOT
BRANCH   1  21
ATOM     15  C   UNL     1       0.618  11.898  19.977  0.00  0.00    +0.000 A 
ATOM     16  C   UNL     1       0.304  11.475  21.264  0.00  0.00    +0.000 A 
ATOM     17  C   UNL     1       0.524  10.142  21.622  0.00  0.00    +0.000 A 
ATOM     18 CL   UNL     1       0.144   9.566  23.188  0.00  0.00    +0.000 Cl
ATOM     19  C   UNL     1       1.053   9.198  20.717  0.00  0.00    +0.000 A 
ATOM     20  N   UNL     1       1.314   7.847  20.927  0.00  0.00    +0.000 NA
ATOM     21  C   UNL     1       1.832   7.296  19.845  0.00  0.00    +0.000 A 
ATOM     22  S   UNL     1       1.932   8.352  18.488  0.00  0.00    +0.000 S 
ATOM     23  C   UNL     1       1.355   9.657  19.435  0.00  0.00    +0.000 A 
ATOM     24  C   UNL     1       1.162  10.998  19.054  0.00  0.00    +0.000 A 
BRANCH  15  26
ATOM     25  C   UNL     1      -0.402  13.293  18.344  0.00  0.00    +0.000 C 
ATOM     26  O   UNL     1       0.436  13.163  19.486  0.00  0.00    +0.000 OA
ENDBRANCH  15  26
ENDBRANCH   1  21
TORSDOF 2
ENDMDL
MODEL 2
REMARK VINA RESULT:      -7.9      1.276      1.377
REMARK  Name = 
REMARK  6 active torsions:
REMARK  status: ('A' for Active; 'I' for Inactive)
REMARK    1  A    between atoms: C_1  and  O_2
REMARK    2  A    between atoms: O_2  and  C_3
REMARK    3  A    between atoms: C_9  and  C_10
REMARK    4  A    between atoms: C_12  and  C_13
REMARK    5  A    between atoms: N_18  and  C_19
REMARK    6  A    between atoms: C_20  and  C_21
REMARK                            x       y       z     vdW  Elec       q    Type
REMARK                         _______ _______ _______ _____ _____    ______ ____
ROOT
ATOM      1  C   UNL     1       2.406   6.096  18.539  0.00  0.00    +0.000 A 
ATOM      2  C   UNL     1       1.466   5.065  18.770  0.00  0.00    +0.000 A 
ATOM      3  C   UNL     1       1.736   3.733  18.431  0.00  0.00    +0.000 A 
ATOM      4  C   UNL     1       0.729   2.645  18.665  0.00  0.00    +0.000 C 
ATOM      5  C   UNL     1       2.971   3.423  17.864  0.00  0.00    +0.000 A 
ATOM      6  C   UNL     1       3.918   4.433  17.650  0.00  0.00    +0.000 A 
ATOM      7  C   UNL     1       5.225   4.105  17.051  0.00  0.00    +0.000 A 
ATOM      8  O   UNL     1       5.469   2.938  16.748  0.00  0.00    +0.000 OA
ATOM      9  N   UNL     1       6.111   5.163  16.862  0.00  0.00    +0.000 N 
ATOM     10  C   UNL     1       7.401   4.853  16.267  0.00  0.00    +0.000 C 
ATOM     11  C   UNL     1       5.775   6.439  17.243  0.00  0.00    +0.000 A 
ATOM     12  C   UNL     1       6.743   7.584  17.033  0.00  0.00    +0.000 C 
ATOM     13  N   UNL     1       4.641   6.745  17.786  0.00  0.00    +0.000 NA
ATOM     14  C   UNL     1       3.663   5.761  17.985  0.00  0.00    +0.000 A 
ENDROOT
BRANCH   1  21
ATOM     15  C   UNL     1       0.731  11.938  19.946  0.00  0.00    +0.000 A 
ATOM     16  C   UNL     1       0.603  11.304  21.177  0.00  0.00    +0.000 A 
ATOM     17  C   UNL     1       0.899   9.942  21.282  0.00  0.00    +0.000 A 
ATOM     18 CL   UNL     1       0.745   9.110  22.770  0.00  0.00    +0.000 Cl
ATOM     19  C   UNL     1       1.323   9.177  20.176  0.00  0.00    +0.000 A 
ATOM     20  N   UNL     1       1.641   7.822  20.129  0.00  0.00    +0.000 NA
ATOM     21  C   UNL     1       2.023   7.472  18.915  0.00  0.00    +0.000 A 
ATOM     22  S   UNL     1       1.915   8.732  17.746  0.00  0.00    +0.000 S 
ATOM     23  C   UNL     1       1.440   9.846  18.958  0.00  0.00    +0.000 A 
ATOM     24  C   UNL     1       1.167  11.219  18.827  0.00  0.00    +0.000 A 
BRANCH  15  26
ATOM     25  C   UNL     1      -0.255  13.544  18.496  0.00  0.00    +0.000 C 
ATOM     26  O   UNL     1       0.456  13.255  19.693  0.00  0.00    +0.000 OA
ENDBRANCH  15  26
ENDBRANCH   1  21
TORSDOF 2
ENDMDL
MODEL 3
REMARK VINA RESULT:      -7.9      3.170      8.008
REMARK  Name = 
REMARK  6 active torsions:
REMARK  status: ('A' for Active; 'I' for Inactive)
REMARK    1  A    between atoms: C_1  and  O_2
REMARK    2  A    between atoms: O_2  and  C_3
REMARK    3  A    between atoms: C_9  and  C_10
REMARK    4  A    between atoms: C_12  and  C_13
REMARK    5  A    between atoms: N_18  and  C_19
REMARK    6  A    between atoms: C_20  and  C_21
REMARK                            x       y       z     vdW  Elec       q    Type
REMARK                         _______ _______ _______ _____ _____    ______ ____
ROOT
ATOM      1  C   UNL     1      -0.227  10.374  19.733  0.00  0.00    +0.000 A 
ATOM      2  C   UNL     1      -0.032  10.993  20.989  0.00  0.00    +0.000 A 
ATOM      3  C   UNL     1      -0.946  11.924  21.502  0.00  0.00    +0.000 A 
ATOM      4  C   UNL     1      -0.727  12.588  22.829  0.00  0.00    +0.000 C 
ATOM      5  C   UNL     1      -2.080  12.230  20.752  0.00  0.00    +0.000 A 
ATOM      6  C   UNL     1      -2.294  11.607  19.516  0.00  0.00    +0.000 A 
ATOM      7  C   UNL     1      -3.495  11.931  18.723  0.00  0.00    +0.000 A 
ATOM      8  O   UNL     1      -4.300  12.749  19.164  0.00  0.00    +0.000 OA
ATOM      9  N   UNL     1      -3.635  11.277  17.501  0.00  0.00    +0.000 N 
ATOM     10  C   UNL     1      -4.812  11.592  16.708  0.00  0.00    +0.000 C 
ATOM     11  C   UNL     1      -2.701  10.361  17.083  0.00  0.00    +0.000 A 
ATOM     12  C   UNL     1      -2.859   9.655  15.752  0.00  0.00    +0.000 C 
ATOM     13  N   UNL     1      -1.650  10.049  17.770  0.00  0.00    +0.000 NA
ATOM     14  C   UNL     1      -1.395  10.678  18.997  0.00  0.00    +0.000 A 
ENDROOT
BRANCH   1  21
ATOM     15  C   UNL     1       4.212   6.488  17.707  0.00  0.00    +0.000 A 
ATOM     16  C   UNL     1       3.700   5.788  18.794  0.00  0.00    +0.000 A 
ATOM     17  C   UNL     1       2.653   6.341  19.536  0.00  0.00    +0.000 A 
ATOM     18 CL   UNL     1       1.994   5.529  20.891  0.00  0.00    +0.000 Cl
ATOM     19  C   UNL     1       2.094   7.598  19.224  0.00  0.00    +0.000 A 
ATOM     20  N   UNL     1       1.064   8.275  19.874  0.00  0.00    +0.000 NA
ATOM     21  C   UNL     1       0.802   9.419  19.271  0.00  0.00    +0.000 A 
ATOM     22  S   UNL     1       1.852   9.787  17.957  0.00  0.00    +0.000 S 
ATOM     23  C   UNL     1       2.633   8.272  18.129  0.00  0.00    +0.000 A 
ATOM     24  C   UNL     1       3.673   7.729  17.353  0.00  0.00    +0.000 A 
BRANCH  15  26
ATOM     25  C   UNL     1       5.225   4.723  16.476  0.00  0.00    +0.000 C 
ATOM     26  O   UNL     1       5.246   6.077  16.908  0.00  0.00    +0.000 OA
ENDBRANCH  15  26
ENDBRANCH   1  21
TORSDOF 2
ENDMDL
MODEL 4
REMARK VINA RESULT:      -7.7      2.094      3.862
REMARK  Name = 
REMARK  6 active torsions:
REMARK  status: ('A' for Active; 'I' for Inactive)
REMARK    1  A    between atoms: C_1  and  O_2
REMARK    2  A    between atoms: O_2  and  C_3
REMARK    3  A    between atoms: C_9  and  C_10
REMARK    4  A    between atoms: C_12  and  C_13
REMARK    5  A    between atoms: N_18  and  C_19
REMARK    6  A    between atoms: C_20  and  C_21
REMARK                            x       y       z     vdW  Elec       q    Type
REMARK                         _______ _______ _______ _____ _____    ______ ____
ROOT
ATOM      1  C   UNL     1       2.776   6.857  18.590  0.00  0.00    +0.000 A 
ATOM      2  C   UNL     1       3.605   7.392  17.578  0.00  0.00    +0.000 A 
ATOM      3  C   UNL     1       4.394   6.572  16.761  0.00  0.00    +0.000 A 
ATOM      4  C   UNL     1       5.282   7.147  15.697  0.00  0.00    +0.000 C 
ATOM      5  C   UNL     1       4.345   5.193  16.951  0.00  0.00    +0.000 A 
ATOM      6  C   UNL     1       3.513   4.649  17.939  0.00  0.00    +0.000 A 
ATOM      7  C   UNL     1       3.460   3.189  18.139  0.00  0.00    +0.000 A 
ATOM      8  O   UNL     1       4.153   2.462  17.429  0.00  0.00    +0.000 OA
ATOM      9  N   UNL     1       2.616   2.724  19.144  0.00  0.00    +0.000 N 
ATOM     10  C   UNL     1       2.560   1.286  19.356  0.00  0.00    +0.000 C 
ATOM     11  C   UNL     1       1.858   3.597  19.886  0.00  0.00    +0.000 A 
ATOM     12  C   UNL     1       0.942   3.085  20.978  0.00  0.00    +0.000 C 
ATOM     13  N   UNL     1       1.876   4.879  19.715  0.00  0.00    +0.000 NA
ATOM     14  C   UNL     1       2.721   5.454  18.755  0.00  0.00    +0.000 A 
ENDROOT
BRANCH   1  21
ATOM     15  C   UNL     1      -0.447  10.784  22.210  0.00  0.00    +0.000 A 
ATOM     16  C   UNL     1      -0.367  11.499  21.021  0.00  0.00    +0.000 A 
ATOM     17  C   UNL     1       0.298  10.939  19.926  0.00  0.00    +0.000 A 
ATOM     18 CL   UNL     1       0.437  11.781  18.443  0.00  0.00    +0.000 Cl
ATOM     19  C   UNL     1       0.901   9.666  19.984  0.00  0.00    +0.000 A 
ATOM     20  N   UNL     1       1.600   8.990  18.987  0.00  0.00    +0.000 NA
ATOM     21  C   UNL     1       1.994   7.804  19.411  0.00  0.00    +0.000 A 
ATOM     22  S   UNL     1       1.637   7.488  21.066  0.00  0.00    +0.000 S 
ATOM     23  C   UNL     1       0.802   8.978  21.193  0.00  0.00    +0.000 A 
ATOM     24  C   UNL     1       0.122   9.509  22.304  0.00  0.00    +0.000 A 
BRANCH  15  26
ATOM     25  C   UNL     1      -2.287  11.897  23.226  0.00  0.00    +0.000 C 
ATOM     26  O   UNL     1      -1.045  11.216  23.363  0.00  0.00    +0.000 OA
ENDBRANCH  15  26
ENDBRANCH   1  21
TORSDOF 2
ENDMDL
MODEL 5
REMARK VINA RESULT:      -7.6      2.074      2.527
REMARK  Name = 
REMARK  6 active torsions:
REMARK  status: ('A' for Active; 'I' for Inactive)
REMARK    1  A    between atoms: C_1  and  O_2
REMARK    2  A    between atoms: O_2  and  C_3
REMARK    3  A    between atoms: C_9  and  C_10
REMARK    4  A    between atoms: C_12  and  C_13
REMARK    5  A    between atoms: N_18  and  C_19
REMARK    6  A    between atoms: C_20  and  C_21
REMARK                            x       y       z     vdW  Elec       q    Type
REMARK                         _______ _______ _______ _____ _____    ______ ____
ROOT
ATOM      1  C   UNL     1       2.442   5.524  18.724  0.00  0.00    +0.000 A 
ATOM      2  C   UNL     1       1.627   4.376  18.854  0.00  0.00    +0.000 A 
ATOM      3  C   UNL     1       1.984   3.150  18.278  0.00  0.00    +0.000 A 
ATOM      4  C   UNL     1       1.109   1.938  18.407  0.00  0.00    +0.000 C 
ATOM      5  C   UNL     1       3.181   3.067  17.570  0.00  0.00    +0.000 A 
ATOM      6  C   UNL     1       4.007   4.192  17.452  0.00  0.00    +0.000 A 
ATOM      7  C   UNL     1       5.275   4.103  16.704  0.00  0.00    +0.000 A 
ATOM      8  O   UNL     1       5.594   3.032  16.192  0.00  0.00    +0.000 OA
ATOM      9  N   UNL     1       6.038   5.266  16.623  0.00  0.00    +0.000 N 
ATOM     10  C   UNL     1       7.288   5.193  15.883  0.00  0.00    +0.000 C 
ATOM     11  C   UNL     1       5.625   6.423  17.238  0.00  0.00    +0.000 A 
ATOM     12  C   UNL     1       6.459   7.683  17.145  0.00  0.00    +0.000 C 
ATOM     13  N   UNL     1       4.525   6.518  17.913  0.00  0.00    +0.000 NA
ATOM     14  C   UNL     1       3.665   5.416  18.023  0.00  0.00    +0.000 A 
ENDROOT
BRANCH   1  21
ATOM     15  C   UNL     1       0.488  10.731  21.550  0.00  0.00    +0.000 A 
ATOM     16  C   UNL     1       0.923  11.222  20.324  0.00  0.00    +0.000 A 
ATOM     17  C   UNL     1       1.446  10.338  19.376  0.00  0.00    +0.000 A 
ATOM     18 CL   UNL     1       2.008  10.891  17.857  0.00  0.00    +0.000 Cl
ATOM     19  C   UNL     1       1.555   8.953  19.620  0.00  0.00    +0.000 A 
ATOM     20  N   UNL     1       2.060   7.962  18.782  0.00  0.00    +0.000 NA
ATOM     21  C   UNL     1       1.972   6.775  19.354  0.00  0.00    +0.000 A 
ATOM     22  S   UNL     1       1.376   6.807  20.969  0.00  0.00    +0.000 S 
ATOM     23  C   UNL     1       1.110   8.496  20.860  0.00  0.00    +0.000 A 
ATOM     24  C   UNL     1       0.561   9.361  21.825  0.00  0.00    +0.000 A 
BRANCH  15  26
ATOM     25  C   UNL     1      -1.274  11.067  23.111  0.00  0.00    +0.000 C 
ATOM     26  O   UNL     1      -0.023  11.481  22.575  0.00  0.00    +0.000 OA
ENDBRANCH  15  26
ENDBRANCH   1  21
TORSDOF 2
ENDMDL
MODEL 6
REMARK VINA RESULT:      -7.5      1.538      3.378
REMARK  Name = 
REMARK  6 active torsions:
REMARK  status: ('A' for Active; 'I' for Inactive)
REMARK    1  A    between atoms: C_1  and  O_2
REMARK    2  A    between atoms: O_2  and  C_3
REMARK    3  A    between atoms: C_9  and  C_10
REMARK    4  A    between atoms: C_12  and  C_13
REMARK    5  A    between atoms: N_18  and  C_19
REMARK    6  A    between atoms: C_20  and  C_21
REMARK                            x       y       z     vdW  Elec       q    Type
REMARK                         _______ _______ _______ _____ _____    ______ ____
ROOT
ATOM      1  C   UNL     1       3.064   6.928  18.066  0.00  0.00    +0.000 A 
ATOM      2  C   UNL     1       4.111   7.271  17.179  0.00  0.00    +0.000 A 
ATOM      3  C   UNL     1       4.952   6.299  16.621  0.00  0.00    +0.000 A 
ATOM      4  C   UNL     1       6.069   6.670  15.691  0.00  0.00    +0.000 C 
ATOM      5  C   UNL     1       4.735   4.961  16.944  0.00  0.00    +0.000 A 
ATOM      6  C   UNL     1       3.688   4.608  17.806  0.00  0.00    +0.000 A 
ATOM      7  C   UNL     1       3.457   3.192  18.146  0.00  0.00    +0.000 A 
ATOM      8  O   UNL     1       4.193   2.333  17.664  0.00  0.00    +0.000 OA
ATOM      9  N   UNL     1       2.403   2.920  19.015  0.00  0.00    +0.000 N 
ATOM     10  C   UNL     1       2.169   1.527  19.364  0.00  0.00    +0.000 C 
ATOM     11  C   UNL     1       1.612   3.933  19.500  0.00  0.00    +0.000 A 
ATOM     12  C   UNL     1       0.468   3.629  20.445  0.00  0.00    +0.000 C 
ATOM     13  N   UNL     1       1.786   5.179  19.200  0.00  0.00    +0.000 NA
ATOM     14  C   UNL     1       2.843   5.565  18.365  0.00  0.00    +0.000 A 
ENDROOT
BRANCH   1  21
ATOM     15  C   UNL     1      -0.499  11.571  20.226  0.00  0.00    +0.000 A 
ATOM     16  C   UNL     1      -0.124  10.932  21.403  0.00  0.00    +0.000 A 
ATOM     17  C   UNL     1       0.705   9.809  21.341  0.00  0.00    +0.000 A 
ATOM     18 CL   UNL     1       1.186   8.978  22.758  0.00  0.00    +0.000 Cl
ATOM     19  C   UNL     1       1.178   9.291  20.118  0.00  0.00    +0.000 A 
ATOM     20  N   UNL     1       1.995   8.183  19.903  0.00  0.00    +0.000 NA
ATOM     21  C   UNL     1       2.243   8.027  18.616  0.00  0.00    +0.000 A 
ATOM     22  S   UNL     1       1.419   9.140  17.593  0.00  0.00    +0.000 S 
ATOM     23  C   UNL     1       0.782   9.956  18.958  0.00  0.00    +0.000 A 
ATOM     24  C   UNL     1      -0.037  11.100  18.992  0.00  0.00    +0.000 A 
BRANCH  15  26
ATOM     25  C   UNL     1      -2.720  12.415  20.129  0.00  0.00    +0.000 C 
ATOM     26  O   UNL     1      -1.320  12.663  20.136  0.00  0.00    +0.000 OA
ENDBRANCH  15  26
ENDBRANCH   1  21
TORSDOF 2
ENDMDL
MODEL 7
REMARK VINA RESULT:      -7.5      3.118      7.308
REMARK  Name = 
REMARK  6 active torsions:
REMARK  status: ('A' for Active; 'I' for Inactive)
REMARK    1  A    between atoms: C_1  and  O_2
REMARK    2  A    between atoms: O_2  and  C_3
REMARK    3  A    between atoms: C_9  and  C_10
REMARK    4  A    between atoms: C_12  and  C_13
REMARK    5  A    between atoms: N_18  and  C_19
REMARK    6  A    between atoms: C_20  and  C_21
REMARK                            x       y       z     vdW  Elec       q    Type
REMARK                         _______ _______ _______ _____ _____    ______ ____
ROOT
ATOM      1  C   UNL     1       3.109   5.199  19.052  0.00  0.00    +0.000 A 
ATOM      2  C   UNL     1       2.916   4.094  19.913  0.00  0.00    +0.000 A 
ATOM      3  C   UNL     1       2.119   4.186  21.062  0.00  0.00    +0.000 A 
ATOM      4  C   UNL     1       1.928   3.015  21.979  0.00  0.00    +0.000 C 
ATOM      5  C   UNL     1       1.494   5.398  21.347  0.00  0.00    +0.000 A 
ATOM      6  C   UNL     1       1.661   6.494  20.490  0.00  0.00    +0.000 A 
ATOM      7  C   UNL     1       0.999   7.776  20.791  0.00  0.00    +0.000 A 
ATOM      8  O   UNL     1       0.300   7.866  21.799  0.00  0.00    +0.000 OA
ATOM      9  N   UNL     1       1.219   8.821  19.897  0.00  0.00    +0.000 N 
ATOM     10  C   UNL     1       0.576  10.093  20.187  0.00  0.00    +0.000 C 
ATOM     11  C   UNL     1       1.999   8.639  18.781  0.00  0.00    +0.000 A 
ATOM     12  C   UNL     1       2.235   9.780  17.814  0.00  0.00    +0.000 C 
ATOM     13  N   UNL     1       2.575   7.518  18.489  0.00  0.00    +0.000 NA
ATOM     14  C   UNL     1       2.449   6.414  19.343  0.00  0.00    +0.000 A 
ENDROOT
BRANCH   1  21
ATOM     15  C   UNL     1       6.644   4.337  13.985  0.00  0.00    +0.000 A 
ATOM     16  C   UNL     1       7.370   5.301  14.674  0.00  0.00    +0.000 A 
ATOM     17  C   UNL     1       6.895   5.773  15.901  0.00  0.00    +0.000 A 
ATOM     18 CL   UNL     1       7.743   6.969  16.784  0.00  0.00    +0.000 Cl
ATOM     19  C   UNL     1       5.692   5.306  16.470  0.00  0.00    +0.000 A 
ATOM     20  N   UNL     1       5.094   5.688  17.668  0.00  0.00    +0.000 NA
ATOM     21  C   UNL     1       3.982   5.007  17.875  0.00  0.00    +0.000 A 
ATOM     22  S   UNL     1       3.545   3.952  16.586  0.00  0.00    +0.000 S 
ATOM     23  C   UNL     1       4.989   4.340  15.750  0.00  0.00    +0.000 A 
ATOM     24  C   UNL     1       5.455   3.834  14.523  0.00  0.00    +0.000 A 
BRANCH  15  26
ATOM     25  C   UNL     1       5.955   3.103  12.072  0.00  0.00    +0.000 C 
ATOM     26  O   UNL     1       6.978   3.803  12.769  0.00  0.00    +0.000 OA
ENDBRANCH  15  26
ENDBRANCH   1  21
TORSDOF 2
ENDMDL
MODEL 8
REMARK VINA RESULT:      -7.4      1.580      1.968
REMARK  Name = 
REMARK  6 active torsions:
REMARK  status: ('A' for Active; 'I' for Inactive)
REMARK    1  A    between atoms: C_1  and  O_2
REMARK    2  A    between atoms: O_2  and  C_3
REMARK    3  A    between atoms: C_9  and  C_10
REMARK    4  A    between atoms: C_12  and  C_13
REMARK    5  A    between atoms: N_18  and  C_19
REMARK    6  A    between atoms: C_20  and  C_21
REMARK                            x       y       z     vdW  Elec       q    Type
REMARK                         _______ _______ _______ _____ _____    ______ ____
ROOT
ATOM      1  C   UNL     1       2.077   5.895  19.946  0.00  0.00    +0.000 A 
ATOM      2  C   UNL     1       1.567   4.942  20.856  0.00  0.00    +0.000 A 
ATOM      3  C   UNL     1       1.879   3.580  20.749  0.00  0.00    +0.000 A 
ATOM      4  C   UNL     1       1.324   2.570  21.709  0.00  0.00    +0.000 C 
ATOM      5  C   UNL     1       2.726   3.167  19.722  0.00  0.00    +0.000 A 
ATOM      6  C   UNL     1       3.254   4.106  18.826  0.00  0.00    +0.000 A 
ATOM      7  C   UNL     1       4.151   3.668  17.740  0.00  0.00    +0.000 A 
ATOM      8  O   UNL     1       4.427   2.475  17.637  0.00  0.00    +0.000 OA
ATOM      9  N   UNL     1       4.629   4.658  16.885  0.00  0.00    +0.000 N 
ATOM     10  C   UNL     1       5.509   4.239  15.806  0.00  0.00    +0.000 C 
ATOM     11  C   UNL     1       4.290   5.976  17.075  0.00  0.00    +0.000 A 
ATOM     12  C   UNL     1       4.813   7.047  16.140  0.00  0.00    +0.000 C 
ATOM     13  N   UNL     1       3.519   6.383  18.031  0.00  0.00    +0.000 NA
ATOM     14  C   UNL     1       2.953   5.463  18.924  0.00  0.00    +0.000 A 
ENDROOT
BRANCH   1  21
ATOM     15  C   UNL     1       0.391  11.822  20.917  0.00  0.00    +0.000 A 
ATOM     16  C   UNL     1       1.001  11.904  19.671  0.00  0.00    +0.000 A 
ATOM     17  C   UNL     1       1.526  10.748  19.086  0.00  0.00    +0.000 A 
ATOM     18 CL   UNL     1       2.299  10.795  17.560  0.00  0.00    +0.000 Cl
ATOM     19  C   UNL     1       1.463   9.490  19.720  0.00  0.00    +0.000 A 
ATOM     20  N   UNL     1       1.947   8.265  19.267  0.00  0.00    +0.000 NA
ATOM     21  C   UNL     1       1.676   7.305  20.132  0.00  0.00    +0.000 A 
ATOM     22  S   UNL     1       0.920   7.848  21.581  0.00  0.00    +0.000 S 
ATOM     23  C   UNL     1       0.845   9.446  20.969  0.00  0.00    +0.000 A 
ATOM     24  C   UNL     1       0.291  10.590  21.572  0.00  0.00    +0.000 A 
BRANCH  15  26
ATOM     25  C   UNL     1      -1.064  12.551  22.652  0.00  0.00    +0.000 C 
ATOM     26  O   UNL     1      -0.145  12.872  21.615  0.00  0.00    +0.000 OA
ENDBRANCH  15  26
ENDBRANCH   1  21
TORSDOF 2
ENDMDL
MODEL 9
REMARK VINA RESULT:      -7.3      7.590      9.245
REMARK  Name = 
REMARK  6 active torsions:
REMARK  status: ('A' for Active; 'I' for Inactive)
REMARK    1  A    between atoms: C_1  and  O_2
REMARK    2  A    between atoms: O_2  and  C_3
REMARK    3  A    between atoms: C_9  and  C_10
REMARK    4  A    between atoms: C_12  and  C_13
REMARK    5  A    between atoms: N_18  and  C_19
REMARK    6  A    between atoms: C_20  and  C_21
REMARK                            x       y       z     vdW  Elec       q    Type
REMARK                         _______ _______ _______ _____ _____    ______ ____
ROOT
ATOM      1  C   UNL     1      -2.219  11.893  18.149  0.00  0.00    +0.000 A 
ATOM      2  C   UNL     1      -2.102  11.296  16.873  0.00  0.00    +0.000 A 
ATOM      3  C   UNL     1      -3.196  10.692  16.239  0.00  0.00    +0.000 A 
ATOM      4  C   UNL     1      -3.064  10.048  14.890  0.00  0.00    +0.000 C 
ATOM      5  C   UNL     1      -4.430  10.696  16.887  0.00  0.00    +0.000 A 
ATOM      6  C   UNL     1      -4.562  11.302  18.143  0.00  0.00    +0.000 A 
ATOM      7  C   UNL     1      -5.868  11.307  18.828  0.00  0.00    +0.000 A 
ATOM      8  O   UNL     1      -6.832  10.775  18.280  0.00  0.00    +0.000 OA
ATOM      9  N   UNL     1      -5.919  11.921  20.077  0.00  0.00    +0.000 N 
ATOM     10  C   UNL     1      -7.200  11.927  20.765  0.00  0.00    +0.000 C 
ATOM     11  C   UNL     1      -4.802  12.511  20.617  0.00  0.00    +0.000 A 
ATOM     12  C   UNL     1      -4.864  13.176  21.976  0.00  0.00    +0.000 C 
ATOM     13  N   UNL     1      -3.651  12.533  20.025  0.00  0.00    +0.000 NA
ATOM     14  C   UNL     1      -3.482  11.909  18.782  0.00  0.00    +0.000 A 
ENDROOT
BRANCH   1  21
ATOM     15  C   UNL     1       2.990  14.239  20.654  0.00  0.00    +0.000 A 
ATOM     16  C   UNL     1       2.481  15.343  19.980  0.00  0.00    +0.000 A 
ATOM     17  C   UNL     1       1.282  15.222  19.272  0.00  0.00    +0.000 A 
ATOM     18 CL   UNL     1       0.616  16.545  18.413  0.00  0.00    +0.000 Cl
ATOM     19  C   UNL     1       0.564  14.009  19.211  0.00  0.00    +0.000 A 
ATOM     20  N   UNL     1      -0.627  13.739  18.542  0.00  0.00    +0.000 NA
ATOM     21  C   UNL     1      -1.003  12.489  18.742  0.00  0.00    +0.000 A 
ATOM     22  S   UNL     1       0.113  11.548  19.655  0.00  0.00    +0.000 S 
ATOM     23  C   UNL     1       1.106  12.923  19.898  0.00  0.00    +0.000 A 
ATOM     24  C   UNL     1       2.300  13.023  20.634  0.00  0.00    +0.000 A 
BRANCH  15  26
ATOM     25  C   UNL     1       5.233  15.000  20.873  0.00  0.00    +0.000 C 
ATOM     26  O   UNL     1       4.159  14.208  21.366  0.00  0.00    +0.000 OA
ENDBRANCH  15  26
ENDBRANCH   1  21
TORSDOF 2
ENDMDL
