MODEL 1
REMARK VINA RESULT:      -6.8      0.000      0.000
REMARK  Name = 
REMARK  5 active torsions:
REMARK  status: ('A' for Active; 'I' for Inactive)
REMARK    1  A    between atoms: C_1  and  S_2
REMARK    2  A    between atoms: S_2  and  C_3
REMARK    3  A    between atoms: C_6  and  C_7
REMARK    4  A    between atoms: C_8  and  C_9
REMARK    5  A    between atoms: C_13  and  C_14
REMARK                            x       y       z     vdW  Elec       q    Type
REMARK                         _______ _______ _______ _____ _____    ______ ____
ROOT
ATOM      1  C   UNL     1       8.300   8.696  18.273  0.00  0.00    +0.000 C 
ATOM      2  C   UNL     1       8.936   9.658  18.617  0.00  0.00    +0.000 C 
ENDROOT
BRANCH   2   3
ATOM      3  C   UNL     1       9.751  10.790  18.946  0.00  0.00    +0.000 A 
ATOM      4  C   UNL     1       9.867  11.206  20.275  0.00  0.00    +0.000 A 
ATOM      5  C   UNL     1      10.582  12.364  20.588  0.00  0.00    +0.000 A 
ATOM      6  C   UNL     1      11.171  13.119  19.572  0.00  0.00    +0.000 A 
ATOM      7  C   UNL     1      11.065  12.714  18.237  0.00  0.00    +0.000 A 
ATOM      8  C   UNL     1      11.658  13.542  17.135  0.00  0.00    +0.000 C 
ATOM      9  C   UNL     1      10.371  11.531  17.934  0.00  0.00    +0.000 A 
ENDBRANCH   2   3
BRANCH   1  13
ATOM     10  C   UNL     1       6.197   5.372  16.952  0.00  0.00    +0.000 A 
ATOM     11  N   UNL     1       7.130   5.187  17.904  0.00  0.00    +0.000 NA
ATOM     12  C   UNL     1       7.796   6.288  18.318  0.00  0.00    +0.000 A 
ATOM     13  C   UNL     1       7.576   7.552  17.820  0.00  0.00    +0.000 A 
ATOM     14  C   UNL     1       6.589   7.630  16.861  0.00  0.00    +0.000 A 
ATOM     15  N   UNL     1       5.885   6.563  16.411  0.00  0.00    +0.000 NA
BRANCH  10  17
ATOM     16  C   UNL     1       6.120   3.862  14.658  0.00  0.00    +0.000 C 
ATOM     17  S   UNL     1       5.412   3.910  16.320  0.00  0.00    +0.000 S 
ENDBRANCH  10  17
ENDBRANCH   1  13
TORSDOF 3
ENDMDL
MODEL 2
REMARK VINA RESULT:      -6.7      1.092      1.739
REMARK  Name = 
REMARK  5 active torsions:
REMARK  status: ('A' for Active; 'I' for Inactive)
REMARK    1  A    between atoms: C_1  and  S_2
REMARK    2  A    between atoms: S_2  and  C_3
REMARK    3  A    between atoms: C_6  and  C_7
REMARK    4  A    between atoms: C_8  and  C_9
REMARK    5  A    between atoms: C_13  and  C_14
REMARK                            x       y       z     vdW  Elec       q    Type
REMARK                         _______ _______ _______ _____ _____    ______ ____
ROOT
ATOM      1  C   UNL     1       8.035   8.245  18.134  0.00  0.00    +0.000 C 
ATOM      2  C   UNL     1       8.728   9.196  18.387  0.00  0.00    +0.000 C 
ENDROOT
BRANCH   2   3
ATOM      3  C   UNL     1       9.490  10.352  18.760  0.00  0.00    +0.000 A 
ATOM      4  C   UNL     1       9.491  10.790  20.087  0.00  0.00    +0.000 A 
ATOM      5  C   UNL     1      10.153  11.969  20.436  0.00  0.00    +0.000 A 
ATOM      6  C   UNL     1      10.804  12.722  19.457  0.00  0.00    +0.000 A 
ATOM      7  C   UNL     1      10.812  12.295  18.125  0.00  0.00    +0.000 A 
ATOM      8  C   UNL     1      11.472  13.120  17.059  0.00  0.00    +0.000 C 
ATOM      9  C   UNL     1      10.171  11.092  17.788  0.00  0.00    +0.000 A 
ENDBRANCH   2   3
BRANCH   1  13
ATOM     10  C   UNL     1       5.555   5.002  17.396  0.00  0.00    +0.000 A 
ATOM     11  N   UNL     1       5.353   6.123  16.680  0.00  0.00    +0.000 NA
ATOM     12  C   UNL     1       6.178   7.162  16.938  0.00  0.00    +0.000 A 
ATOM     13  C   UNL     1       7.182   7.129  17.879  0.00  0.00    +0.000 A 
ATOM     14  C   UNL     1       7.311   5.928  18.544  0.00  0.00    +0.000 A 
ATOM     15  N   UNL     1       6.517   4.853  18.323  0.00  0.00    +0.000 NA
BRANCH  10  17
ATOM     16  C   UNL     1       4.173   3.123  18.849  0.00  0.00    +0.000 C 
ATOM     17  S   UNL     1       4.393   3.683  17.144  0.00  0.00    +0.000 S 
ENDBRANCH  10  17
ENDBRANCH   1  13
TORSDOF 3
ENDMDL
MODEL 3
REMARK VINA RESULT:      -6.7      0.989      1.207
REMARK  Name = 
REMARK  5 active torsions:
REMARK  status: ('A' for Active; 'I' for Inactive)
REMARK    1  A    between atoms: C_1  and  S_2
REMARK    2  A    between atoms: S_2  and  C_3
REMARK    3  A    between atoms: C_6  and  C_7
REMARK    4  A    between atoms: C_8  and  C_9
REMARK    5  A    between atoms: C_13  and  C_14
REMARK                            x       y       z     vdW  Elec       q    Type
REMARK                         _______ _______ _______ _____ _____    ______ ____
ROOT
ATOM      1  C   UNL     1       8.161   8.318  18.220  0.00  0.00    +0.000 C 
ATOM      2  C   UNL     1       8.817   9.292  18.483  0.00  0.00    +0.000 C 
ENDROOT
BRANCH   2   3
ATOM      3  C   UNL     1       9.524  10.481  18.858  0.00  0.00    +0.000 A 
ATOM      4  C   UNL     1       9.606  10.852  20.202  0.00  0.00    +0.000 A 
ATOM      5  C   UNL     1      10.212  12.058  20.562  0.00  0.00    +0.000 A 
ATOM      6  C   UNL     1      10.724  12.904  19.578  0.00  0.00    +0.000 A 
ATOM      7  C   UNL     1      10.650  12.546  18.227  0.00  0.00    +0.000 A 
ATOM      8  C   UNL     1      11.160  13.470  17.160  0.00  0.00    +0.000 C 
ATOM      9  C   UNL     1      10.069  11.317  17.876  0.00  0.00    +0.000 A 
ENDBRANCH   2   3
BRANCH   1  13
ATOM     10  C   UNL     1       5.799   5.001  17.423  0.00  0.00    +0.000 A 
ATOM     11  N   UNL     1       6.839   4.844  18.263  0.00  0.00    +0.000 NA
ATOM     12  C   UNL     1       7.588   5.943  18.507  0.00  0.00    +0.000 A 
ATOM     13  C   UNL     1       7.348   7.177  17.947  0.00  0.00    +0.000 A 
ATOM     14  C   UNL     1       6.251   7.228  17.115  0.00  0.00    +0.000 A 
ATOM     15  N   UNL     1       5.461   6.163  16.837  0.00  0.00    +0.000 NA
BRANCH  10  17
ATOM     16  C   UNL     1       4.088   3.194  18.587  0.00  0.00    +0.000 C 
ATOM     17  S   UNL     1       4.893   3.532  17.005  0.00  0.00    +0.000 S 
ENDBRANCH  10  17
ENDBRANCH   1  13
TORSDOF 3
ENDMDL
MODEL 4
REMARK VINA RESULT:      -6.7      4.249      7.959
REMARK  Name = 
REMARK  5 active torsions:
REMARK  status: ('A' for Active; 'I' for Inactive)
REMARK    1  A    between atoms: C_1  and  S_2
REMARK    2  A    between atoms: S_2  and  C_3
REMARK    3  A    between atoms: C_6  and  C_7
REMARK    4  A    between atoms: C_8  and  C_9
REMARK    5  A    between atoms: C_13  and  C_14
REMARK                            x       y       z     vdW  Elec       q    Type
REMARK                         _______ _______ _______ _____ _____    ______ ____
ROOT
ATOM      1  C   UNL     1       8.683   9.578  18.382  0.00  0.00    +0.000 C 
ATOM      2  C   UNL     1       8.191   8.517  18.099  0.00  0.00    +0.000 C 
ENDROOT
BRANCH   2   3
ATOM      3  C   UNL     1       7.602   7.233  17.859  0.00  0.00    +0.000 A 
ATOM      4  C   UNL     1       7.901   6.158  18.700  0.00  0.00    +0.000 A 
ATOM      5  C   UNL     1       7.406   4.884  18.413  0.00  0.00    +0.000 A 
ATOM      6  C   UNL     1       6.621   4.677  17.277  0.00  0.00    +0.000 A 
ATOM      7  C   UNL     1       6.312   5.745  16.427  0.00  0.00    +0.000 A 
ATOM      8  C   UNL     1       5.505   5.523  15.181  0.00  0.00    +0.000 C 
ATOM      9  C   UNL     1       6.787   7.029  16.740  0.00  0.00    +0.000 A 
ENDBRANCH   2   3
BRANCH   1  13
ATOM     10  C   UNL     1      10.363  13.200  19.514  0.00  0.00    +0.000 A 
ATOM     11  N   UNL     1       9.940  13.074  18.243  0.00  0.00    +0.000 NA
ATOM     12  C   UNL     1       9.393  11.885  17.904  0.00  0.00    +0.000 A 
ATOM     13  C   UNL     1       9.260  10.825  18.772  0.00  0.00    +0.000 A 
ATOM     14  C   UNL     1       9.712  11.067  20.051  0.00  0.00    +0.000 A 
ATOM     15  N   UNL     1      10.263  12.239  20.449  0.00  0.00    +0.000 NA
BRANCH  10  17
ATOM     16  C   UNL     1      11.604  15.310  18.267  0.00  0.00    +0.000 C 
ATOM     17  S   UNL     1      11.194  14.714  19.924  0.00  0.00    +0.000 S 
ENDBRANCH  10  17
ENDBRANCH   1  13
TORSDOF 3
ENDMDL
MODEL 5
REMARK VINA RESULT:      -6.6      4.305      7.921
REMARK  Name = 
REMARK  5 active torsions:
REMARK  status: ('A' for Active; 'I' for Inactive)
REMARK    1  A    between atoms: C_1  and  S_2
REMARK    2  A    between atoms: S_2  and  C_3
REMARK    3  A    between atoms: C_6  and  C_7
REMARK    4  A    between atoms: C_8  and  C_9
REMARK    5  A    between atoms: C_13  and  C_14
REMARK                            x       y       z     vdW  Elec       q    Type
REMARK                         _______ _______ _______ _____ _____    ______ ____
ROOT
ATOM      1  C   UNL     1       8.789   9.656  18.429  0.00  0.00    +0.000 C 
ATOM      2  C   UNL     1       8.248   8.613  18.168  0.00  0.00    +0.000 C 
ENDROOT
BRANCH   2   3
ATOM      3  C   UNL     1       7.669   7.326  17.918  0.00  0.00    +0.000 A 
ATOM      4  C   UNL     1       8.030   6.231  18.706  0.00  0.00    +0.000 A 
ATOM      5  C   UNL     1       7.541   4.958  18.405  0.00  0.00    +0.000 A 
ATOM      6  C   UNL     1       6.702   4.772  17.305  0.00  0.00    +0.000 A 
ATOM      7  C   UNL     1       6.330   5.860  16.507  0.00  0.00    +0.000 A 
ATOM      8  C   UNL     1       5.463   5.663  15.298  0.00  0.00    +0.000 C 
ATOM      9  C   UNL     1       6.800   7.142  16.836  0.00  0.00    +0.000 A 
ENDBRANCH   2   3
BRANCH   1  13
ATOM     10  C   UNL     1      10.745  13.175  19.429  0.00  0.00    +0.000 A 
ATOM     11  N   UNL     1      10.296  12.400  20.432  0.00  0.00    +0.000 NA
ATOM     12  C   UNL     1       9.667  11.257  20.077  0.00  0.00    +0.000 A 
ATOM     13  C   UNL     1       9.463  10.866  18.773  0.00  0.00    +0.000 A 
ATOM     14  C   UNL     1       9.977  11.726  17.826  0.00  0.00    +0.000 A 
ATOM     15  N   UNL     1      10.621  12.881  18.123  0.00  0.00    +0.000 NA
BRANCH  10  17
ATOM     16  C   UNL     1      11.548  15.537  18.277  0.00  0.00    +0.000 C 
ATOM     17  S   UNL     1      11.459  14.734  19.894  0.00  0.00    +0.000 S 
ENDBRANCH  10  17
ENDBRANCH   1  13
TORSDOF 3
ENDMDL
MODEL 6
REMARK VINA RESULT:      -6.6      1.129      2.413
REMARK  Name = 
REMARK  5 active torsions:
REMARK  status: ('A' for Active; 'I' for Inactive)
REMARK    1  A    between atoms: C_1  and  S_2
REMARK    2  A    between atoms: S_2  and  C_3
REMARK    3  A    between atoms: C_6  and  C_7
REMARK    4  A    between atoms: C_8  and  C_9
REMARK    5  A    between atoms: C_13  and  C_14
REMARK                            x       y       z     vdW  Elec       q    Type
REMARK                         _______ _______ _______ _____ _____    ______ ____
ROOT
ATOM      1  C   UNL     1       8.062   8.271  18.112  0.00  0.00    +0.000 C 
ATOM      2  C   UNL     1       8.698   9.266  18.345  0.00  0.00    +0.000 C 
ENDROOT
BRANCH   2   3
ATOM      3  C   UNL     1       9.389  10.473  18.694  0.00  0.00    +0.000 A 
ATOM      4  C   UNL     1      10.308  11.035  17.805  0.00  0.00    +0.000 A 
ATOM      5  C   UNL     1      11.052  12.155  18.180  0.00  0.00    +0.000 A 
ATOM      6  C   UNL     1      10.891  12.709  19.451  0.00  0.00    +0.000 A 
ATOM      7  C   UNL     1       9.973  12.157  20.352  0.00  0.00    +0.000 A 
ATOM      8  C   UNL     1       9.825  12.719  21.736  0.00  0.00    +0.000 C 
ATOM      9  C   UNL     1       9.206  11.051  19.955  0.00  0.00    +0.000 A 
ENDBRANCH   2   3
BRANCH   1  13
ATOM     10  C   UNL     1       5.778   4.873  17.439  0.00  0.00    +0.000 A 
ATOM     11  N   UNL     1       5.424   6.005  16.802  0.00  0.00    +0.000 NA
ATOM     12  C   UNL     1       6.189   7.094  17.036  0.00  0.00    +0.000 A 
ATOM     13  C   UNL     1       7.277   7.102  17.879  0.00  0.00    +0.000 A 
ATOM     14  C   UNL     1       7.559   5.888  18.468  0.00  0.00    +0.000 A 
ATOM     15  N   UNL     1       6.832   4.763  18.266  0.00  0.00    +0.000 NA
BRANCH  10  17
ATOM     16  C   UNL     1       4.270   3.145  18.951  0.00  0.00    +0.000 C 
ATOM     17  S   UNL     1       4.701   3.478  17.228  0.00  0.00    +0.000 S 
ENDBRANCH  10  17
ENDBRANCH   1  13
TORSDOF 3
ENDMDL
MODEL 7
REMARK VINA RESULT:      -6.5      4.497      7.958
REMARK  Name = 
REMARK  5 active torsions:
REMARK  status: ('A' for Active; 'I' for Inactive)
REMARK    1  A    between atoms: C_1  and  S_2
REMARK    2  A    between atoms: S_2  and  C_3
REMARK    3  A    between atoms: C_6  and  C_7
REMARK    4  A    between atoms: C_8  and  C_9
REMARK    5  A    between atoms: C_13  and  C_14
REMARK                            x       y       z     vdW  Elec       q    Type
REMARK                         _______ _______ _______ _____ _____    ______ ____
ROOT
ATOM      1  C   UNL     1       8.849  10.110  18.068  0.00  0.00    +0.000 C 
ATOM      2  C   UNL     1       8.359   9.011  18.079  0.00  0.00    +0.000 C 
ENDROOT
BRANCH   2   3
ATOM      3  C   UNL     1       7.767   7.708  17.992  0.00  0.00    +0.000 A 
ATOM      4  C   UNL     1       8.177   6.694  18.862  0.00  0.00    +0.000 A 
ATOM      5  C   UNL     1       7.673   5.400  18.718  0.00  0.00    +0.000 A 
ATOM      6  C   UNL     1       6.769   5.111  17.695  0.00  0.00    +0.000 A 
ATOM      7  C   UNL     1       6.348   6.117  16.817  0.00  0.00    +0.000 A 
ATOM      8  C   UNL     1       5.410   5.805  15.688  0.00  0.00    +0.000 C 
ATOM      9  C   UNL     1       6.835   7.422  16.989  0.00  0.00    +0.000 A 
ENDBRANCH   2   3
BRANCH   1  13
ATOM     10  C   UNL     1      10.537  13.896  17.877  0.00  0.00    +0.000 A 
ATOM     11  N   UNL     1      11.361  12.835  17.788  0.00  0.00    +0.000 NA
ATOM     12  C   UNL     1      10.783  11.615  17.849  0.00  0.00    +0.000 A 
ATOM     13  C   UNL     1       9.430  11.412  18.001  0.00  0.00    +0.000 A 
ATOM     14  C   UNL     1       8.678  12.566  18.068  0.00  0.00    +0.000 A 
ATOM     15  N   UNL     1       9.201  13.814  18.006  0.00  0.00    +0.000 NA
BRANCH  10  17
ATOM     16  C   UNL     1      10.930  15.981  19.622  0.00  0.00    +0.000 C 
ATOM     17  S   UNL     1      11.308  15.494  17.923  0.00  0.00    +0.000 S 
ENDBRANCH  10  17
ENDBRANCH   1  13
TORSDOF 3
ENDMDL
MODEL 8
REMARK VINA RESULT:      -6.4      0.838      2.171
REMARK  Name = 
REMARK  5 active torsions:
REMARK  status: ('A' for Active; 'I' for Inactive)
REMARK    1  A    between atoms: C_1  and  S_2
REMARK    2  A    between atoms: S_2  and  C_3
REMARK    3  A    between atoms: C_6  and  C_7
REMARK    4  A    between atoms: C_8  and  C_9
REMARK    5  A    between atoms: C_13  and  C_14
REMARK                            x       y       z     vdW  Elec       q    Type
REMARK                         _______ _______ _______ _____ _____    ______ ____
ROOT
ATOM      1  C   UNL     1       8.559   8.701  18.548  0.00  0.00    +0.000 C 
ATOM      2  C   UNL     1       9.120   9.683  18.958  0.00  0.00    +0.000 C 
ENDROOT
BRANCH   2   3
ATOM      3  C   UNL     1       9.706  10.906  19.425  0.00  0.00    +0.000 A 
ATOM      4  C   UNL     1      10.859  11.406  18.814  0.00  0.00    +0.000 A 
ATOM      5  C   UNL     1      11.487  12.543  19.327  0.00  0.00    +0.000 A 
ATOM      6  C   UNL     1      10.973  13.176  20.460  0.00  0.00    +0.000 A 
ATOM      7  C   UNL     1       9.818  12.687  21.081  0.00  0.00    +0.000 A 
ATOM      8  C   UNL     1       9.283  13.334  22.325  0.00  0.00    +0.000 C 
ATOM      9  C   UNL     1       9.175  11.562  20.540  0.00  0.00    +0.000 A 
ENDBRANCH   2   3
BRANCH   1  13
ATOM     10  C   UNL     1       6.489   5.401  17.117  0.00  0.00    +0.000 A 
ATOM     11  N   UNL     1       6.400   6.549  16.421  0.00  0.00    +0.000 NA
ATOM     12  C   UNL     1       7.088   7.606  16.908  0.00  0.00    +0.000 A 
ATOM     13  C   UNL     1       7.848   7.566  18.054  0.00  0.00    +0.000 A 
ATOM     14  C   UNL     1       7.882   6.338  18.680  0.00  0.00    +0.000 A 
ATOM     15  N   UNL     1       7.218   5.244  18.236  0.00  0.00    +0.000 NA
BRANCH  10  17
ATOM     16  C   UNL     1       6.107   3.886  14.858  0.00  0.00    +0.000 C 
ATOM     17  S   UNL     1       5.487   4.051  16.548  0.00  0.00    +0.000 S 
ENDBRANCH  10  17
ENDBRANCH   1  13
TORSDOF 3
ENDMDL
MODEL 9
REMARK VINA RESULT:      -6.4      8.396     10.722
REMARK  Name = 
REMARK  5 active torsions:
REMARK  status: ('A' for Active; 'I' for Inactive)
REMARK    1  A    between atoms: C_1  and  S_2
REMARK    2  A    between atoms: S_2  and  C_3
REMARK    3  A    between atoms: C_6  and  C_7
REMARK    4  A    between atoms: C_8  and  C_9
REMARK    5  A    between atoms: C_13  and  C_14
REMARK                            x       y       z     vdW  Elec       q    Type
REMARK                         _______ _______ _______ _____ _____    ______ ____
ROOT
ATOM      1  C   UNL     1       1.075   7.834  21.211  0.00  0.00    +0.000 C 
ATOM      2  C   UNL     1       1.522   6.778  20.847  0.00  0.00    +0.000 C 
ENDROOT
BRANCH   2   3
ATOM      3  C   UNL     1       1.983   5.517  20.345  0.00  0.00    +0.000 A 
ATOM      4  C   UNL     1       1.211   4.367  20.525  0.00  0.00    +0.000 A 
ATOM      5  C   UNL     1       1.701   3.123  20.122  0.00  0.00    +0.000 A 
ATOM      6  C   UNL     1       2.970   3.022  19.550  0.00  0.00    +0.000 A 
ATOM      7  C   UNL     1       3.754   4.166  19.362  0.00  0.00    +0.000 A 
ATOM      8  C   UNL     1       5.137   4.061  18.788  0.00  0.00    +0.000 C 
ATOM      9  C   UNL     1       3.241   5.417  19.740  0.00  0.00    +0.000 A 
ENDBRANCH   2   3
BRANCH   1  13
ATOM     10  C   UNL     1      -0.572  11.472  22.339  0.00  0.00    +0.000 A 
ATOM     11  N   UNL     1      -0.375  10.548  23.297  0.00  0.00    +0.000 NA
ATOM     12  C   UNL     1       0.167   9.374  22.901  0.00  0.00    +0.000 A 
ATOM     13  C   UNL     1       0.509   9.086  21.600  0.00  0.00    +0.000 A 
ATOM     14  C   UNL     1       0.279  10.108  20.704  0.00  0.00    +0.000 A 
ATOM     15  N   UNL     1      -0.255  11.306  21.043  0.00  0.00    +0.000 NA
BRANCH  10  17
ATOM     16  C   UNL     1      -2.982  12.283  23.378  0.00  0.00    +0.000 C 
ATOM     17  S   UNL     1      -1.397  12.963  22.837  0.00  0.00    +0.000 S 
ENDBRANCH  10  17
ENDBRANCH   1  13
TORSDOF 3
ENDMDL
