MODEL 1
REMARK VINA RESULT:      -7.4      0.000      0.000
REMARK  Name = 
REMARK  8 active torsions:
REMARK  status: ('A' for Active; 'I' for Inactive)
REMARK    1  A    between atoms: C_1  and  C_2
REMARK    2  A    between atoms: C_2  and  O_3
REMARK    3  A    between atoms: C_2  and  C_4
REMARK    4  A    between atoms: C_5  and  N_6
REMARK    5  A    between atoms: N_6  and  C_7
REMARK    6  A    between atoms: N_6  and  S_16
REMARK    7  A    between atoms: C_7  and  C_8
REMARK    8  A    between atoms: S_16  and  C_19
REMARK                            x       y       z     vdW  Elec       q    Type
REMARK                         _______ _______ _______ _____ _____    ______ ____
ROOT
ATOM      1  N   UNL     1       0.141  11.602  19.679  0.00  0.00    +0.000 N 
ENDROOT
BRANCH   1   3
ATOM      2  C   UNL     1       1.054   9.455  20.574  0.00  0.00    +0.000 A 
ATOM      3  C   UNL     1       0.915  10.385  19.557  0.00  0.00    +0.000 A 
ATOM      4  S   UNL     1       1.740   9.929  18.143  0.00  0.00    +0.000 S 
ATOM      5  C   UNL     1       2.096   8.367  18.760  0.00  0.00    +0.000 A 
ATOM      6  C   UNL     1       2.804   7.335  18.108  0.00  0.00    +0.000 A 
ATOM      7  C   UNL     1       2.853   6.069  18.694  0.00  0.00    +0.000 A 
ATOM      8  C   UNL     1       2.235   5.838  19.913  0.00  0.00    +0.000 A 
ATOM      9  C   UNL     1       1.623   6.891  20.601  0.00  0.00    +0.000 A 
ATOM     10  C   UNL     1       1.554   8.194  20.036  0.00  0.00    +0.000 A 
BRANCH   2  12
ATOM     11  C   UNL     1      -0.488   8.951  22.556  0.00  0.00    +0.000 C 
ATOM     12  C   UNL     1       0.734   9.689  22.037  0.00  0.00    +0.000 C 
BRANCH  12  13
ATOM     13  O   UNL     1       1.832   9.316  22.883  0.00  0.00    +0.000 OA
ATOM     14  H   UNL     1       2.117  10.122  23.348  0.00  0.00    +0.000 HD
ENDBRANCH  12  13
ENDBRANCH   2  12
ENDBRANCH   1   3
BRANCH   1  15
ATOM     15  S   UNL     1       0.771  12.747  20.792  0.00  0.00    +0.000 S 
ATOM     16  O   UNL     1      -0.032  12.638  22.000  0.00  0.00    +0.000 OA
ATOM     17  O   UNL     1       2.212  12.633  20.860  0.00  0.00    +0.000 OA
BRANCH  15  18
ATOM     18  C   UNL     1       0.383  14.334  20.066  0.00  0.00    +0.000 A 
ATOM     19  C   UNL     1      -0.805  14.987  20.425  0.00  0.00    +0.000 A 
ATOM     20  C   UNL     1      -1.115  16.226  19.859  0.00  0.00    +0.000 A 
ATOM     21  C   UNL     1      -0.228  16.820  18.965  0.00  0.00    +0.000 A 
ATOM     22  C   UNL     1       0.978  16.189  18.642  0.00  0.00    +0.000 A 
ATOM     23  C   UNL     1       1.289  14.946  19.199  0.00  0.00    +0.000 A 
ENDBRANCH  15  18
ENDBRANCH   1  15
BRANCH   1  24
ATOM     24  C   UNL     1      -0.502  12.209  18.475  0.00  0.00    +0.000 C 
BRANCH  24  25
ATOM     25  C   UNL     1      -1.961  11.839  18.297  0.00  0.00    +0.000 A 
ATOM     26  C   UNL     1      -2.904  12.120  19.301  0.00  0.00    +0.000 A 
ATOM     27  C   UNL     1      -4.266  11.897  19.080  0.00  0.00    +0.000 A 
ATOM     28  C   UNL     1      -4.687  11.373  17.864  0.00  0.00    +0.000 A 
ATOM     29  F   UNL     1      -5.997  11.218  17.634  0.00  0.00    +0.000 F 
ATOM     30  C   UNL     1      -3.758  11.020  16.893  0.00  0.00    +0.000 A 
ATOM     31  F   UNL     1      -4.163  10.478  15.737  0.00  0.00    +0.000 F 
ATOM     32  C   UNL     1      -2.399  11.244  17.102  0.00  0.00    +0.000 A 
ENDBRANCH  24  25
ENDBRANCH   1  24
TORSDOF 7
ENDMDL
MODEL 2
REMARK VINA RESULT:      -7.3      6.946      9.949
REMARK  Name = 
REMARK  8 active torsions:
REMARK  status: ('A' for Active; 'I' for Inactive)
REMARK    1  A    between atoms: C_1  and  C_2
REMARK    2  A    between atoms: C_2  and  O_3
REMARK    3  A    between atoms: C_2  and  C_4
REMARK    4  A    between atoms: C_5  and  N_6
REMARK    5  A    between atoms: N_6  and  C_7
REMARK    6  A    between atoms: N_6  and  S_16
REMARK    7  A    between atoms: C_7  and  C_8
REMARK    8  A    between atoms: S_16  and  C_19
REMARK                            x       y       z     vdW  Elec       q    Type
REMARK                         _______ _______ _______ _____ _____    ______ ____
ROOT
ATOM      1  N   UNL     1       5.705   4.968  17.151  0.00  0.00    +0.000 N 
ENDROOT
BRANCH   1   3
ATOM      2  C   UNL     1       3.686   4.749  18.608  0.00  0.00    +0.000 A 
ATOM      3  C   UNL     1       4.526   5.499  17.801  0.00  0.00    +0.000 A 
ATOM      4  S   UNL     1       4.025   7.119  17.673  0.00  0.00    +0.000 S 
ATOM      5  C   UNL     1       2.825   6.927  18.886  0.00  0.00    +0.000 A 
ATOM      6  C   UNL     1       1.939   7.912  19.370  0.00  0.00    +0.000 A 
ATOM      7  C   UNL     1       1.142   7.624  20.479  0.00  0.00    +0.000 A 
ATOM      8  C   UNL     1       1.205   6.376  21.079  0.00  0.00    +0.000 A 
ATOM      9  C   UNL     1       2.011   5.372  20.532  0.00  0.00    +0.000 A 
ATOM     10  C   UNL     1       2.835   5.629  19.402  0.00  0.00    +0.000 A 
BRANCH   2  12
ATOM     11  C   UNL     1       4.022   2.641  20.022  0.00  0.00    +0.000 C 
ATOM     12  C   UNL     1       3.645   3.236  18.677  0.00  0.00    +0.000 C 
BRANCH  12  13
ATOM     13  O   UNL     1       2.342   2.728  18.351  0.00  0.00    +0.000 OA
ATOM     14  H   UNL     1       2.279   2.713  17.380  0.00  0.00    +0.000 HD
ENDBRANCH  12  13
ENDBRANCH   2  12
ENDBRANCH   1   3
BRANCH   1  15
ATOM     15  S   UNL     1       7.123   4.976  18.118  0.00  0.00    +0.000 S 
ATOM     16  O   UNL     1       6.706   4.644  19.472  0.00  0.00    +0.000 OA
ATOM     17  O   UNL     1       8.171   4.216  17.470  0.00  0.00    +0.000 OA
BRANCH  15  18
ATOM     18  C   UNL     1       7.632   6.690  18.150  0.00  0.00    +0.000 A 
ATOM     19  C   UNL     1       8.472   7.143  19.177  0.00  0.00    +0.000 A 
ATOM     20  C   UNL     1       8.871   8.482  19.209  0.00  0.00    +0.000 A 
ATOM     21  C   UNL     1       8.455   9.351  18.203  0.00  0.00    +0.000 A 
ATOM     22  C   UNL     1       7.653   8.888  17.155  0.00  0.00    +0.000 A 
ATOM     23  C   UNL     1       7.246   7.552  17.123  0.00  0.00    +0.000 A 
ENDBRANCH  15  18
ENDBRANCH   1  15
BRANCH   1  24
ATOM     24  C   UNL     1       5.594   3.794  16.234  0.00  0.00    +0.000 C 
BRANCH  24  25
ATOM     25  C   UNL     1       6.014   4.080  14.806  0.00  0.00    +0.000 A 
ATOM     26  C   UNL     1       7.099   4.930  14.530  0.00  0.00    +0.000 A 
ATOM     27  C   UNL     1       7.564   5.086  13.221  0.00  0.00    +0.000 A 
ATOM     28  C   UNL     1       6.932   4.412  12.183  0.00  0.00    +0.000 A 
ATOM     29  F   UNL     1       7.419   4.517  10.940  0.00  0.00    +0.000 F 
ATOM     30  C   UNL     1       5.812   3.630  12.434  0.00  0.00    +0.000 A 
ATOM     31  F   UNL     1       5.181   3.012  11.426  0.00  0.00    +0.000 F 
ATOM     32  C   UNL     1       5.345   3.463  13.736  0.00  0.00    +0.000 A 
ENDBRANCH  24  25
ENDBRANCH   1  24
TORSDOF 7
ENDMDL
MODEL 3
REMARK VINA RESULT:      -7.3      3.258      6.223
REMARK  Name = 
REMARK  8 active torsions:
REMARK  status: ('A' for Active; 'I' for Inactive)
REMARK    1  A    between atoms: C_1  and  C_2
REMARK    2  A    between atoms: C_2  and  O_3
REMARK    3  A    between atoms: C_2  and  C_4
REMARK    4  A    between atoms: C_5  and  N_6
REMARK    5  A    between atoms: N_6  and  C_7
REMARK    6  A    between atoms: N_6  and  S_16
REMARK    7  A    between atoms: C_7  and  C_8
REMARK    8  A    between atoms: S_16  and  C_19
REMARK                            x       y       z     vdW  Elec       q    Type
REMARK                         _______ _______ _______ _____ _____    ______ ____
ROOT
ATOM      1  N   UNL     1      -1.457  13.210  20.976  0.00  0.00    +0.000 N 
ENDROOT
BRANCH   1   3
ATOM      2  C   UNL     1      -2.968  12.227  19.245  0.00  0.00    +0.000 A 
ATOM      3  C   UNL     1      -2.748  13.044  20.342  0.00  0.00    +0.000 A 
ATOM      4  S   UNL     1      -4.166  13.815  20.872  0.00  0.00    +0.000 S 
ATOM      5  C   UNL     1      -5.158  12.893  19.817  0.00  0.00    +0.000 A 
ATOM      6  C   UNL     1      -6.560  12.971  19.681  0.00  0.00    +0.000 A 
ATOM      7  C   UNL     1      -7.220  12.025  18.895  0.00  0.00    +0.000 A 
ATOM      8  C   UNL     1      -6.502  11.038  18.237  0.00  0.00    +0.000 A 
ATOM      9  C   UNL     1      -5.104  11.029  18.295  0.00  0.00    +0.000 A 
ATOM     10  C   UNL     1      -4.397  11.977  19.085  0.00  0.00    +0.000 A 
BRANCH   2  12
ATOM     11  C   UNL     1      -1.950  10.156  18.137  0.00  0.00    +0.000 C 
ATOM     12  C   UNL     1      -1.898  11.660  18.334  0.00  0.00    +0.000 C 
BRANCH  12  13
ATOM     13  O   UNL     1      -1.951  12.251  17.027  0.00  0.00    +0.000 OA
ATOM     14  H   UNL     1      -2.586  12.987  17.074  0.00  0.00    +0.000 HD
ENDBRANCH  12  13
ENDBRANCH   2  12
ENDBRANCH   1   3
BRANCH   1  15
ATOM     15  S   UNL     1      -0.821  14.802  20.905  0.00  0.00    +0.000 S 
ATOM     16  O   UNL     1      -1.526  15.485  19.830  0.00  0.00    +0.000 OA
ATOM     17  O   UNL     1      -0.777  15.380  22.231  0.00  0.00    +0.000 OA
BRANCH  15  18
ATOM     18  C   UNL     1       0.864  14.585  20.348  0.00  0.00    +0.000 A 
ATOM     19  C   UNL     1       1.118  14.348  18.990  0.00  0.00    +0.000 A 
ATOM     20  C   UNL     1       2.433  14.175  18.549  0.00  0.00    +0.000 A 
ATOM     21  C   UNL     1       3.485  14.268  19.457  0.00  0.00    +0.000 A 
ATOM     22  C   UNL     1       3.233  14.549  20.804  0.00  0.00    +0.000 A 
ATOM     23  C   UNL     1       1.920  14.715  21.251  0.00  0.00    +0.000 A 
ENDBRANCH  15  18
ENDBRANCH   1  15
BRANCH   1  24
ATOM     24  C   UNL     1      -1.139  12.479  22.239  0.00  0.00    +0.000 C 
BRANCH  24  25
ATOM     25  C   UNL     1      -0.476  11.132  22.028  0.00  0.00    +0.000 A 
ATOM     26  C   UNL     1      -0.648  10.091  22.957  0.00  0.00    +0.000 A 
ATOM     27  C   UNL     1      -0.145   8.814  22.694  0.00  0.00    +0.000 A 
ATOM     28  C   UNL     1       0.550   8.580  21.513  0.00  0.00    +0.000 A 
ATOM     29  F   UNL     1       0.977   7.341  21.238  0.00  0.00    +0.000 F 
ATOM     30  C   UNL     1       0.791   9.619  20.624  0.00  0.00    +0.000 A 
ATOM     31  F   UNL     1       1.494   9.400  19.505  0.00  0.00    +0.000 F 
ATOM     32  C   UNL     1       0.288  10.894  20.874  0.00  0.00    +0.000 A 
ENDBRANCH  24  25
ENDBRANCH   1  24
TORSDOF 7
ENDMDL
MODEL 4
REMARK VINA RESULT:      -7.3      1.763      6.107
REMARK  Name = 
REMARK  8 active torsions:
REMARK  status: ('A' for Active; 'I' for Inactive)
REMARK    1  A    between atoms: C_1  and  C_2
REMARK    2  A    between atoms: C_2  and  O_3
REMARK    3  A    between atoms: C_2  and  C_4
REMARK    4  A    between atoms: C_5  and  N_6
REMARK    5  A    between atoms: N_6  and  C_7
REMARK    6  A    between atoms: N_6  and  S_16
REMARK    7  A    between atoms: C_7  and  C_8
REMARK    8  A    between atoms: S_16  and  C_19
REMARK                            x       y       z     vdW  Elec       q    Type
REMARK                         _______ _______ _______ _____ _____    ______ ____
ROOT
ATOM      1  N   UNL     1      -0.718  11.165  19.678  0.00  0.00    +0.000 N 
ENDROOT
BRANCH   1   3
ATOM      2  C   UNL     1      -1.562  13.249  20.770  0.00  0.00    +0.000 A 
ATOM      3  C   UNL     1      -0.857  12.603  19.767  0.00  0.00    +0.000 A 
ATOM      4  S   UNL     1      -0.160  13.690  18.662  0.00  0.00    +0.000 S 
ATOM      5  C   UNL     1      -0.563  15.052  19.625  0.00  0.00    +0.000 A 
ATOM      6  C   UNL     1      -0.283  16.406  19.344  0.00  0.00    +0.000 A 
ATOM      7  C   UNL     1      -0.534  17.370  20.322  0.00  0.00    +0.000 A 
ATOM      8  C   UNL     1      -1.075  17.001  21.544  0.00  0.00    +0.000 A 
ATOM      9  C   UNL     1      -1.443  15.672  21.777  0.00  0.00    +0.000 A 
ATOM     10  C   UNL     1      -1.204  14.663  20.804  0.00  0.00    +0.000 A 
BRANCH   2  12
ATOM     11  C   UNL     1      -2.102  12.491  23.156  0.00  0.00    +0.000 C 
ATOM     12  C   UNL     1      -2.557  12.600  21.711  0.00  0.00    +0.000 C 
BRANCH  12  13
ATOM     13  O   UNL     1      -3.807  13.305  21.724  0.00  0.00    +0.000 OA
ATOM     14  H   UNL     1      -4.376  12.862  22.378  0.00  0.00    +0.000 HD
ENDBRANCH  12  13
ENDBRANCH   2  12
ENDBRANCH   1   3
BRANCH   1  15
ATOM     15  S   UNL     1       0.396  10.480  20.789  0.00  0.00    +0.000 S 
ATOM     16  O   UNL     1       1.359  11.524  21.109  0.00  0.00    +0.000 OA
ATOM     17  O   UNL     1      -0.314   9.793  21.846  0.00  0.00    +0.000 OA
BRANCH  15  18
ATOM     18  C   UNL     1       1.279   9.252  19.835  0.00  0.00    +0.000 A 
ATOM     19  C   UNL     1       1.639   8.037  20.436  0.00  0.00    +0.000 A 
ATOM     20  C   UNL     1       2.331   7.075  19.696  0.00  0.00    +0.000 A 
ATOM     21  C   UNL     1       2.632   7.315  18.358  0.00  0.00    +0.000 A 
ATOM     22  C   UNL     1       2.233   8.509  17.747  0.00  0.00    +0.000 A 
ATOM     23  C   UNL     1       1.548   9.478  18.485  0.00  0.00    +0.000 A 
ENDBRANCH  15  18
ENDBRANCH   1  15
BRANCH   1  24
ATOM     24  C   UNL     1      -1.911  10.309  19.401  0.00  0.00    +0.000 C 
BRANCH  24  25
ATOM     25  C   UNL     1      -2.484  10.475  18.007  0.00  0.00    +0.000 A 
ATOM     26  C   UNL     1      -1.905   9.818  16.907  0.00  0.00    +0.000 A 
ATOM     27  C   UNL     1      -2.512   9.868  15.650  0.00  0.00    +0.000 A 
ATOM     28  C   UNL     1      -3.687  10.591  15.483  0.00  0.00    +0.000 A 
ATOM     29  F   UNL     1      -4.298  10.586  14.291  0.00  0.00    +0.000 F 
ATOM     30  C   UNL     1      -4.226  11.306  16.545  0.00  0.00    +0.000 A 
ATOM     31  F   UNL     1      -5.338  12.035  16.371  0.00  0.00    +0.000 F 
ATOM     32  C   UNL     1      -3.632  11.258  17.803  0.00  0.00    +0.000 A 
ENDBRANCH  24  25
ENDBRANCH   1  24
TORSDOF 7
ENDMDL
MODEL 5
REMARK VINA RESULT:      -7.3      1.585      5.928
REMARK  Name = 
REMARK  8 active torsions:
REMARK  status: ('A' for Active; 'I' for Inactive)
REMARK    1  A    between atoms: C_1  and  C_2
REMARK    2  A    between atoms: C_2  and  O_3
REMARK    3  A    between atoms: C_2  and  C_4
REMARK    4  A    between atoms: C_5  and  N_6
REMARK    5  A    between atoms: N_6  and  C_7
REMARK    6  A    between atoms: N_6  and  S_16
REMARK    7  A    between atoms: C_7  and  C_8
REMARK    8  A    between atoms: S_16  and  C_19
REMARK                            x       y       z     vdW  Elec       q    Type
REMARK                         _______ _______ _______ _____ _____    ______ ____
ROOT
ATOM      1  N   UNL     1      -0.321  11.460  19.642  0.00  0.00    +0.000 N 
ENDROOT
BRANCH   1   3
ATOM      2  C   UNL     1      -0.152  13.931  19.976  0.00  0.00    +0.000 A 
ATOM      3  C   UNL     1       0.284  12.751  19.395  0.00  0.00    +0.000 A 
ATOM      4  S   UNL     1       1.619  12.988  18.370  0.00  0.00    +0.000 S 
ATOM      5  C   UNL     1       1.813  14.620  18.867  0.00  0.00    +0.000 A 
ATOM      6  C   UNL     1       2.791  15.534  18.424  0.00  0.00    +0.000 A 
ATOM      7  C   UNL     1       2.904  16.771  19.062  0.00  0.00    +0.000 A 
ATOM      8  C   UNL     1       2.048  17.103  20.100  0.00  0.00    +0.000 A 
ATOM      9  C   UNL     1       1.016  16.232  20.466  0.00  0.00    +0.000 A 
ATOM     10  C   UNL     1       0.869  14.965  19.838  0.00  0.00    +0.000 A 
BRANCH   2  12
ATOM     11  C   UNL     1      -1.409  14.329  22.171  0.00  0.00    +0.000 C 
ATOM     12  C   UNL     1      -1.484  14.138  20.667  0.00  0.00    +0.000 C 
BRANCH  12  13
ATOM     13  O   UNL     1      -2.180  15.278  20.140  0.00  0.00    +0.000 OA
ATOM     14  H   UNL     1      -2.730  15.632  20.861  0.00  0.00    +0.000 HD
ENDBRANCH  12  13
ENDBRANCH   2  12
ENDBRANCH   1   3
BRANCH   1  15
ATOM     15  S   UNL     1       0.480  10.505  20.821  0.00  0.00    +0.000 S 
ATOM     16  O   UNL     1       1.541  11.331  21.375  0.00  0.00    +0.000 OA
ATOM     17  O   UNL     1      -0.489   9.877  21.695  0.00  0.00    +0.000 OA
BRANCH  15  18
ATOM     18  C   UNL     1       1.282   9.214  19.879  0.00  0.00    +0.000 A 
ATOM     19  C   UNL     1       1.633   8.013  20.511  0.00  0.00    +0.000 A 
ATOM     20  C   UNL     1       2.263   7.001  19.781  0.00  0.00    +0.000 A 
ATOM     21  C   UNL     1       2.510   7.181  18.422  0.00  0.00    +0.000 A 
ATOM     22  C   UNL     1       2.119   8.362  17.782  0.00  0.00    +0.000 A 
ATOM     23  C   UNL     1       1.496   9.379  18.510  0.00  0.00    +0.000 A 
ENDBRANCH  15  18
ENDBRANCH   1  15
BRANCH   1  24
ATOM     24  C   UNL     1      -1.808  11.313  19.641  0.00  0.00    +0.000 C 
BRANCH  24  25
ATOM     25  C   UNL     1      -2.409  11.086  18.269  0.00  0.00    +0.000 A 
ATOM     26  C   UNL     1      -1.784  10.235  17.340  0.00  0.00    +0.000 A 
ATOM     27  C   UNL     1      -2.408   9.925  16.129  0.00  0.00    +0.000 A 
ATOM     28  C   UNL     1      -3.646  10.481  15.832  0.00  0.00    +0.000 A 
ATOM     29  F   UNL     1      -4.267  10.134  14.697  0.00  0.00    +0.000 F 
ATOM     30  C   UNL     1      -4.238  11.383  16.708  0.00  0.00    +0.000 A 
ATOM     31  F   UNL     1      -5.413  11.948  16.402  0.00  0.00    +0.000 F 
ATOM     32  C   UNL     1      -3.627  11.693  17.920  0.00  0.00    +0.000 A 
ENDBRANCH  24  25
ENDBRANCH   1  24
TORSDOF 7
ENDMDL
MODEL 6
REMARK VINA RESULT:      -7.3      3.344      6.162
REMARK  Name = 
REMARK  8 active torsions:
REMARK  status: ('A' for Active; 'I' for Inactive)
REMARK    1  A    between atoms: C_1  and  C_2
REMARK    2  A    between atoms: C_2  and  O_3
REMARK    3  A    between atoms: C_2  and  C_4
REMARK    4  A    between atoms: C_5  and  N_6
REMARK    5  A    between atoms: N_6  and  C_7
REMARK    6  A    between atoms: N_6  and  S_16
REMARK    7  A    between atoms: C_7  and  C_8
REMARK    8  A    between atoms: S_16  and  C_19
REMARK                            x       y       z     vdW  Elec       q    Type
REMARK                         _______ _______ _______ _____ _____    ______ ____
ROOT
ATOM      1  N   UNL     1      -1.169  13.280  20.730  0.00  0.00    +0.000 N 
ENDROOT
BRANCH   1   3
ATOM      2  C   UNL     1      -2.767  12.220  19.126  0.00  0.00    +0.000 A 
ATOM      3  C   UNL     1      -2.498  13.051  20.202  0.00  0.00    +0.000 A 
ATOM      4  S   UNL     1      -3.903  13.759  20.843  0.00  0.00    +0.000 S 
ATOM      5  C   UNL     1      -4.932  12.786  19.872  0.00  0.00    +0.000 A 
ATOM      6  C   UNL     1      -6.343  12.799  19.849  0.00  0.00    +0.000 A 
ATOM      7  C   UNL     1      -7.019  11.820  19.119  0.00  0.00    +0.000 A 
ATOM      8  C   UNL     1      -6.311  10.865  18.407  0.00  0.00    +0.000 A 
ATOM      9  C   UNL     1      -4.914  10.920  18.353  0.00  0.00    +0.000 A 
ATOM     10  C   UNL     1      -4.191  11.904  19.082  0.00  0.00    +0.000 A 
BRANCH   2  12
ATOM     11  C   UNL     1      -1.602  10.188  18.092  0.00  0.00    +0.000 C 
ATOM     12  C   UNL     1      -1.748  11.699  18.134  0.00  0.00    +0.000 C 
BRANCH  12  13
ATOM     13  O   UNL     1      -2.051  12.122  16.796  0.00  0.00    +0.000 OA
ATOM     14  H   UNL     1      -1.284  12.630  16.478  0.00  0.00    +0.000 HD
ENDBRANCH  12  13
ENDBRANCH   2  12
ENDBRANCH   1   3
BRANCH   1  15
ATOM     15  S   UNL     1      -0.571  14.873  20.506  0.00  0.00    +0.000 S 
ATOM     16  O   UNL     1      -0.827  15.222  19.117  0.00  0.00    +0.000 OA
ATOM     17  O   UNL     1      -1.036  15.733  21.573  0.00  0.00    +0.000 OA
BRANCH  15  18
ATOM     18  C   UNL     1       1.202  14.710  20.670  0.00  0.00    +0.000 A 
ATOM     19  C   UNL     1       1.820  15.062  21.878  0.00  0.00    +0.000 A 
ATOM     20  C   UNL     1       3.206  14.940  22.010  0.00  0.00    +0.000 A 
ATOM     21  C   UNL     1       3.961  14.440  20.952  0.00  0.00    +0.000 A 
ATOM     22  C   UNL     1       3.338  14.047  19.762  0.00  0.00    +0.000 A 
ATOM     23  C   UNL     1       1.953  14.175  19.622  0.00  0.00    +0.000 A 
ENDBRANCH  15  18
ENDBRANCH   1  15
BRANCH   1  24
ATOM     24  C   UNL     1      -0.750  12.642  22.014  0.00  0.00    +0.000 C 
BRANCH  24  25
ATOM     25  C   UNL     1      -0.254  11.217  21.868  0.00  0.00    +0.000 A 
ATOM     26  C   UNL     1      -0.641  10.223  22.783  0.00  0.00    +0.000 A 
ATOM     27  C   UNL     1      -0.289   8.887  22.570  0.00  0.00    +0.000 A 
ATOM     28  C   UNL     1       0.468   8.545  21.456  0.00  0.00    +0.000 A 
ATOM     29  F   UNL     1       0.750   7.256  21.225  0.00  0.00    +0.000 F 
ATOM     30  C   UNL     1       0.919   9.530  20.587  0.00  0.00    +0.000 A 
ATOM     31  F   UNL     1       1.682   9.202  19.535  0.00  0.00    +0.000 F 
ATOM     32  C   UNL     1       0.569  10.863  20.786  0.00  0.00    +0.000 A 
ENDBRANCH  24  25
ENDBRANCH   1  24
TORSDOF 7
ENDMDL
MODEL 7
REMARK VINA RESULT:      -7.3      0.725      1.071
REMARK  Name = 
REMARK  8 active torsions:
REMARK  status: ('A' for Active; 'I' for Inactive)
REMARK    1  A    between atoms: C_1  and  C_2
REMARK    2  A    between atoms: C_2  and  O_3
REMARK    3  A    between atoms: C_2  and  C_4
REMARK    4  A    between atoms: C_5  and  N_6
REMARK    5  A    between atoms: N_6  and  C_7
REMARK    6  A    between atoms: N_6  and  S_16
REMARK    7  A    between atoms: C_7  and  C_8
REMARK    8  A    between atoms: S_16  and  C_19
REMARK                            x       y       z     vdW  Elec       q    Type
REMARK                         _______ _______ _______ _____ _____    ______ ____
ROOT
ATOM      1  N   UNL     1       0.207  11.609  19.497  0.00  0.00    +0.000 N 
ENDROOT
BRANCH   1   3
ATOM      2  C   UNL     1       1.071   9.441  20.392  0.00  0.00    +0.000 A 
ATOM      3  C   UNL     1       0.985  10.393  19.389  0.00  0.00    +0.000 A 
ATOM      4  S   UNL     1       1.882   9.964  18.011  0.00  0.00    +0.000 S 
ATOM      5  C   UNL     1       2.203   8.388  18.611  0.00  0.00    +0.000 A 
ATOM      6  C   UNL     1       2.943   7.369  17.975  0.00  0.00    +0.000 A 
ATOM      7  C   UNL     1       2.960   6.091  18.536  0.00  0.00    +0.000 A 
ATOM      8  C   UNL     1       2.280   5.836  19.716  0.00  0.00    +0.000 A 
ATOM      9  C   UNL     1       1.634   6.875  20.394  0.00  0.00    +0.000 A 
ATOM     10  C   UNL     1       1.596   8.190  19.854  0.00  0.00    +0.000 A 
BRANCH   2  12
ATOM     11  C   UNL     1      -0.495   8.802  22.315  0.00  0.00    +0.000 C 
ATOM     12  C   UNL     1       0.676   9.644  21.841  0.00  0.00    +0.000 C 
BRANCH  12  13
ATOM     13  O   UNL     1       1.770   9.369  22.729  0.00  0.00    +0.000 OA
ATOM     14  H   UNL     1       1.646   9.931  23.514  0.00  0.00    +0.000 HD
ENDBRANCH  12  13
ENDBRANCH   2  12
ENDBRANCH   1   3
BRANCH   1  15
ATOM     15  S   UNL     1       0.856  12.784  20.566  0.00  0.00    +0.000 S 
ATOM     16  O   UNL     1      -0.273  13.375  21.270  0.00  0.00    +0.000 OA
ATOM     17  O   UNL     1       1.967  12.225  21.306  0.00  0.00    +0.000 OA
BRANCH  15  18
ATOM     18  C   UNL     1       1.503  14.057  19.489  0.00  0.00    +0.000 A 
ATOM     19  C   UNL     1       0.879  15.311  19.447  0.00  0.00    +0.000 A 
ATOM     20  C   UNL     1       1.378  16.308  18.605  0.00  0.00    +0.000 A 
ATOM     21  C   UNL     1       2.512  16.060  17.835  0.00  0.00    +0.000 A 
ATOM     22  C   UNL     1       3.161  14.823  17.911  0.00  0.00    +0.000 A 
ATOM     23  C   UNL     1       2.660  13.820  18.746  0.00  0.00    +0.000 A 
ENDBRANCH  15  18
ENDBRANCH   1  15
BRANCH   1  24
ATOM     24  C   UNL     1      -0.466  12.181  18.292  0.00  0.00    +0.000 C 
BRANCH  24  25
ATOM     25  C   UNL     1      -1.924  11.792  18.152  0.00  0.00    +0.000 A 
ATOM     26  C   UNL     1      -2.841  12.050  19.185  0.00  0.00    +0.000 A 
ATOM     27  C   UNL     1      -4.206  11.811  18.999  0.00  0.00    +0.000 A 
ATOM     28  C   UNL     1      -4.654  11.292  17.791  0.00  0.00    +0.000 A 
ATOM     29  F   UNL     1      -5.968  11.121  17.596  0.00  0.00    +0.000 F 
ATOM     30  C   UNL     1      -3.748  10.961  16.791  0.00  0.00    +0.000 A 
ATOM     31  F   UNL     1      -4.178  10.425  15.641  0.00  0.00    +0.000 F 
ATOM     32  C   UNL     1      -2.387  11.202  16.964  0.00  0.00    +0.000 A 
ENDBRANCH  24  25
ENDBRANCH   1  24
TORSDOF 7
ENDMDL
MODEL 8
REMARK VINA RESULT:      -7.3      1.785      2.449
REMARK  Name = 
REMARK  8 active torsions:
REMARK  status: ('A' for Active; 'I' for Inactive)
REMARK    1  A    between atoms: C_1  and  C_2
REMARK    2  A    between atoms: C_2  and  O_3
REMARK    3  A    between atoms: C_2  and  C_4
REMARK    4  A    between atoms: C_5  and  N_6
REMARK    5  A    between atoms: N_6  and  C_7
REMARK    6  A    between atoms: N_6  and  S_16
REMARK    7  A    between atoms: C_7  and  C_8
REMARK    8  A    between atoms: S_16  and  C_19
REMARK                            x       y       z     vdW  Elec       q    Type
REMARK                         _______ _______ _______ _____ _____    ______ ____
ROOT
ATOM      1  N   UNL     1       0.127  11.518  19.542  0.00  0.00    +0.000 N 
ENDROOT
BRANCH   1   3
ATOM      2  C   UNL     1       1.059   9.366  20.406  0.00  0.00    +0.000 A 
ATOM      3  C   UNL     1       0.946  10.331  19.418  0.00  0.00    +0.000 A 
ATOM      4  S   UNL     1       1.862   9.956  18.037  0.00  0.00    +0.000 S 
ATOM      5  C   UNL     1       2.234   8.382  18.613  0.00  0.00    +0.000 A 
ATOM      6  C   UNL     1       3.010   7.399  17.963  0.00  0.00    +0.000 A 
ATOM      7  C   UNL     1       3.069   6.113  18.503  0.00  0.00    +0.000 A 
ATOM      8  C   UNL     1       2.392   5.816  19.676  0.00  0.00    +0.000 A 
ATOM      9  C   UNL     1       1.709   6.821  20.367  0.00  0.00    +0.000 A 
ATOM     10  C   UNL     1       1.629   8.143  19.849  0.00  0.00    +0.000 A 
BRANCH   2  12
ATOM     11  C   UNL     1      -0.466   8.614  22.321  0.00  0.00    +0.000 C 
ATOM     12  C   UNL     1       0.651   9.532  21.856  0.00  0.00    +0.000 C 
BRANCH  12  13
ATOM     13  O   UNL     1       1.759   9.316  22.743  0.00  0.00    +0.000 OA
ATOM     14  H   UNL     1       1.998   8.375  22.675  0.00  0.00    +0.000 HD
ENDBRANCH  12  13
ENDBRANCH   2  12
ENDBRANCH   1   3
BRANCH   1  15
ATOM     15  S   UNL     1       0.774  12.733  20.566  0.00  0.00    +0.000 S 
ATOM     16  O   UNL     1       1.892  12.129  21.275  0.00  0.00    +0.000 OA
ATOM     17  O   UNL     1       0.957  13.963  19.826  0.00  0.00    +0.000 OA
BRANCH  15  18
ATOM     18  C   UNL     1      -0.505  13.016  21.785  0.00  0.00    +0.000 A 
ATOM     19  C   UNL     1      -1.531  12.074  21.942  0.00  0.00    +0.000 A 
ATOM     20  C   UNL     1      -2.534  12.291  22.890  0.00  0.00    +0.000 A 
ATOM     21  C   UNL     1      -2.492  13.427  23.694  0.00  0.00    +0.000 A 
ATOM     22  C   UNL     1      -1.443  14.345  23.567  0.00  0.00    +0.000 A 
ATOM     23  C   UNL     1      -0.442  14.136  22.615  0.00  0.00    +0.000 A 
ENDBRANCH  15  18
ENDBRANCH   1  15
BRANCH   1  24
ATOM     24  C   UNL     1      -0.617  12.046  18.359  0.00  0.00    +0.000 C 
BRANCH  24  25
ATOM     25  C   UNL     1      -2.053  11.568  18.264  0.00  0.00    +0.000 A 
ATOM     26  C   UNL     1      -2.370  10.364  17.610  0.00  0.00    +0.000 A 
ATOM     27  C   UNL     1      -3.673   9.862  17.639  0.00  0.00    +0.000 A 
ATOM     28  C   UNL     1      -4.668  10.572  18.301  0.00  0.00    +0.000 A 
ATOM     29  F   UNL     1      -5.902  10.057  18.378  0.00  0.00    +0.000 F 
ATOM     30  C   UNL     1      -4.382  11.799  18.885  0.00  0.00    +0.000 A 
ATOM     31  F   UNL     1      -5.351  12.500  19.489  0.00  0.00    +0.000 F 
ATOM     32  C   UNL     1      -3.085  12.305  18.867  0.00  0.00    +0.000 A 
ENDBRANCH  24  25
ENDBRANCH   1  24
TORSDOF 7
ENDMDL
MODEL 9
REMARK VINA RESULT:      -7.3      0.588      1.240
REMARK  Name = 
REMARK  8 active torsions:
REMARK  status: ('A' for Active; 'I' for Inactive)
REMARK    1  A    between atoms: C_1  and  C_2
REMARK    2  A    between atoms: C_2  and  O_3
REMARK    3  A    between atoms: C_2  and  C_4
REMARK    4  A    between atoms: C_5  and  N_6
REMARK    5  A    between atoms: N_6  and  C_7
REMARK    6  A    between atoms: N_6  and  S_16
REMARK    7  A    between atoms: C_7  and  C_8
REMARK    8  A    between atoms: S_16  and  C_19
REMARK                            x       y       z     vdW  Elec       q    Type
REMARK                         _______ _______ _______ _____ _____    ______ ____
ROOT
ATOM      1  N   UNL     1       0.136  11.648  19.705  0.00  0.00    +0.000 N 
ENDROOT
BRANCH   1   3
ATOM      2  C   UNL     1       1.058   9.498  20.584  0.00  0.00    +0.000 A 
ATOM      3  C   UNL     1       0.907  10.431  19.571  0.00  0.00    +0.000 A 
ATOM      4  S   UNL     1       1.717   9.978  18.147  0.00  0.00    +0.000 S 
ATOM      5  C   UNL     1       2.078   8.414  18.754  0.00  0.00    +0.000 A 
ATOM      6  C   UNL     1       2.778   7.384  18.091  0.00  0.00    +0.000 A 
ATOM      7  C   UNL     1       2.833   6.116  18.673  0.00  0.00    +0.000 A 
ATOM      8  C   UNL     1       2.228   5.882  19.898  0.00  0.00    +0.000 A 
ATOM      9  C   UNL     1       1.624   6.933  20.596  0.00  0.00    +0.000 A 
ATOM     10  C   UNL     1       1.550   8.238  20.036  0.00  0.00    +0.000 A 
BRANCH   2  12
ATOM     11  C   UNL     1      -0.476   9.008  22.575  0.00  0.00    +0.000 C 
ATOM     12  C   UNL     1       0.754   9.727  22.051  0.00  0.00    +0.000 C 
BRANCH  12  13
ATOM     13  O   UNL     1       1.853   9.329  22.885  0.00  0.00    +0.000 OA
ATOM     14  H   UNL     1       2.355  10.135  23.096  0.00  0.00    +0.000 HD
ENDBRANCH  12  13
ENDBRANCH   2  12
ENDBRANCH   1   3
BRANCH   1  15
ATOM     15  S   UNL     1       0.790  12.796  20.801  0.00  0.00    +0.000 S 
ATOM     16  O   UNL     1      -0.015  12.722  22.011  0.00  0.00    +0.000 OA
ATOM     17  O   UNL     1       2.228  12.655  20.871  0.00  0.00    +0.000 OA
BRANCH  15  18
ATOM     18  C   UNL     1       0.433  14.380  20.052  0.00  0.00    +0.000 A 
ATOM     19  C   UNL     1      -0.759  15.045  20.374  0.00  0.00    +0.000 A 
ATOM     20  C   UNL     1      -1.045  16.282  19.790  0.00  0.00    +0.000 A 
ATOM     21  C   UNL     1      -0.130  16.861  18.914  0.00  0.00    +0.000 A 
ATOM     22  C   UNL     1       1.079  16.218  18.627  0.00  0.00    +0.000 A 
ATOM     23  C   UNL     1       1.366  14.977  19.203  0.00  0.00    +0.000 A 
ENDBRANCH  15  18
ENDBRANCH   1  15
BRANCH   1  24
ATOM     24  C   UNL     1      -0.532  12.251  18.513  0.00  0.00    +0.000 C 
BRANCH  24  25
ATOM     25  C   UNL     1      -1.986  11.855  18.350  0.00  0.00    +0.000 A 
ATOM     26  C   UNL     1      -2.385  10.982  17.323  0.00  0.00    +0.000 A 
ATOM     27  C   UNL     1      -3.701  10.517  17.256  0.00  0.00    +0.000 A 
ATOM     28  C   UNL     1      -4.627  10.940  18.201  0.00  0.00    +0.000 A 
ATOM     29  F   UNL     1      -5.871  10.445  18.170  0.00  0.00    +0.000 F 
ATOM     30  C   UNL     1      -4.264  11.862  19.175  0.00  0.00    +0.000 A 
ATOM     31  F   UNL     1      -5.169  12.299  20.062  0.00  0.00    +0.000 F 
ATOM     32  C   UNL     1      -2.953  12.327  19.253  0.00  0.00    +0.000 A 
ENDBRANCH  24  25
ENDBRANCH   1  24
TORSDOF 7
ENDMDL
