MODEL 1
REMARK VINA RESULT:      -7.8      0.000      0.000
REMARK  Name = 
REMARK  2 active torsions:
REMARK  status: ('A' for Active; 'I' for Inactive)
REMARK    1  A    between atoms: C_5  and  C_7
REMARK    2  A    between atoms: N_24  and  C_25
REMARK                            x       y       z     vdW  Elec       q    Type
REMARK                         _______ _______ _______ _____ _____    ______ ____
ROOT
ATOM      1  C   UNL     1      -3.082  13.314  22.536  0.00  0.00    +0.000 C 
ATOM      2  C   UNL     1      -1.730  13.235  23.217  0.00  0.00    +0.000 C 
ATOM      3  C   UNL     1      -0.729  12.900  22.384  0.00  0.00    +0.000 C 
ATOM      4  C   UNL     1      -0.333  11.459  22.342  0.00  0.00    +0.000 A 
ATOM      5  C   UNL     1      -0.966  10.389  22.993  0.00  0.00    +0.000 A 
ATOM      6  C   UNL     1      -0.772   9.074  22.556  0.00  0.00    +0.000 A 
ATOM      7  C   UNL     1       0.086   8.772  21.487  0.00  0.00    +0.000 A 
ATOM      8  C   UNL     1       0.758   9.840  20.888  0.00  0.00    +0.000 A 
ATOM      9  N   UNL     1       1.605   9.911  19.802  0.00  0.00    +0.000 N 
ATOM     10  C   UNL     1       1.895  11.225  19.500  0.00  0.00    +0.000 A 
ATOM     11  C   UNL     1       1.186  12.009  20.379  0.00  0.00    +0.000 A 
ATOM     12  C   UNL     1       0.559  11.145  21.306  0.00  0.00    +0.000 A 
ATOM     13  C   UNL     1       0.849  13.464  20.419  0.00  0.00    +0.000 C 
ATOM     14  C   UNL     1      -0.589  13.649  21.036  0.00  0.00    +0.000 C 
ATOM     15  N   UNL     1      -1.796  13.269  20.252  0.00  0.00    +0.000 N 
ATOM     16  C   UNL     1      -1.723  12.779  18.943  0.00  0.00    +0.000 C 
ATOM     17  O   UNL     1      -0.690  12.665  18.296  0.00  0.00    +0.000 OA
ATOM     18  N   UNL     1      -2.949  12.422  18.412  0.00  0.00    +0.000 N 
ATOM     19  C   UNL     1      -3.082  13.291  20.985  0.00  0.00    +0.000 C 
ATOM     20  H   UNL     1       1.883   9.119  19.241  0.00  0.00    +0.000 HD
ATOM     21  H   UNL     1      -3.713  13.044  18.612  0.00  0.00    +0.000 HD
ENDROOT
BRANCH   1  26
ATOM     22  O   UNL     1      -7.535  11.212  23.852  0.00  0.00    +0.000 OA
ATOM     23  C   UNL     1      -7.073  12.355  23.829  0.00  0.00    +0.000 C 
ATOM     24  C   UNL     1      -5.575  12.635  24.014  0.00  0.00    +0.000 C 
ATOM     25  N   UNL     1      -5.156  14.019  23.723  0.00  0.00    +0.000 N 
ATOM     26  C   UNL     1      -4.012  14.420  23.037  0.00  0.00    +0.000 C 
ATOM     27  O   UNL     1      -3.771  15.606  22.809  0.00  0.00    +0.000 OA
ATOM     28  C   UNL     1      -6.106  15.035  24.174  0.00  0.00    +0.000 C 
ATOM     29  C   UNL     1      -7.441  14.782  23.484  0.00  0.00    +0.000 C 
ATOM     30  N   UNL     1      -7.917  13.434  23.733  0.00  0.00    +0.000 N 
ATOM     31  H   UNL     1      -8.893  13.203  23.566  0.00  0.00    +0.000 HD
ENDBRANCH   1  26
BRANCH  18  32
ATOM     32  C   UNL     1      -3.178  11.429  17.439  0.00  0.00    +0.000 A 
ATOM     33  C   UNL     1      -3.993  11.631  16.322  0.00  0.00    +0.000 A 
ATOM     34  C   UNL     1      -4.117  10.637  15.350  0.00  0.00    +0.000 A 
ATOM     35  C   UNL     1      -3.427   9.433  15.487  0.00  0.00    +0.000 A 
ATOM     36  C   UNL     1      -2.610   9.224  16.596  0.00  0.00    +0.000 A 
ATOM     37  C   UNL     1      -2.480  10.224  17.565  0.00  0.00    +0.000 A 
ENDBRANCH  18  32
TORSDOF 2
ENDMDL
MODEL 2
REMARK VINA RESULT:      -7.7      1.278      1.302
REMARK  Name = 
REMARK  2 active torsions:
REMARK  status: ('A' for Active; 'I' for Inactive)
REMARK    1  A    between atoms: C_5  and  C_7
REMARK    2  A    between atoms: N_24  and  C_25
REMARK                            x       y       z     vdW  Elec       q    Type
REMARK                         _______ _______ _______ _____ _____    ______ ____
ROOT
ATOM      1  C   UNL     1      -3.470  12.593  22.764  0.00  0.00    +0.000 C 
ATOM      2  C   UNL     1      -2.124  12.657  23.460  0.00  0.00    +0.000 C 
ATOM      3  C   UNL     1      -1.081  12.607  22.612  0.00  0.00    +0.000 C 
ATOM      4  C   UNL     1      -0.444  11.272  22.396  0.00  0.00    +0.000 A 
ATOM      5  C   UNL     1      -0.885  10.034  22.892  0.00  0.00    +0.000 A 
ATOM      6  C   UNL     1      -0.469   8.839  22.296  0.00  0.00    +0.000 A 
ATOM      7  C   UNL     1       0.427   8.827  21.216  0.00  0.00    +0.000 A 
ATOM      8  C   UNL     1       0.906  10.061  20.773  0.00  0.00    +0.000 A 
ATOM      9  N   UNL     1       1.728  10.414  19.723  0.00  0.00    +0.000 N 
ATOM     10  C   UNL     1       1.790  11.786  19.597  0.00  0.00    +0.000 A 
ATOM     11  C   UNL     1       0.958  12.319  20.552  0.00  0.00    +0.000 A 
ATOM     12  C   UNL     1       0.487  11.249  21.348  0.00  0.00    +0.000 A 
ATOM     13  C   UNL     1       0.376  13.679  20.769  0.00  0.00    +0.000 C 
ATOM     14  C   UNL     1      -1.071  13.535  21.374  0.00  0.00    +0.000 C 
ATOM     15  N   UNL     1      -2.196  13.061  20.522  0.00  0.00    +0.000 N 
ATOM     16  C   UNL     1      -2.040  12.762  19.163  0.00  0.00    +0.000 C 
ATOM     17  O   UNL     1      -1.003  12.910  18.530  0.00  0.00    +0.000 OA
ATOM     18  N   UNL     1      -3.187  12.274  18.564  0.00  0.00    +0.000 N 
ATOM     19  C   UNL     1      -3.466  12.770  21.224  0.00  0.00    +0.000 C 
ATOM     20  H   UNL     1       2.138   9.760  19.072  0.00  0.00    +0.000 HD
ATOM     21  H   UNL     1      -4.046  12.727  18.825  0.00  0.00    +0.000 HD
ENDROOT
BRANCH   1  26
ATOM     22  O   UNL     1      -7.552  12.412  19.718  0.00  0.00    +0.000 OA
ATOM     23  C   UNL     1      -7.266  12.980  20.774  0.00  0.00    +0.000 C 
ATOM     24  C   UNL     1      -6.271  12.383  21.780  0.00  0.00    +0.000 C 
ATOM     25  N   UNL     1      -5.860  13.291  22.866  0.00  0.00    +0.000 N 
ATOM     26  C   UNL     1      -4.575  13.452  23.381  0.00  0.00    +0.000 C 
ATOM     27  O   UNL     1      -4.326  14.270  24.267  0.00  0.00    +0.000 OA
ATOM     28  C   UNL     1      -6.942  14.128  23.384  0.00  0.00    +0.000 C 
ATOM     29  C   UNL     1      -7.486  14.970  22.236  0.00  0.00    +0.000 C 
ATOM     30  N   UNL     1      -7.916  14.136  21.128  0.00  0.00    +0.000 N 
ATOM     31  H   UNL     1      -8.531  14.520  20.415  0.00  0.00    +0.000 HD
ENDBRANCH   1  26
BRANCH  18  32
ATOM     32  C   UNL     1      -3.244  11.391  17.469  0.00  0.00    +0.000 A 
ATOM     33  C   UNL     1      -4.095  11.585  16.378  0.00  0.00    +0.000 A 
ATOM     34  C   UNL     1      -4.048  10.718  15.284  0.00  0.00    +0.000 A 
ATOM     35  C   UNL     1      -3.150   9.652  15.272  0.00  0.00    +0.000 A 
ATOM     36  C   UNL     1      -2.296   9.453  16.355  0.00  0.00    +0.000 A 
ATOM     37  C   UNL     1      -2.338  10.327  17.447  0.00  0.00    +0.000 A 
ENDBRANCH  18  32
TORSDOF 2
ENDMDL
MODEL 3
REMARK VINA RESULT:      -7.4      1.209      2.295
REMARK  Name = 
REMARK  2 active torsions:
REMARK  status: ('A' for Active; 'I' for Inactive)
REMARK    1  A    between atoms: C_5  and  C_7
REMARK    2  A    between atoms: N_24  and  C_25
REMARK                            x       y       z     vdW  Elec       q    Type
REMARK                         _______ _______ _______ _____ _____    ______ ____
ROOT
ATOM      1  C   UNL     1      -3.843  12.695  22.880  0.00  0.00    +0.000 C 
ATOM      2  C   UNL     1      -2.534  12.888  23.619  0.00  0.00    +0.000 C 
ATOM      3  C   UNL     1      -1.461  12.911  22.809  0.00  0.00    +0.000 C 
ATOM      4  C   UNL     1      -0.706  11.631  22.647  0.00  0.00    +0.000 A 
ATOM      5  C   UNL     1      -1.057  10.370  23.156  0.00  0.00    +0.000 A 
ATOM      6  C   UNL     1      -0.520   9.203  22.603  0.00  0.00    +0.000 A 
ATOM      7  C   UNL     1       0.413   9.246  21.555  0.00  0.00    +0.000 A 
ATOM      8  C   UNL     1       0.801  10.507  21.100  0.00  0.00    +0.000 A 
ATOM      9  N   UNL     1       1.627  10.907  20.070  0.00  0.00    +0.000 N 
ATOM     10  C   UNL     1       1.576  12.277  19.914  0.00  0.00    +0.000 A 
ATOM     11  C   UNL     1       0.668  12.756  20.827  0.00  0.00    +0.000 A 
ATOM     12  C   UNL     1       0.262  11.667  21.632  0.00  0.00    +0.000 A 
ATOM     13  C   UNL     1      -0.034  14.065  20.993  0.00  0.00    +0.000 C 
ATOM     14  C   UNL     1      -1.485  13.811  21.550  0.00  0.00    +0.000 C 
ATOM     15  N   UNL     1      -2.534  13.224  20.672  0.00  0.00    +0.000 N 
ATOM     16  C   UNL     1      -2.305  12.912  19.327  0.00  0.00    +0.000 C 
ATOM     17  O   UNL     1      -1.262  13.135  18.726  0.00  0.00    +0.000 OA
ATOM     18  N   UNL     1      -3.384  12.315  18.701  0.00  0.00    +0.000 N 
ATOM     19  C   UNL     1      -3.800  12.840  21.337  0.00  0.00    +0.000 C 
ATOM     20  H   UNL     1       2.114  10.278  19.449  0.00  0.00    +0.000 HD
ATOM     21  H   UNL     1      -4.287  12.698  18.921  0.00  0.00    +0.000 HD
ENDROOT
BRANCH   1  26
ATOM     22  O   UNL     1      -2.895  17.684  22.443  0.00  0.00    +0.000 OA
ATOM     23  C   UNL     1      -3.815  16.999  22.893  0.00  0.00    +0.000 C 
ATOM     24  C   UNL     1      -4.146  15.606  22.337  0.00  0.00    +0.000 C 
ATOM     25  N   UNL     1      -5.109  14.826  23.136  0.00  0.00    +0.000 N 
ATOM     26  C   UNL     1      -5.039  13.468  23.438  0.00  0.00    +0.000 C 
ATOM     27  O   UNL     1      -5.878  12.915  24.151  0.00  0.00    +0.000 OA
ATOM     28  C   UNL     1      -6.203  15.622  23.692  0.00  0.00    +0.000 C 
ATOM     29  C   UNL     1      -5.604  16.702  24.585  0.00  0.00    +0.000 C 
ATOM     30  N   UNL     1      -4.645  17.514  23.857  0.00  0.00    +0.000 N 
ATOM     31  H   UNL     1      -4.364  18.418  24.229  0.00  0.00    +0.000 HD
ENDBRANCH   1  26
BRANCH  18  32
ATOM     32  C   UNL     1      -3.326  11.408  17.626  0.00  0.00    +0.000 A 
ATOM     33  C   UNL     1      -4.095  11.549  16.467  0.00  0.00    +0.000 A 
ATOM     34  C   UNL     1      -3.934  10.663  15.401  0.00  0.00    +0.000 A 
ATOM     35  C   UNL     1      -3.003   9.628  15.484  0.00  0.00    +0.000 A 
ATOM     36  C   UNL     1      -2.230   9.481  16.634  0.00  0.00    +0.000 A 
ATOM     37  C   UNL     1      -2.386  10.375  17.698  0.00  0.00    +0.000 A 
ENDBRANCH  18  32
TORSDOF 2
ENDMDL
MODEL 4
REMARK VINA RESULT:      -7.3      8.675     10.877
REMARK  Name = 
REMARK  2 active torsions:
REMARK  status: ('A' for Active; 'I' for Inactive)
REMARK    1  A    between atoms: C_5  and  C_7
REMARK    2  A    between atoms: N_24  and  C_25
REMARK                            x       y       z     vdW  Elec       q    Type
REMARK                         _______ _______ _______ _____ _____    ______ ____
ROOT
ATOM      1  C   UNL     1       8.284  13.355  23.251  0.00  0.00    +0.000 C 
ATOM      2  C   UNL     1       9.700  13.004  22.839  0.00  0.00    +0.000 C 
ATOM      3  C   UNL     1      10.044  13.495  21.635  0.00  0.00    +0.000 C 
ATOM      4  C   UNL     1       9.914  12.575  20.464  0.00  0.00    +0.000 A 
ATOM      5  C   UNL     1       9.362  11.284  20.460  0.00  0.00    +0.000 A 
ATOM      6  C   UNL     1       8.920  10.702  19.267  0.00  0.00    +0.000 A 
ATOM      7  C   UNL     1       9.046  11.361  18.035  0.00  0.00    +0.000 A 
ATOM      8  C   UNL     1       9.653  12.618  18.045  0.00  0.00    +0.000 A 
ATOM      9  N   UNL     1       9.876  13.549  17.051  0.00  0.00    +0.000 N 
ATOM     10  C   UNL     1      10.378  14.716  17.585  0.00  0.00    +0.000 A 
ATOM     11  C   UNL     1      10.435  14.547  18.948  0.00  0.00    +0.000 A 
ATOM     12  C   UNL     1      10.080  13.207  19.224  0.00  0.00    +0.000 A 
ATOM     13  C   UNL     1      10.617  15.487  20.096  0.00  0.00    +0.000 C 
ATOM     14  C   UNL     1       9.764  14.984  21.321  0.00  0.00    +0.000 C 
ATOM     15  N   UNL     1       8.280  15.107  21.302  0.00  0.00    +0.000 N 
ATOM     16  C   UNL     1       7.585  15.696  20.240  0.00  0.00    +0.000 C 
ATOM     17  O   UNL     1       8.110  16.214  19.263  0.00  0.00    +0.000 OA
ATOM     18  N   UNL     1       6.210  15.654  20.382  0.00  0.00    +0.000 N 
ATOM     19  C   UNL     1       7.558  14.430  22.402  0.00  0.00    +0.000 C 
ATOM     20  H   UNL     1       9.605  13.430  16.085  0.00  0.00    +0.000 HD
ATOM     21  H   UNL     1       5.857  15.843  21.305  0.00  0.00    +0.000 HD
ENDROOT
BRANCH   1  26
ATOM     22  O   UNL     1       4.682  10.221  25.035  0.00  0.00    +0.000 OA
ATOM     23  C   UNL     1       5.373  11.126  25.506  0.00  0.00    +0.000 C 
ATOM     24  C   UNL     1       6.775  11.448  24.969  0.00  0.00    +0.000 C 
ATOM     25  N   UNL     1       7.365  12.702  25.474  0.00  0.00    +0.000 N 
ATOM     26  C   UNL     1       8.080  13.645  24.739  0.00  0.00    +0.000 C 
ATOM     27  O   UNL     1       8.500  14.685  25.248  0.00  0.00    +0.000 OA
ATOM     28  C   UNL     1       7.095  12.959  26.888  0.00  0.00    +0.000 C 
ATOM     29  C   UNL     1       5.585  13.028  27.082  0.00  0.00    +0.000 C 
ATOM     30  N   UNL     1       4.937  11.819  26.608  0.00  0.00    +0.000 N 
ATOM     31  H   UNL     1       3.987  11.606  26.902  0.00  0.00    +0.000 HD
ENDBRANCH   1  26
BRANCH  18  32
ATOM     32  C   UNL     1       5.266  15.616  19.338  0.00  0.00    +0.000 A 
ATOM     33  C   UNL     1       4.909  14.438  18.677  0.00  0.00    +0.000 A 
ATOM     34  C   UNL     1       3.906  14.450  17.705  0.00  0.00    +0.000 A 
ATOM     35  C   UNL     1       3.253  15.640  17.387  0.00  0.00    +0.000 A 
ATOM     36  C   UNL     1       3.601  16.819  18.043  0.00  0.00    +0.000 A 
ATOM     37  C   UNL     1       4.599  16.804  19.023  0.00  0.00    +0.000 A 
ENDBRANCH  18  32
TORSDOF 2
ENDMDL
MODEL 5
REMARK VINA RESULT:      -7.2      2.535      7.127
REMARK  Name = 
REMARK  2 active torsions:
REMARK  status: ('A' for Active; 'I' for Inactive)
REMARK    1  A    between atoms: C_5  and  C_7
REMARK    2  A    between atoms: N_24  and  C_25
REMARK                            x       y       z     vdW  Elec       q    Type
REMARK                         _______ _______ _______ _____ _____    ______ ____
ROOT
ATOM      1  C   UNL     1      -2.223  13.022  22.592  0.00  0.00    +0.000 C 
ATOM      2  C   UNL     1      -2.612  13.498  23.978  0.00  0.00    +0.000 C 
ATOM      3  C   UNL     1      -3.919  13.796  24.093  0.00  0.00    +0.000 C 
ATOM      4  C   UNL     1      -4.304  15.232  23.940  0.00  0.00    +0.000 A 
ATOM      5  C   UNL     1      -3.467  16.298  23.573  0.00  0.00    +0.000 A 
ATOM      6  C   UNL     1      -4.006  17.485  23.064  0.00  0.00    +0.000 A 
ATOM      7  C   UNL     1      -5.391  17.671  22.938  0.00  0.00    +0.000 A 
ATOM      8  C   UNL     1      -6.215  16.627  23.364  0.00  0.00    +0.000 A 
ATOM      9  N   UNL     1      -7.582  16.450  23.328  0.00  0.00    +0.000 N 
ATOM     10  C   UNL     1      -7.916  15.174  23.732  0.00  0.00    +0.000 A 
ATOM     11  C   UNL     1      -6.741  14.509  23.986  0.00  0.00    +0.000 A 
ATOM     12  C   UNL     1      -5.688  15.443  23.855  0.00  0.00    +0.000 A 
ATOM     13  C   UNL     1      -6.395  13.069  24.186  0.00  0.00    +0.000 C 
ATOM     14  C   UNL     1      -4.971  12.786  23.575  0.00  0.00    +0.000 C 
ATOM     15  N   UNL     1      -4.782  12.750  22.098  0.00  0.00    +0.000 N 
ATOM     16  C   UNL     1      -5.840  12.920  21.198  0.00  0.00    +0.000 C 
ATOM     17  O   UNL     1      -7.014  13.057  21.516  0.00  0.00    +0.000 OA
ATOM     18  N   UNL     1      -5.448  12.919  19.871  0.00  0.00    +0.000 N 
ATOM     19  C   UNL     1      -3.382  12.676  21.623  0.00  0.00    +0.000 C 
ATOM     20  H   UNL     1      -8.236  17.122  22.953  0.00  0.00    +0.000 HD
ATOM     21  H   UNL     1      -4.754  12.237  19.618  0.00  0.00    +0.000 HD
ENDROOT
BRANCH   1  26
ATOM     22  O   UNL     1       0.091  13.195  18.053  0.00  0.00    +0.000 OA
ATOM     23  C   UNL     1       0.177  12.488  19.059  0.00  0.00    +0.000 C 
ATOM     24  C   UNL     1      -0.141  13.021  20.464  0.00  0.00    +0.000 C 
ATOM     25  N   UNL     1      -0.222  11.994  21.519  0.00  0.00    +0.000 N 
ATOM     26  C   UNL     1      -1.162  11.921  22.544  0.00  0.00    +0.000 C 
ATOM     27  O   UNL     1      -1.168  10.996  23.358  0.00  0.00    +0.000 OA
ATOM     28  C   UNL     1       0.779  10.935  21.396  0.00  0.00    +0.000 C 
ATOM     29  C   UNL     1       0.590  10.252  20.047  0.00  0.00    +0.000 C 
ATOM     30  N   UNL     1       0.663  11.208  18.957  0.00  0.00    +0.000 N 
ATOM     31  H   UNL     1       0.817  10.880  18.007  0.00  0.00    +0.000 HD
ENDBRANCH   1  26
BRANCH  18  32
ATOM     32  C   UNL     1      -6.086  13.596  18.814  0.00  0.00    +0.000 A 
ATOM     33  C   UNL     1      -6.365  14.965  18.844  0.00  0.00    +0.000 A 
ATOM     34  C   UNL     1      -6.926  15.595  17.731  0.00  0.00    +0.000 A 
ATOM     35  C   UNL     1      -7.213  14.862  16.581  0.00  0.00    +0.000 A 
ATOM     36  C   UNL     1      -6.936  13.497  16.541  0.00  0.00    +0.000 A 
ATOM     37  C   UNL     1      -6.366  12.868  17.653  0.00  0.00    +0.000 A 
ENDBRANCH  18  32
TORSDOF 2
ENDMDL
MODEL 6
REMARK VINA RESULT:      -7.2      8.670     10.976
REMARK  Name = 
REMARK  2 active torsions:
REMARK  status: ('A' for Active; 'I' for Inactive)
REMARK    1  A    between atoms: C_5  and  C_7
REMARK    2  A    between atoms: N_24  and  C_25
REMARK                            x       y       z     vdW  Elec       q    Type
REMARK                         _______ _______ _______ _____ _____    ______ ____
ROOT
ATOM      1  C   UNL     1       6.781  11.878  23.717  0.00  0.00    +0.000 C 
ATOM      2  C   UNL     1       8.293  11.793  23.789  0.00  0.00    +0.000 C 
ATOM      3  C   UNL     1       8.917  12.736  23.061  0.00  0.00    +0.000 C 
ATOM      4  C   UNL     1       9.371  12.346  21.691  0.00  0.00    +0.000 A 
ATOM      5  C   UNL     1       9.118  11.134  21.029  0.00  0.00    +0.000 A 
ATOM      6  C   UNL     1       9.226  11.048  19.636  0.00  0.00    +0.000 A 
ATOM      7  C   UNL     1       9.625  12.145  18.858  0.00  0.00    +0.000 A 
ATOM      8  C   UNL     1       9.934  13.327  19.535  0.00  0.00    +0.000 A 
ATOM      9  N   UNL     1      10.289  14.583  19.092  0.00  0.00    +0.000 N 
ATOM     10  C   UNL     1      10.343  15.471  20.147  0.00  0.00    +0.000 A 
ATOM     11  C   UNL     1       9.972  14.781  21.276  0.00  0.00    +0.000 A 
ATOM     12  C   UNL     1       9.815  13.425  20.912  0.00  0.00    +0.000 A 
ATOM     13  C   UNL     1       9.569  15.201  22.653  0.00  0.00    +0.000 C 
ATOM     14  C   UNL     1       8.472  14.212  23.199  0.00  0.00    +0.000 C 
ATOM     15  N   UNL     1       7.087  14.253  22.653  0.00  0.00    +0.000 N 
ATOM     16  C   UNL     1       6.686  15.177  21.681  0.00  0.00    +0.000 C 
ATOM     17  O   UNL     1       7.395  16.065  21.226  0.00  0.00    +0.000 OA
ATOM     18  N   UNL     1       5.380  15.010  21.258  0.00  0.00    +0.000 N 
ATOM     19  C   UNL     1       6.185  13.161  23.082  0.00  0.00    +0.000 C 
ATOM     20  H   UNL     1      10.387  14.841  18.121  0.00  0.00    +0.000 HD
ATOM     21  H   UNL     1       4.708  14.800  21.976  0.00  0.00    +0.000 HD
ENDROOT
BRANCH   1  26
ATOM     22  O   UNL     1       9.166  14.179  27.589  0.00  0.00    +0.000 OA
ATOM     23  C   UNL     1       8.188  13.439  27.473  0.00  0.00    +0.000 C 
ATOM     24  C   UNL     1       7.322  13.420  26.205  0.00  0.00    +0.000 C 
ATOM     25  N   UNL     1       6.345  12.318  26.131  0.00  0.00    +0.000 N 
ATOM     26  C   UNL     1       6.037  11.547  25.012  0.00  0.00    +0.000 C 
ATOM     27  O   UNL     1       5.230  10.618  25.063  0.00  0.00    +0.000 OA
ATOM     28  C   UNL     1       5.702  12.006  27.406  0.00  0.00    +0.000 C 
ATOM     29  C   UNL     1       6.786  11.620  28.407  0.00  0.00    +0.000 C 
ATOM     30  N   UNL     1       7.783  12.667  28.533  0.00  0.00    +0.000 N 
ATOM     31  H   UNL     1       8.409  12.674  29.335  0.00  0.00    +0.000 HD
ENDBRANCH   1  26
BRANCH  18  32
ATOM     32  C   UNL     1       4.868  15.337  19.988  0.00  0.00    +0.000 A 
ATOM     33  C   UNL     1       5.366  14.791  18.802  0.00  0.00    +0.000 A 
ATOM     34  C   UNL     1       4.763  15.091  17.578  0.00  0.00    +0.000 A 
ATOM     35  C   UNL     1       3.658  15.939  17.532  0.00  0.00    +0.000 A 
ATOM     36  C   UNL     1       3.153  16.486  18.709  0.00  0.00    +0.000 A 
ATOM     37  C   UNL     1       3.752  16.178  19.935  0.00  0.00    +0.000 A 
ENDBRANCH  18  32
TORSDOF 2
ENDMDL
MODEL 7
REMARK VINA RESULT:      -7.0      8.032     12.767
REMARK  Name = 
REMARK  2 active torsions:
REMARK  status: ('A' for Active; 'I' for Inactive)
REMARK    1  A    between atoms: C_5  and  C_7
REMARK    2  A    between atoms: N_24  and  C_25
REMARK                            x       y       z     vdW  Elec       q    Type
REMARK                         _______ _______ _______ _____ _____    ______ ____
ROOT
ATOM      1  C   UNL     1       8.357  15.367  18.935  0.00  0.00    +0.000 C 
ATOM      2  C   UNL     1       7.381  16.472  18.584  0.00  0.00    +0.000 C 
ATOM      3  C   UNL     1       6.646  16.888  19.631  0.00  0.00    +0.000 C 
ATOM      4  C   UNL     1       5.283  16.293  19.783  0.00  0.00    +0.000 A 
ATOM      5  C   UNL     1       4.721  15.258  19.019  0.00  0.00    +0.000 A 
ATOM      6  C   UNL     1       3.638  14.519  19.507  0.00  0.00    +0.000 A 
ATOM      7  C   UNL     1       3.051  14.804  20.749  0.00  0.00    +0.000 A 
ATOM      8  C   UNL     1       3.579  15.876  21.471  0.00  0.00    +0.000 A 
ATOM      9  N   UNL     1       3.294  16.381  22.723  0.00  0.00    +0.000 N 
ATOM     10  C   UNL     1       4.199  17.365  23.065  0.00  0.00    +0.000 A 
ATOM     11  C   UNL     1       5.105  17.458  22.036  0.00  0.00    +0.000 A 
ATOM     12  C   UNL     1       4.660  16.603  21.002  0.00  0.00    +0.000 A 
ATOM     13  C   UNL     1       6.445  18.106  21.899  0.00  0.00    +0.000 C 
ATOM     14  C   UNL     1       7.356  17.225  20.964  0.00  0.00    +0.000 C 
ATOM     15  N   UNL     1       7.902  15.929  21.454  0.00  0.00    +0.000 N 
ATOM     16  C   UNL     1       7.673  15.456  22.751  0.00  0.00    +0.000 C 
ATOM     17  O   UNL     1       7.064  16.066  23.620  0.00  0.00    +0.000 OA
ATOM     18  N   UNL     1       8.209  14.203  22.990  0.00  0.00    +0.000 N 
ATOM     19  C   UNL     1       8.577  15.084  20.444  0.00  0.00    +0.000 C 
ATOM     20  H   UNL     1       2.591  16.008  23.344  0.00  0.00    +0.000 HD
ATOM     21  H   UNL     1       9.125  14.037  22.611  0.00  0.00    +0.000 HD
ENDROOT
BRANCH   1  26
ATOM     22  O   UNL     1       9.891  10.600  17.983  0.00  0.00    +0.000 OA
ATOM     23  C   UNL     1      10.351  11.727  17.793  0.00  0.00    +0.000 C 
ATOM     24  C   UNL     1       9.451  12.953  17.579  0.00  0.00    +0.000 C 
ATOM     25  N   UNL     1      10.146  14.252  17.605  0.00  0.00    +0.000 N 
ATOM     26  C   UNL     1       9.707  15.424  18.218  0.00  0.00    +0.000 C 
ATOM     27  O   UNL     1      10.384  16.453  18.217  0.00  0.00    +0.000 OA
ATOM     28  C   UNL     1      11.455  14.239  16.953  0.00  0.00    +0.000 C 
ATOM     29  C   UNL     1      12.332  13.212  17.660  0.00  0.00    +0.000 C 
ATOM     30  N   UNL     1      11.706  11.902  17.668  0.00  0.00    +0.000 N 
ATOM     31  H   UNL     1      12.267  11.076  17.861  0.00  0.00    +0.000 HD
ENDBRANCH   1  26
BRANCH  18  32
ATOM     32  C   UNL     1       7.715  13.246  23.897  0.00  0.00    +0.000 A 
ATOM     33  C   UNL     1       8.160  13.148  25.219  0.00  0.00    +0.000 A 
ATOM     34  C   UNL     1       7.574  12.231  26.094  0.00  0.00    +0.000 A 
ATOM     35  C   UNL     1       6.541  11.405  25.655  0.00  0.00    +0.000 A 
ATOM     36  C   UNL     1       6.090  11.497  24.340  0.00  0.00    +0.000 A 
ATOM     37  C   UNL     1       6.671  12.422  23.466  0.00  0.00    +0.000 A 
ENDBRANCH  18  32
TORSDOF 2
ENDMDL
MODEL 8
REMARK VINA RESULT:      -6.8      3.029      7.130
REMARK  Name = 
REMARK  2 active torsions:
REMARK  status: ('A' for Active; 'I' for Inactive)
REMARK    1  A    between atoms: C_5  and  C_7
REMARK    2  A    between atoms: N_24  and  C_25
REMARK                            x       y       z     vdW  Elec       q    Type
REMARK                         _______ _______ _______ _____ _____    ______ ____
ROOT
ATOM      1  C   UNL     1      -1.670  14.375  22.397  0.00  0.00    +0.000 C 
ATOM      2  C   UNL     1      -2.090  14.523  23.846  0.00  0.00    +0.000 C 
ATOM      3  C   UNL     1      -3.368  14.169  24.072  0.00  0.00    +0.000 C 
ATOM      4  C   UNL     1      -4.382  15.267  24.095  0.00  0.00    +0.000 A 
ATOM      5  C   UNL     1      -4.170  16.621  23.792  0.00  0.00    +0.000 A 
ATOM      6  C   UNL     1      -5.242  17.450  23.445  0.00  0.00    +0.000 A 
ATOM      7  C   UNL     1      -6.563  16.977  23.424  0.00  0.00    +0.000 A 
ATOM      8  C   UNL     1      -6.767  15.644  23.787  0.00  0.00    +0.000 A 
ATOM      9  N   UNL     1      -7.897  14.853  23.815  0.00  0.00    +0.000 N 
ATOM     10  C   UNL     1      -7.565  13.546  24.101  0.00  0.00    +0.000 A 
ATOM     11  C   UNL     1      -6.196  13.490  24.212  0.00  0.00    +0.000 A 
ATOM     12  C   UNL     1      -5.709  14.813  24.117  0.00  0.00    +0.000 A 
ATOM     13  C   UNL     1      -5.210  12.367  24.237  0.00  0.00    +0.000 C 
ATOM     14  C   UNL     1      -3.886  12.821  23.514  0.00  0.00    +0.000 C 
ATOM     15  N   UNL     1      -3.854  12.974  22.033  0.00  0.00    +0.000 N 
ATOM     16  C   UNL     1      -4.959  12.691  21.222  0.00  0.00    +0.000 C 
ATOM     17  O   UNL     1      -6.025  12.243  21.623  0.00  0.00    +0.000 OA
ATOM     18  N   UNL     1      -4.749  12.959  19.881  0.00  0.00    +0.000 N 
ATOM     19  C   UNL     1      -2.634  13.593  21.469  0.00  0.00    +0.000 C 
ATOM     20  H   UNL     1      -8.821  15.166  23.554  0.00  0.00    +0.000 HD
ATOM     21  H   UNL     1      -3.849  12.698  19.516  0.00  0.00    +0.000 HD
ENDROOT
BRANCH   1  26
ATOM     22  O   UNL     1       0.192  16.759  18.294  0.00  0.00    +0.000 OA
ATOM     23  C   UNL     1       0.612  15.915  19.088  0.00  0.00    +0.000 C 
ATOM     24  C   UNL     1       0.133  15.854  20.546  0.00  0.00    +0.000 C 
ATOM     25  N   UNL     1       0.546  14.650  21.290  0.00  0.00    +0.000 N 
ATOM     26  C   UNL     1      -0.234  13.901  22.169  0.00  0.00    +0.000 C 
ATOM     27  O   UNL     1       0.195  12.883  22.714  0.00  0.00    +0.000 OA
ATOM     28  C   UNL     1       1.908  14.207  20.996  0.00  0.00    +0.000 C 
ATOM     29  C   UNL     1       2.001  13.904  19.505  0.00  0.00    +0.000 C 
ATOM     30  N   UNL     1       1.611  15.053  18.709  0.00  0.00    +0.000 N 
ATOM     31  H   UNL     1       1.866  15.096  17.725  0.00  0.00    +0.000 HD
ENDBRANCH   1  26
BRANCH  18  32
ATOM     32  C   UNL     1      -5.731  13.328  18.942  0.00  0.00    +0.000 A 
ATOM     33  C   UNL     1      -6.452  14.522  19.023  0.00  0.00    +0.000 A 
ATOM     34  C   UNL     1      -7.355  14.871  18.017  0.00  0.00    +0.000 A 
ATOM     35  C   UNL     1      -7.545  14.028  16.923  0.00  0.00    +0.000 A 
ATOM     36  C   UNL     1      -6.829  12.836  16.833  0.00  0.00    +0.000 A 
ATOM     37  C   UNL     1      -5.918  12.492  17.837  0.00  0.00    +0.000 A 
ENDBRANCH  18  32
TORSDOF 2
ENDMDL
MODEL 9
REMARK VINA RESULT:      -6.8      7.161     10.278
REMARK  Name = 
REMARK  2 active torsions:
REMARK  status: ('A' for Active; 'I' for Inactive)
REMARK    1  A    between atoms: C_5  and  C_7
REMARK    2  A    between atoms: N_24  and  C_25
REMARK                            x       y       z     vdW  Elec       q    Type
REMARK                         _______ _______ _______ _____ _____    ______ ____
ROOT
ATOM      1  C   UNL     1       4.542  15.286  19.838  0.00  0.00    +0.000 C 
ATOM      2  C   UNL     1       4.688  16.331  20.925  0.00  0.00    +0.000 C 
ATOM      3  C   UNL     1       5.947  16.782  21.069  0.00  0.00    +0.000 C 
ATOM      4  C   UNL     1       6.777  16.148  22.138  0.00  0.00    +0.000 A 
ATOM      5  C   UNL     1       6.429  15.049  22.940  0.00  0.00    +0.000 A 
ATOM      6  C   UNL     1       7.416  14.301  23.590  0.00  0.00    +0.000 A 
ATOM      7  C   UNL     1       8.775  14.638  23.501  0.00  0.00    +0.000 A 
ATOM      8  C   UNL     1       9.102  15.770  22.751  0.00  0.00    +0.000 A 
ATOM      9  N   UNL     1      10.312  16.338  22.409  0.00  0.00    +0.000 N 
ATOM     10  C   UNL     1      10.125  17.372  21.516  0.00  0.00    +0.000 A 
ATOM     11  C   UNL     1       8.779  17.437  21.247  0.00  0.00    +0.000 A 
ATOM     12  C   UNL     1       8.132  16.507  22.092  0.00  0.00    +0.000 A 
ATOM     13  C   UNL     1       7.971  18.125  20.194  0.00  0.00    +0.000 C 
ATOM     14  C   UNL     1       6.737  17.224  19.813  0.00  0.00    +0.000 C 
ATOM     15  N   UNL     1       6.932  15.980  19.018  0.00  0.00    +0.000 N 
ATOM     16  C   UNL     1       8.186  15.576  18.545  0.00  0.00    +0.000 C 
ATOM     17  O   UNL     1       9.222  16.214  18.679  0.00  0.00    +0.000 OA
ATOM     18  N   UNL     1       8.168  14.361  17.885  0.00  0.00    +0.000 N 
ATOM     19  C   UNL     1       5.749  15.102  18.882  0.00  0.00    +0.000 C 
ATOM     20  H   UNL     1      11.213  15.976  22.687  0.00  0.00    +0.000 HD
ATOM     21  H   UNL     1       7.389  14.206  17.269  0.00  0.00    +0.000 HD
ENDROOT
BRANCH   1  26
ATOM     22  O   UNL     1       1.407  11.627  21.502  0.00  0.00    +0.000 OA
ATOM     23  C   UNL     1       1.363  12.492  20.625  0.00  0.00    +0.000 C 
ATOM     24  C   UNL     1       2.114  13.825  20.753  0.00  0.00    +0.000 C 
ATOM     25  N   UNL     1       2.155  14.641  19.525  0.00  0.00    +0.000 N 
ATOM     26  C   UNL     1       3.246  15.350  19.027  0.00  0.00    +0.000 C 
ATOM     27  O   UNL     1       3.189  15.972  17.966  0.00  0.00    +0.000 OA
ATOM     28  C   UNL     1       0.909  14.625  18.760  0.00  0.00    +0.000 C 
ATOM     29  C   UNL     1       0.607  13.184  18.368  0.00  0.00    +0.000 C 
ATOM     30  N   UNL     1       0.548  12.322  19.534  0.00  0.00    +0.000 N 
ATOM     31  H   UNL     1       0.106  11.408  19.466  0.00  0.00    +0.000 HD
ENDBRANCH   1  26
BRANCH  18  32
ATOM     32  C   UNL     1       9.232  13.441  17.804  0.00  0.00    +0.000 A 
ATOM     33  C   UNL     1      10.455  13.743  17.200  0.00  0.00    +0.000 A 
ATOM     34  C   UNL     1      11.501  12.818  17.223  0.00  0.00    +0.000 A 
ATOM     35  C   UNL     1      11.331  11.584  17.849  0.00  0.00    +0.000 A 
ATOM     36  C   UNL     1      10.116  11.276  18.456  0.00  0.00    +0.000 A 
ATOM     37  C   UNL     1       9.072  12.207  18.441  0.00  0.00    +0.000 A 
ENDBRANCH  18  32
TORSDOF 2
ENDMDL
