MODEL 1
REMARK VINA RESULT:      -7.7      0.000      0.000
REMARK  Name = 
REMARK  9 active torsions:
REMARK  status: ('A' for Active; 'I' for Inactive)
REMARK    1  A    between atoms: C_1  and  C_2
REMARK    2  A    between atoms: C_2  and  C_3
REMARK    3  A    between atoms: C_4  and  C_5
REMARK    4  A    between atoms: C_5  and  O_6
REMARK    5  A    between atoms: O_6  and  C_7
REMARK    6  A    between atoms: C_7  and  C_9
REMARK    7  A    between atoms: C_13  and  S_14
REMARK    8  A    between atoms: S_14  and  N_17
REMARK    9  A    between atoms: C_28  and  C_29
REMARK                            x       y       z     vdW  Elec       q    Type
REMARK                         _______ _______ _______ _____ _____    ______ ____
ROOT
ATOM      1  S   UNL     1       3.855   3.665  17.439  0.00  0.00    +0.000 S 
ATOM      2  O   UNL     1       4.063   2.325  17.943  0.00  0.00    +0.000 OA
ATOM      3  O   UNL     1       2.911   3.919  16.375  0.00  0.00    +0.000 OA
ENDROOT
BRANCH   1   4
ATOM      4  N   UNL     1       5.348   4.391  17.052  0.00  0.00    +0.000 N 
ATOM      5  C   UNL     1       5.880   4.370  15.683  0.00  0.00    +0.000 A 
ATOM      6  C   UNL     1       5.329   3.649  14.618  0.00  0.00    +0.000 A 
ATOM      7  C   UNL     1       5.833   3.794  13.320  0.00  0.00    +0.000 A 
ATOM      8 CL   UNL     1       5.095   2.943  12.018  0.00  0.00    +0.000 Cl
ATOM      9  C   UNL     1       6.913   4.631  13.058  0.00  0.00    +0.000 A 
ATOM     10  C   UNL     1       7.500   5.334  14.104  0.00  0.00    +0.000 A 
ATOM     11  C   UNL     1       6.985   5.206  15.399  0.00  0.00    +0.000 A 
ATOM     12  N   UNL     1       7.584   5.966  16.407  0.00  0.00    +0.000 N 
ATOM     13  C   UNL     1       7.255   5.856  17.732  0.00  0.00    +0.000 C 
ATOM     14  O   UNL     1       7.758   6.636  18.541  0.00  0.00    +0.000 OA
ATOM     15  C   UNL     1       6.394   4.644  18.112  0.00  0.00    +0.000 C 
ATOM     16  C   UNL     1       5.905   4.819  19.543  0.00  0.00    +0.000 C 
ATOM     17  H   UNL     1       8.262   6.684  16.180  0.00  0.00    +0.000 HD
ENDBRANCH   1   4
BRANCH   1  22
ATOM     18  C   UNL     1       2.868   5.857  18.826  0.00  0.00    +0.000 A 
ATOM     19  S   UNL     1       2.218   6.305  20.361  0.00  0.00    +0.000 S 
ATOM     20  C   UNL     1       2.260   4.706  20.944  0.00  0.00    +0.000 A 
ATOM     21  C   UNL     1       2.750   3.831  20.006  0.00  0.00    +0.000 A 
ATOM     22  C   UNL     1       3.139   4.494  18.799  0.00  0.00    +0.000 A 
BRANCH  18  23
ATOM     23  C   UNL     1       3.104   6.870  17.804  0.00  0.00    +0.000 C 
ATOM     24  O   UNL     1       4.152   7.032  17.196  0.00  0.00    +0.000 OA
BRANCH  23  25
ATOM     25  O   UNL     1       1.991   7.642  17.623  0.00  0.00    +0.000 OA
BRANCH  25  26
ATOM     26  C   UNL     1       2.129   9.044  17.875  0.00  0.00    +0.000 C 
BRANCH  26  30
ATOM     27  C   UNL     1      -1.290  10.606  18.966  0.00  0.00    +0.000 C 
ATOM     28  C   UNL     1       0.098  10.027  19.055  0.00  0.00    +0.000 C 
ATOM     29  C   UNL     1       0.674   9.868  20.436  0.00  0.00    +0.000 C 
ATOM     30  C   UNL     1       0.768   9.677  17.938  0.00  0.00    +0.000 C 
ENDBRANCH  26  30
ENDBRANCH  25  26
ENDBRANCH  23  25
ENDBRANCH  18  23
ENDBRANCH   1  22
TORSDOF 6
ENDMDL
MODEL 2
REMARK VINA RESULT:      -7.6      2.891      6.920
REMARK  Name = 
REMARK  9 active torsions:
REMARK  status: ('A' for Active; 'I' for Inactive)
REMARK    1  A    between atoms: C_1  and  C_2
REMARK    2  A    between atoms: C_2  and  C_3
REMARK    3  A    between atoms: C_4  and  C_5
REMARK    4  A    between atoms: C_5  and  O_6
REMARK    5  A    between atoms: O_6  and  C_7
REMARK    6  A    between atoms: C_7  and  C_9
REMARK    7  A    between atoms: C_13  and  S_14
REMARK    8  A    between atoms: S_14  and  N_17
REMARK    9  A    between atoms: C_28  and  C_29
REMARK                            x       y       z     vdW  Elec       q    Type
REMARK                         _______ _______ _______ _____ _____    ______ ____
ROOT
ATOM      1  S   UNL     1       4.409   4.306  17.798  0.00  0.00    +0.000 S 
ATOM      2  O   UNL     1       3.714   4.890  16.671  0.00  0.00    +0.000 OA
ATOM      3  O   UNL     1       4.947   2.967  17.724  0.00  0.00    +0.000 OA
ENDROOT
BRANCH   1   4
ATOM      4  N   UNL     1       3.474   4.460  19.215  0.00  0.00    +0.000 N 
ATOM      5  C   UNL     1       2.775   5.709  19.542  0.00  0.00    +0.000 A 
ATOM      6  C   UNL     1       2.913   6.913  18.845  0.00  0.00    +0.000 A 
ATOM      7  C   UNL     1       2.106   8.015  19.154  0.00  0.00    +0.000 A 
ATOM      8 CL   UNL     1       2.254   9.465  18.238  0.00  0.00    +0.000 Cl
ATOM      9  C   UNL     1       1.170   7.955  20.181  0.00  0.00    +0.000 A 
ATOM     10  C   UNL     1       1.035   6.779  20.912  0.00  0.00    +0.000 A 
ATOM     11  C   UNL     1       1.827   5.670  20.592  0.00  0.00    +0.000 A 
ATOM     12  N   UNL     1       1.622   4.501  21.328  0.00  0.00    +0.000 N 
ATOM     13  C   UNL     1       2.399   3.380  21.196  0.00  0.00    +0.000 C 
ATOM     14  O   UNL     1       2.087   2.359  21.808  0.00  0.00    +0.000 OA
ATOM     15  C   UNL     1       3.701   3.555  20.404  0.00  0.00    +0.000 C 
ATOM     16  C   UNL     1       4.296   2.181  20.128  0.00  0.00    +0.000 C 
ATOM     17  H   UNL     1       0.838   4.419  21.963  0.00  0.00    +0.000 HD
ENDBRANCH   1   4
BRANCH   1  22
ATOM     18  C   UNL     1       6.365   6.057  16.896  0.00  0.00    +0.000 A 
ATOM     19  S   UNL     1       7.815   6.841  17.406  0.00  0.00    +0.000 S 
ATOM     20  C   UNL     1       7.709   6.209  18.983  0.00  0.00    +0.000 A 
ATOM     21  C   UNL     1       6.597   5.418  19.143  0.00  0.00    +0.000 A 
ATOM     22  C   UNL     1       5.842   5.293  17.934  0.00  0.00    +0.000 A 
BRANCH  18  23
ATOM     23  C   UNL     1       5.890   6.207  15.526  0.00  0.00    +0.000 C 
ATOM     24  O   UNL     1       4.912   6.855  15.183  0.00  0.00    +0.000 OA
BRANCH  23  25
ATOM     25  O   UNL     1       6.679   5.503  14.661  0.00  0.00    +0.000 OA
BRANCH  25  26
ATOM     26  C   UNL     1       6.416   4.100  14.542  0.00  0.00    +0.000 C 
BRANCH  26  30
ATOM     27  C   UNL     1       4.262   3.263  11.384  0.00  0.00    +0.000 C 
ATOM     28  C   UNL     1       5.453   3.377  12.299  0.00  0.00    +0.000 C 
ATOM     29  C   UNL     1       6.772   2.904  11.751  0.00  0.00    +0.000 C 
ATOM     30  C   UNL     1       5.316   3.880  13.543  0.00  0.00    +0.000 C 
ENDBRANCH  26  30
ENDBRANCH  25  26
ENDBRANCH  23  25
ENDBRANCH  18  23
ENDBRANCH   1  22
TORSDOF 6
ENDMDL
MODEL 3
REMARK VINA RESULT:      -7.5      2.681      6.935
REMARK  Name = 
REMARK  9 active torsions:
REMARK  status: ('A' for Active; 'I' for Inactive)
REMARK    1  A    between atoms: C_1  and  C_2
REMARK    2  A    between atoms: C_2  and  C_3
REMARK    3  A    between atoms: C_4  and  C_5
REMARK    4  A    between atoms: C_5  and  O_6
REMARK    5  A    between atoms: O_6  and  C_7
REMARK    6  A    between atoms: C_7  and  C_9
REMARK    7  A    between atoms: C_13  and  S_14
REMARK    8  A    between atoms: S_14  and  N_17
REMARK    9  A    between atoms: C_28  and  C_29
REMARK                            x       y       z     vdW  Elec       q    Type
REMARK                         _______ _______ _______ _____ _____    ______ ____
ROOT
ATOM      1  S   UNL     1       4.309   6.002  17.178  0.00  0.00    +0.000 S 
ATOM      2  O   UNL     1       4.563   7.325  16.651  0.00  0.00    +0.000 OA
ATOM      3  O   UNL     1       3.965   4.907  16.299  0.00  0.00    +0.000 OA
ENDROOT
BRANCH   1   4
ATOM      4  N   UNL     1       3.178   6.077  18.451  0.00  0.00    +0.000 N 
ATOM      5  C   UNL     1       2.739   4.868  19.161  0.00  0.00    +0.000 A 
ATOM      6  C   UNL     1       3.061   3.558  18.791  0.00  0.00    +0.000 A 
ATOM      7  C   UNL     1       2.701   2.477  19.605  0.00  0.00    +0.000 A 
ATOM      8 CL   UNL     1       3.164   0.881  19.157  0.00  0.00    +0.000 Cl
ATOM      9  C   UNL     1       1.989   2.671  20.784  0.00  0.00    +0.000 A 
ATOM     10  C   UNL     1       1.629   3.961  21.158  0.00  0.00    +0.000 A 
ATOM     11  C   UNL     1       2.003   5.045  20.356  0.00  0.00    +0.000 A 
ATOM     12  N   UNL     1       1.653   6.323  20.799  0.00  0.00    +0.000 N 
ATOM     13  C   UNL     1       1.859   7.459  20.062  0.00  0.00    +0.000 C 
ATOM     14  O   UNL     1       1.616   8.555  20.568  0.00  0.00    +0.000 OA
ATOM     15  C   UNL     1       2.231   7.246  18.589  0.00  0.00    +0.000 C 
ATOM     16  C   UNL     1       2.679   8.576  17.999  0.00  0.00    +0.000 C 
ATOM     17  H   UNL     1       1.276   6.464  21.728  0.00  0.00    +0.000 HD
ENDBRANCH   1   4
BRANCH   1  22
ATOM     18  C   UNL     1       6.933   5.114  17.016  0.00  0.00    +0.000 A 
ATOM     19  S   UNL     1       8.271   4.663  18.009  0.00  0.00    +0.000 S 
ATOM     20  C   UNL     1       7.447   5.049  19.448  0.00  0.00    +0.000 A 
ATOM     21  C   UNL     1       6.180   5.519  19.203  0.00  0.00    +0.000 A 
ATOM     22  C   UNL     1       5.864   5.519  17.807  0.00  0.00    +0.000 A 
BRANCH  18  23
ATOM     23  C   UNL     1       7.018   4.987  15.566  0.00  0.00    +0.000 C 
ATOM     24  O   UNL     1       7.702   5.686  14.833  0.00  0.00    +0.000 OA
BRANCH  23  25
ATOM     25  O   UNL     1       6.206   3.983  15.121  0.00  0.00    +0.000 OA
BRANCH  25  26
ATOM     26  C   UNL     1       6.460   3.482  13.804  0.00  0.00    +0.000 C 
BRANCH  26  30
ATOM     27  C   UNL     1       3.709   3.428  11.021  0.00  0.00    +0.000 C 
ATOM     28  C   UNL     1       4.920   3.035  11.826  0.00  0.00    +0.000 C 
ATOM     29  C   UNL     1       5.709   1.855  11.325  0.00  0.00    +0.000 C 
ATOM     30  C   UNL     1       5.258   3.724  12.935  0.00  0.00    +0.000 C 
ENDBRANCH  26  30
ENDBRANCH  25  26
ENDBRANCH  23  25
ENDBRANCH  18  23
ENDBRANCH   1  22
TORSDOF 6
ENDMDL
MODEL 4
REMARK VINA RESULT:      -7.4      8.515     11.973
REMARK  Name = 
REMARK  9 active torsions:
REMARK  status: ('A' for Active; 'I' for Inactive)
REMARK    1  A    between atoms: C_1  and  C_2
REMARK    2  A    between atoms: C_2  and  C_3
REMARK    3  A    between atoms: C_4  and  C_5
REMARK    4  A    between atoms: C_5  and  O_6
REMARK    5  A    between atoms: O_6  and  C_7
REMARK    6  A    between atoms: C_7  and  C_9
REMARK    7  A    between atoms: C_13  and  S_14
REMARK    8  A    between atoms: S_14  and  N_17
REMARK    9  A    between atoms: C_28  and  C_29
REMARK                            x       y       z     vdW  Elec       q    Type
REMARK                         _______ _______ _______ _____ _____    ______ ____
ROOT
ATOM      1  S   UNL     1      -1.919  12.976  21.140  0.00  0.00    +0.000 S 
ATOM      2  O   UNL     1      -0.856  13.941  20.956  0.00  0.00    +0.000 OA
ATOM      3  O   UNL     1      -2.708  12.519  20.018  0.00  0.00    +0.000 OA
ENDROOT
BRANCH   1   4
ATOM      4  N   UNL     1      -2.961  13.473  22.394  0.00  0.00    +0.000 N 
ATOM      5  C   UNL     1      -4.405  13.208  22.343  0.00  0.00    +0.000 A 
ATOM      6  C   UNL     1      -5.087  12.683  21.240  0.00  0.00    +0.000 A 
ATOM      7  C   UNL     1      -6.443  12.346  21.333  0.00  0.00    +0.000 A 
ATOM      8 CL   UNL     1      -7.242  11.643  19.979  0.00  0.00    +0.000 Cl
ATOM      9  C   UNL     1      -7.156  12.553  22.509  0.00  0.00    +0.000 A 
ATOM     10  C   UNL     1      -6.510  13.104  23.610  0.00  0.00    +0.000 A 
ATOM     11  C   UNL     1      -5.150  13.424  23.526  0.00  0.00    +0.000 A 
ATOM     12  N   UNL     1      -4.538  13.935  24.673  0.00  0.00    +0.000 N 
ATOM     13  C   UNL     1      -3.247  14.391  24.701  0.00  0.00    +0.000 C 
ATOM     14  O   UNL     1      -2.753  14.730  25.776  0.00  0.00    +0.000 OA
ATOM     15  C   UNL     1      -2.576  14.590  23.335  0.00  0.00    +0.000 C 
ATOM     16  C   UNL     1      -1.089  14.836  23.550  0.00  0.00    +0.000 C 
ATOM     17  H   UNL     1      -5.023  13.935  25.562  0.00  0.00    +0.000 HD
ENDBRANCH   1   4
BRANCH   1  22
ATOM     18  C   UNL     1      -0.228  10.803  20.792  0.00  0.00    +0.000 A 
ATOM     19  S   UNL     1       0.380   9.417  21.622  0.00  0.00    +0.000 S 
ATOM     20  C   UNL     1      -0.425   9.820  23.067  0.00  0.00    +0.000 A 
ATOM     21  C   UNL     1      -1.143  10.985  22.947  0.00  0.00    +0.000 A 
ATOM     22  C   UNL     1      -1.066  11.533  21.628  0.00  0.00    +0.000 A 
BRANCH  18  23
ATOM     23  C   UNL     1       0.119  11.035  19.395  0.00  0.00    +0.000 C 
ATOM     24  O   UNL     1       0.750  11.992  18.971  0.00  0.00    +0.000 OA
BRANCH  23  25
ATOM     25  O   UNL     1      -0.377  10.038  18.603  0.00  0.00    +0.000 OA
BRANCH  25  26
ATOM     26  C   UNL     1      -1.779  10.079  18.315  0.00  0.00    +0.000 C 
BRANCH  26  30
ATOM     27  C   UNL     1      -3.139  10.115  14.645  0.00  0.00    +0.000 C 
ATOM     28  C   UNL     1      -3.032  10.397  16.121  0.00  0.00    +0.000 C 
ATOM     29  C   UNL     1      -4.133  11.222  16.731  0.00  0.00    +0.000 C 
ATOM     30  C   UNL     1      -1.991   9.923  16.836  0.00  0.00    +0.000 C 
ENDBRANCH  26  30
ENDBRANCH  25  26
ENDBRANCH  23  25
ENDBRANCH  18  23
ENDBRANCH   1  22
TORSDOF 6
ENDMDL
MODEL 5
REMARK VINA RESULT:      -7.2      1.434      1.777
REMARK  Name = 
REMARK  9 active torsions:
REMARK  status: ('A' for Active; 'I' for Inactive)
REMARK    1  A    between atoms: C_1  and  C_2
REMARK    2  A    between atoms: C_2  and  C_3
REMARK    3  A    between atoms: C_4  and  C_5
REMARK    4  A    between atoms: C_5  and  O_6
REMARK    5  A    between atoms: O_6  and  C_7
REMARK    6  A    between atoms: C_7  and  C_9
REMARK    7  A    between atoms: C_13  and  S_14
REMARK    8  A    between atoms: S_14  and  N_17
REMARK    9  A    between atoms: C_28  and  C_29
REMARK                            x       y       z     vdW  Elec       q    Type
REMARK                         _______ _______ _______ _____ _____    ______ ____
ROOT
ATOM      1  S   UNL     1       3.260   2.836  17.555  0.00  0.00    +0.000 S 
ATOM      2  O   UNL     1       3.469   1.415  17.728  0.00  0.00    +0.000 OA
ATOM      3  O   UNL     1       2.459   3.341  16.463  0.00  0.00    +0.000 OA
ENDROOT
BRANCH   1   4
ATOM      4  N   UNL     1       4.750   3.664  17.589  0.00  0.00    +0.000 N 
ATOM      5  C   UNL     1       5.479   3.982  16.354  0.00  0.00    +0.000 A 
ATOM      6  C   UNL     1       5.133   3.529  15.077  0.00  0.00    +0.000 A 
ATOM      7  C   UNL     1       5.815   3.991  13.945  0.00  0.00    +0.000 A 
ATOM      8 CL   UNL     1       5.329   3.463  12.381  0.00  0.00    +0.000 Cl
ATOM      9  C   UNL     1       6.873   4.888  14.060  0.00  0.00    +0.000 A 
ATOM     10  C   UNL     1       7.258   5.330  15.321  0.00  0.00    +0.000 A 
ATOM     11  C   UNL     1       6.565   4.884  16.453  0.00  0.00    +0.000 A 
ATOM     12  N   UNL     1       6.964   5.391  17.692  0.00  0.00    +0.000 N 
ATOM     13  C   UNL     1       6.449   4.960  18.885  0.00  0.00    +0.000 C 
ATOM     14  O   UNL     1       6.780   5.531  19.924  0.00  0.00    +0.000 OA
ATOM     15  C   UNL     1       5.611   3.675  18.830  0.00  0.00    +0.000 C 
ATOM     16  C   UNL     1       4.906   3.491  20.166  0.00  0.00    +0.000 C 
ATOM     17  H   UNL     1       7.625   6.156  17.749  0.00  0.00    +0.000 HD
ENDBRANCH   1   4
BRANCH   1  22
ATOM     18  C   UNL     1       2.056   4.582  19.346  0.00  0.00    +0.000 A 
ATOM     19  S   UNL     1       1.146   4.599  20.813  0.00  0.00    +0.000 S 
ATOM     20  C   UNL     1       1.073   2.900  20.891  0.00  0.00    +0.000 A 
ATOM     21  C   UNL     1       1.716   2.310  19.830  0.00  0.00    +0.000 A 
ATOM     22  C   UNL     1       2.319   3.272  18.960  0.00  0.00    +0.000 A 
BRANCH  18  23
ATOM     23  C   UNL     1       2.477   5.833  18.727  0.00  0.00    +0.000 C 
ATOM     24  O   UNL     1       2.595   6.025  17.526  0.00  0.00    +0.000 OA
BRANCH  23  25
ATOM     25  O   UNL     1       2.747   6.776  19.679  0.00  0.00    +0.000 OA
BRANCH  25  26
ATOM     26  C   UNL     1       1.988   7.989  19.621  0.00  0.00    +0.000 C 
BRANCH  26  30
ATOM     27  C   UNL     1      -0.141   9.315  22.625  0.00  0.00    +0.000 C 
ATOM     28  C   UNL     1       0.361   9.122  21.218  0.00  0.00    +0.000 C 
ATOM     29  C   UNL     1      -0.301   9.947  20.147  0.00  0.00    +0.000 C 
ATOM     30  C   UNL     1       1.354   8.247  20.958  0.00  0.00    +0.000 C 
ENDBRANCH  26  30
ENDBRANCH  25  26
ENDBRANCH  23  25
ENDBRANCH  18  23
ENDBRANCH   1  22
TORSDOF 6
ENDMDL
MODEL 6
REMARK VINA RESULT:      -7.1      1.102      1.260
REMARK  Name = 
REMARK  9 active torsions:
REMARK  status: ('A' for Active; 'I' for Inactive)
REMARK    1  A    between atoms: C_1  and  C_2
REMARK    2  A    between atoms: C_2  and  C_3
REMARK    3  A    between atoms: C_4  and  C_5
REMARK    4  A    between atoms: C_5  and  O_6
REMARK    5  A    between atoms: O_6  and  C_7
REMARK    6  A    between atoms: C_7  and  C_9
REMARK    7  A    between atoms: C_13  and  S_14
REMARK    8  A    between atoms: S_14  and  N_17
REMARK    9  A    between atoms: C_28  and  C_29
REMARK                            x       y       z     vdW  Elec       q    Type
REMARK                         _______ _______ _______ _____ _____    ______ ____
ROOT
ATOM      1  S   UNL     1       3.211   3.222  17.522  0.00  0.00    +0.000 S 
ATOM      2  O   UNL     1       3.222   1.805  17.814  0.00  0.00    +0.000 OA
ATOM      3  O   UNL     1       2.494   3.738  16.378  0.00  0.00    +0.000 OA
ENDROOT
BRANCH   1   4
ATOM      4  N   UNL     1       4.800   3.839  17.515  0.00  0.00    +0.000 N 
ATOM      5  C   UNL     1       5.538   4.044  16.261  0.00  0.00    +0.000 A 
ATOM      6  C   UNL     1       5.107   3.629  14.998  0.00  0.00    +0.000 A 
ATOM      7  C   UNL     1       5.820   3.983  13.846  0.00  0.00    +0.000 A 
ATOM      8 CL   UNL     1       5.232   3.511  12.298  0.00  0.00    +0.000 Cl
ATOM      9  C   UNL     1       6.992   4.728  13.928  0.00  0.00    +0.000 A 
ATOM     10  C   UNL     1       7.461   5.126  15.176  0.00  0.00    +0.000 A 
ATOM     11  C   UNL     1       6.739   4.789  16.326  0.00  0.00    +0.000 A 
ATOM     12  N   UNL     1       7.230   5.250  17.550  0.00  0.00    +0.000 N 
ATOM     13  C   UNL     1       6.688   4.904  18.759  0.00  0.00    +0.000 C 
ATOM     14  O   UNL     1       7.117   5.435  19.784  0.00  0.00    +0.000 OA
ATOM     15  C   UNL     1       5.682   3.745  18.737  0.00  0.00    +0.000 C 
ATOM     16  C   UNL     1       4.988   3.671  20.090  0.00  0.00    +0.000 C 
ATOM     17  H   UNL     1       7.991   5.917  17.585  0.00  0.00    +0.000 HD
ENDBRANCH   1   4
BRANCH   1  22
ATOM     18  C   UNL     1       2.242   5.260  19.139  0.00  0.00    +0.000 A 
ATOM     19  S   UNL     1       1.335   5.523  20.583  0.00  0.00    +0.000 S 
ATOM     20  C   UNL     1       1.034   3.862  20.803  0.00  0.00    +0.000 A 
ATOM     21  C   UNL     1       1.599   3.103  19.807  0.00  0.00    +0.000 A 
ATOM     22  C   UNL     1       2.329   3.898  18.869  0.00  0.00    +0.000 A 
BRANCH  18  23
ATOM     23  C   UNL     1       2.830   6.386  18.424  0.00  0.00    +0.000 C 
ATOM     24  O   UNL     1       4.015   6.683  18.421  0.00  0.00    +0.000 OA
BRANCH  23  25
ATOM     25  O   UNL     1       1.866   7.093  17.760  0.00  0.00    +0.000 OA
BRANCH  25  26
ATOM     26  C   UNL     1       1.939   8.520  17.843  0.00  0.00    +0.000 C 
BRANCH  26  30
ATOM     27  C   UNL     1       0.516  10.569  20.859  0.00  0.00    +0.000 C 
ATOM     28  C   UNL     1       1.112  10.258  19.511  0.00  0.00    +0.000 C 
ATOM     29  C   UNL     1       1.462  11.434  18.640  0.00  0.00    +0.000 C 
ATOM     30  C   UNL     1       1.311   8.979  19.128  0.00  0.00    +0.000 C 
ENDBRANCH  26  30
ENDBRANCH  25  26
ENDBRANCH  23  25
ENDBRANCH  18  23
ENDBRANCH   1  22
TORSDOF 6
ENDMDL
MODEL 7
REMARK VINA RESULT:      -7.0      6.231     11.054
REMARK  Name = 
REMARK  9 active torsions:
REMARK  status: ('A' for Active; 'I' for Inactive)
REMARK    1  A    between atoms: C_1  and  C_2
REMARK    2  A    between atoms: C_2  and  C_3
REMARK    3  A    between atoms: C_4  and  C_5
REMARK    4  A    between atoms: C_5  and  O_6
REMARK    5  A    between atoms: O_6  and  C_7
REMARK    6  A    between atoms: C_7  and  C_9
REMARK    7  A    between atoms: C_13  and  S_14
REMARK    8  A    between atoms: S_14  and  N_17
REMARK    9  A    between atoms: C_28  and  C_29
REMARK                            x       y       z     vdW  Elec       q    Type
REMARK                         _______ _______ _______ _____ _____    ______ ____
ROOT
ATOM      1  S   UNL     1      -1.273  12.430  20.561  0.00  0.00    +0.000 S 
ATOM      2  O   UNL     1      -0.321  13.502  20.755  0.00  0.00    +0.000 OA
ATOM      3  O   UNL     1      -1.617  11.975  19.233  0.00  0.00    +0.000 OA
ENDROOT
BRANCH   1   4
ATOM      4  N   UNL     1      -2.702  12.740  21.437  0.00  0.00    +0.000 N 
ATOM      5  C   UNL     1      -4.027  12.585  20.823  0.00  0.00    +0.000 A 
ATOM      6  C   UNL     1      -4.260  12.331  19.468  0.00  0.00    +0.000 A 
ATOM      7  C   UNL     1      -5.555  12.072  19.001  0.00  0.00    +0.000 A 
ATOM      8 CL   UNL     1      -5.804  11.701  17.338  0.00  0.00    +0.000 Cl
ATOM      9  C   UNL     1      -6.646  12.092  19.862  0.00  0.00    +0.000 A 
ATOM     10  C   UNL     1      -6.447  12.373  21.209  0.00  0.00    +0.000 A 
ATOM     11  C   UNL     1      -5.151  12.614  21.682  0.00  0.00    +0.000 A 
ATOM     12  N   UNL     1      -5.000  12.850  23.050  0.00  0.00    +0.000 N 
ATOM     13  C   UNL     1      -3.811  13.206  23.628  0.00  0.00    +0.000 C 
ATOM     14  O   UNL     1      -3.742  13.294  24.854  0.00  0.00    +0.000 OA
ATOM     15  C   UNL     1      -2.694  13.623  22.662  0.00  0.00    +0.000 C 
ATOM     16  C   UNL     1      -1.387  13.724  23.437  0.00  0.00    +0.000 C 
ATOM     17  H   UNL     1      -5.774  12.708  23.689  0.00  0.00    +0.000 HD
ENDBRANCH   1   4
BRANCH   1  22
ATOM     18  C   UNL     1       0.559  10.345  20.607  0.00  0.00    +0.000 A 
ATOM     19  S   UNL     1       1.066   9.013  21.579  0.00  0.00    +0.000 S 
ATOM     20  C   UNL     1      -0.016   9.403  22.835  0.00  0.00    +0.000 A 
ATOM     21  C   UNL     1      -0.755  10.524  22.544  0.00  0.00    +0.000 A 
ATOM     22  C   UNL     1      -0.457  11.047  21.246  0.00  0.00    +0.000 A 
BRANCH  18  23
ATOM     23  C   UNL     1       1.152  10.565  19.293  0.00  0.00    +0.000 C 
ATOM     24  O   UNL     1       1.715  11.587  18.931  0.00  0.00    +0.000 OA
BRANCH  23  25
ATOM     25  O   UNL     1       0.977   9.468  18.495  0.00  0.00    +0.000 OA
BRANCH  25  26
ATOM     26  C   UNL     1       2.156   8.896  17.917  0.00  0.00    +0.000 C 
BRANCH  26  30
ATOM     27  C   UNL     1       3.154   5.138  18.358  0.00  0.00    +0.000 C 
ATOM     28  C   UNL     1       3.229   6.588  17.956  0.00  0.00    +0.000 C 
ATOM     29  C   UNL     1       4.447   7.010  17.179  0.00  0.00    +0.000 C 
ATOM     30  C   UNL     1       2.241   7.444  18.290  0.00  0.00    +0.000 C 
ENDBRANCH  26  30
ENDBRANCH  25  26
ENDBRANCH  23  25
ENDBRANCH  18  23
ENDBRANCH   1  22
TORSDOF 6
ENDMDL
MODEL 8
REMARK VINA RESULT:      -7.0      3.060      7.290
REMARK  Name = 
REMARK  9 active torsions:
REMARK  status: ('A' for Active; 'I' for Inactive)
REMARK    1  A    between atoms: C_1  and  C_2
REMARK    2  A    between atoms: C_2  and  C_3
REMARK    3  A    between atoms: C_4  and  C_5
REMARK    4  A    between atoms: C_5  and  O_6
REMARK    5  A    between atoms: O_6  and  C_7
REMARK    6  A    between atoms: C_7  and  C_9
REMARK    7  A    between atoms: C_13  and  S_14
REMARK    8  A    between atoms: S_14  and  N_17
REMARK    9  A    between atoms: C_28  and  C_29
REMARK                            x       y       z     vdW  Elec       q    Type
REMARK                         _______ _______ _______ _____ _____    ______ ____
ROOT
ATOM      1  S   UNL     1       3.850   5.612  17.488  0.00  0.00    +0.000 S 
ATOM      2  O   UNL     1       3.804   6.869  16.772  0.00  0.00    +0.000 OA
ATOM      3  O   UNL     1       3.450   4.379  16.848  0.00  0.00    +0.000 OA
ENDROOT
BRANCH   1   4
ATOM      4  N   UNL     1       3.051   5.753  18.987  0.00  0.00    +0.000 N 
ATOM      5  C   UNL     1       2.401   7.005  19.396  0.00  0.00    +0.000 A 
ATOM      6  C   UNL     1       2.491   8.219  18.707  0.00  0.00    +0.000 A 
ATOM      7  C   UNL     1       1.731   9.325  19.106  0.00  0.00    +0.000 A 
ATOM      8 CL   UNL     1       1.815  10.789  18.203  0.00  0.00    +0.000 Cl
ATOM      9  C   UNL     1       0.891   9.258  20.213  0.00  0.00    +0.000 A 
ATOM     10  C   UNL     1       0.807   8.072  20.934  0.00  0.00    +0.000 A 
ATOM     11  C   UNL     1       1.552   6.959  20.526  0.00  0.00    +0.000 A 
ATOM     12  N   UNL     1       1.399   5.780  21.260  0.00  0.00    +0.000 N 
ATOM     13  C   UNL     1       2.145   4.653  21.040  0.00  0.00    +0.000 C 
ATOM     14  O   UNL     1       1.876   3.625  21.662  0.00  0.00    +0.000 OA
ATOM     15  C   UNL     1       3.372   4.825  20.135  0.00  0.00    +0.000 C 
ATOM     16  C   UNL     1       3.921   3.449  19.785  0.00  0.00    +0.000 C 
ATOM     17  H   UNL     1       0.674   5.698  21.962  0.00  0.00    +0.000 HD
ENDBRANCH   1   4
BRANCH   1  22
ATOM     18  C   UNL     1       6.380   4.617  16.928  0.00  0.00    +0.000 A 
ATOM     19  S   UNL     1       7.985   4.570  17.561  0.00  0.00    +0.000 S 
ATOM     20  C   UNL     1       7.589   5.572  18.880  0.00  0.00    +0.000 A 
ATOM     21  C   UNL     1       6.268   5.951  18.856  0.00  0.00    +0.000 A 
ATOM     22  C   UNL     1       5.558   5.371  17.758  0.00  0.00    +0.000 A 
BRANCH  18  23
ATOM     23  C   UNL     1       6.047   3.880  15.715  0.00  0.00    +0.000 C 
ATOM     24  O   UNL     1       5.679   2.715  15.672  0.00  0.00    +0.000 OA
BRANCH  23  25
ATOM     25  O   UNL     1       6.220   4.665  14.610  0.00  0.00    +0.000 OA
BRANCH  25  26
ATOM     26  C   UNL     1       6.482   3.993  13.373  0.00  0.00    +0.000 C 
BRANCH  26  30
ATOM     27  C   UNL     1       3.615   3.118  10.857  0.00  0.00    +0.000 C 
ATOM     28  C   UNL     1       4.890   3.002  11.650  0.00  0.00    +0.000 C 
ATOM     29  C   UNL     1       5.744   1.793  11.381  0.00  0.00    +0.000 C 
ATOM     30  C   UNL     1       5.225   3.949  12.551  0.00  0.00    +0.000 C 
ENDBRANCH  26  30
ENDBRANCH  25  26
ENDBRANCH  23  25
ENDBRANCH  18  23
ENDBRANCH   1  22
TORSDOF 6
ENDMDL
MODEL 9
REMARK VINA RESULT:      -6.9      6.894     11.708
REMARK  Name = 
REMARK  9 active torsions:
REMARK  status: ('A' for Active; 'I' for Inactive)
REMARK    1  A    between atoms: C_1  and  C_2
REMARK    2  A    between atoms: C_2  and  C_3
REMARK    3  A    between atoms: C_4  and  C_5
REMARK    4  A    between atoms: C_5  and  O_6
REMARK    5  A    between atoms: O_6  and  C_7
REMARK    6  A    between atoms: C_7  and  C_9
REMARK    7  A    between atoms: C_13  and  S_14
REMARK    8  A    between atoms: S_14  and  N_17
REMARK    9  A    between atoms: C_28  and  C_29
REMARK                            x       y       z     vdW  Elec       q    Type
REMARK                         _______ _______ _______ _____ _____    ______ ____
ROOT
ATOM      1  S   UNL     1      -1.762  12.664  21.050  0.00  0.00    +0.000 S 
ATOM      2  O   UNL     1      -0.749  13.677  20.847  0.00  0.00    +0.000 OA
ATOM      3  O   UNL     1      -2.426  12.044  19.925  0.00  0.00    +0.000 OA
ENDROOT
BRANCH   1   4
ATOM      4  N   UNL     1      -2.933  13.209  22.163  0.00  0.00    +0.000 N 
ATOM      5  C   UNL     1      -4.367  12.982  21.941  0.00  0.00    +0.000 A 
ATOM      6  C   UNL     1      -4.926  12.457  20.772  0.00  0.00    +0.000 A 
ATOM      7  C   UNL     1      -6.292  12.158  20.704  0.00  0.00    +0.000 A 
ATOM      8 CL   UNL     1      -6.943  11.455  19.274  0.00  0.00    +0.000 Cl
ATOM      9  C   UNL     1      -7.136  12.403  21.783  0.00  0.00    +0.000 A 
ATOM     10  C   UNL     1      -6.611  12.955  22.947  0.00  0.00    +0.000 A 
ATOM     11  C   UNL     1      -5.242  13.237  23.023  0.00  0.00    +0.000 A 
ATOM     12  N   UNL     1      -4.758  13.750  24.229  0.00  0.00    +0.000 N 
ATOM     13  C   UNL     1      -3.467  14.171  24.406  0.00  0.00    +0.000 C 
ATOM     14  O   UNL     1      -3.096  14.514  25.529  0.00  0.00    +0.000 OA
ATOM     15  C   UNL     1      -2.631  14.330  23.129  0.00  0.00    +0.000 C 
ATOM     16  C   UNL     1      -1.175  14.539  23.518  0.00  0.00    +0.000 C 
ATOM     17  H   UNL     1      -5.346  13.777  25.053  0.00  0.00    +0.000 HD
ENDBRANCH   1   4
BRANCH   1  22
ATOM     18  C   UNL     1       0.199  10.702  21.121  0.00  0.00    +0.000 A 
ATOM     19  S   UNL     1       0.783   9.409  22.105  0.00  0.00    +0.000 S 
ATOM     20  C   UNL     1      -0.332   9.736  23.350  0.00  0.00    +0.000 A 
ATOM     21  C   UNL     1      -1.139  10.805  23.047  0.00  0.00    +0.000 A 
ATOM     22  C   UNL     1      -0.865  11.339  21.749  0.00  0.00    +0.000 A 
BRANCH  18  23
ATOM     23  C   UNL     1       0.788  10.952  19.811  0.00  0.00    +0.000 C 
ATOM     24  O   UNL     1       1.400  11.959  19.490  0.00  0.00    +0.000 OA
BRANCH  23  25
ATOM     25  O   UNL     1       0.545   9.906  18.965  0.00  0.00    +0.000 OA
BRANCH  25  26
ATOM     26  C   UNL     1       1.682   9.315  18.325  0.00  0.00    +0.000 C 
BRANCH  26  30
ATOM     27  C   UNL     1       2.987   5.727  19.184  0.00  0.00    +0.000 C 
ATOM     28  C   UNL     1       2.864   7.068  18.508  0.00  0.00    +0.000 C 
ATOM     29  C   UNL     1       3.800   7.332  17.360  0.00  0.00    +0.000 C 
ATOM     30  C   UNL     1       1.953   7.967  18.931  0.00  0.00    +0.000 C 
ENDBRANCH  26  30
ENDBRANCH  25  26
ENDBRANCH  23  25
ENDBRANCH  18  23
ENDBRANCH   1  22
TORSDOF 6
ENDMDL
