MODEL 1
REMARK VINA RESULT:      -7.8      0.000      0.000
REMARK  Name = 
REMARK  4 active torsions:
REMARK  status: ('A' for Active; 'I' for Inactive)
REMARK    1  A    between atoms: C_2  and  O_3
REMARK    2  A    between atoms: C_2  and  C_4
REMARK    3  A    between atoms: C_11  and  N_12
REMARK    4  A    between atoms: N_12  and  C_13
REMARK                            x       y       z     vdW  Elec       q    Type
REMARK                         _______ _______ _______ _____ _____    ______ ____
ROOT
ATOM      1  C   UNL     1       5.727   5.374  15.841  0.00  0.00    +0.000 A 
ATOM      2  C   UNL     1       5.267   6.621  15.433  0.00  0.00    +0.000 A 
ATOM      3  C   UNL     1       4.366   7.326  16.238  0.00  0.00    +0.000 A 
ATOM      4  C   UNL     1       3.891   6.805  17.472  0.00  0.00    +0.000 A 
ATOM      5  C   UNL     1       4.381   5.537  17.862  0.00  0.00    +0.000 A 
ATOM      6  C   UNL     1       5.308   4.848  17.064  0.00  0.00    +0.000 A 
ATOM      7  C   UNL     1       3.934   4.948  19.048  0.00  0.00    +0.000 A 
ATOM      8  C   UNL     1       3.011   5.579  19.886  0.00  0.00    +0.000 A 
ATOM      9  C   UNL     1       2.521   6.862  19.536  0.00  0.00    +0.000 A 
ATOM     10  C   UNL     1       1.574   7.541  20.334  0.00  0.00    +0.000 A 
ATOM     11  C   UNL     1       1.106   8.784  19.950  0.00  0.00    +0.000 A 
ATOM     12  N   UNL     1       1.503   9.407  18.832  0.00  0.00    +0.000 NA
ATOM     13  C   UNL     1       2.403   8.745  18.063  0.00  0.00    +0.000 A 
ATOM     14  C   UNL     1       2.956   7.478  18.334  0.00  0.00    +0.000 A 
ENDROOT
BRANCH   1  16
ATOM     15  O   UNL     1       7.638   5.180  14.443  0.00  0.00    +0.000 OA
ATOM     16  C   UNL     1       6.680   4.645  14.971  0.00  0.00    +0.000 C 
BRANCH  16  17
ATOM     17  O   UNL     1       6.353   3.349  14.779  0.00  0.00    +0.000 OA
ATOM     18  H   UNL     1       6.077   3.123  13.872  0.00  0.00    +0.000 HD
ENDBRANCH  16  17
ENDBRANCH   1  16
BRANCH   8  19
ATOM     19  N   UNL     1       2.541   4.923  21.050  0.00  0.00    +0.000 N 
ATOM     20  H   UNL     1       3.239   4.861  21.785  0.00  0.00    +0.000 HD
BRANCH  19  21
ATOM     21  C   UNL     1       1.417   3.994  21.031  0.00  0.00    +0.000 C 
ATOM     22  C   UNL     1       1.303   2.833  20.087  0.00  0.00    +0.000 C 
ATOM     23  C   UNL     1       1.620   2.590  21.533  0.00  0.00    +0.000 C 
ENDBRANCH  19  21
ENDBRANCH   8  19
TORSDOF 4
ENDMDL
MODEL 2
REMARK VINA RESULT:      -7.8      1.299      3.971
REMARK  Name = 
REMARK  4 active torsions:
REMARK  status: ('A' for Active; 'I' for Inactive)
REMARK    1  A    between atoms: C_2  and  O_3
REMARK    2  A    between atoms: C_2  and  C_4
REMARK    3  A    between atoms: C_11  and  N_12
REMARK    4  A    between atoms: N_12  and  C_13
REMARK                            x       y       z     vdW  Elec       q    Type
REMARK                         _______ _______ _______ _____ _____    ______ ____
ROOT
ATOM      1  C   UNL     1       5.957   4.795  15.346  0.00  0.00    +0.000 A 
ATOM      2  C   UNL     1       5.731   3.564  15.952  0.00  0.00    +0.000 A 
ATOM      3  C   UNL     1       4.834   3.471  17.021  0.00  0.00    +0.000 A 
ATOM      4  C   UNL     1       4.139   4.604  17.523  0.00  0.00    +0.000 A 
ATOM      5  C   UNL     1       4.386   5.841  16.883  0.00  0.00    +0.000 A 
ATOM      6  C   UNL     1       5.265   5.922  15.792  0.00  0.00    +0.000 A 
ATOM      7  C   UNL     1       3.763   7.004  17.342  0.00  0.00    +0.000 A 
ATOM      8  C   UNL     1       2.879   6.992  18.425  0.00  0.00    +0.000 A 
ATOM      9  C   UNL     1       2.590   5.764  19.072  0.00  0.00    +0.000 A 
ATOM     10  C   UNL     1       1.720   5.693  20.180  0.00  0.00    +0.000 A 
ATOM     11  C   UNL     1       1.477   4.478  20.796  0.00  0.00    +0.000 A 
ATOM     12  N   UNL     1       2.034   3.327  20.396  0.00  0.00    +0.000 NA
ATOM     13  C   UNL     1       2.879   3.403  19.339  0.00  0.00    +0.000 A 
ATOM     14  C   UNL     1       3.216   4.570  18.626  0.00  0.00    +0.000 A 
ENDROOT
BRANCH   1  16
ATOM     15  O   UNL     1       7.879   5.610  14.213  0.00  0.00    +0.000 OA
ATOM     16  C   UNL     1       6.913   4.870  14.216  0.00  0.00    +0.000 C 
BRANCH  16  17
ATOM     17  O   UNL     1       6.579   4.079  13.174  0.00  0.00    +0.000 OA
ATOM     18  H   UNL     1       6.823   4.426  12.297  0.00  0.00    +0.000 HD
ENDBRANCH  16  17
ENDBRANCH   1  16
BRANCH   8  19
ATOM     19  N   UNL     1       2.313   8.202  18.895  0.00  0.00    +0.000 N 
ATOM     20  H   UNL     1       1.985   8.145  19.855  0.00  0.00    +0.000 HD
BRANCH  19  21
ATOM     21  C   UNL     1       1.776   9.222  18.001  0.00  0.00    +0.000 C 
ATOM     22  C   UNL     1       0.369   9.737  18.063  0.00  0.00    +0.000 C 
ATOM     23  C   UNL     1       1.499  10.597  18.543  0.00  0.00    +0.000 C 
ENDBRANCH  19  21
ENDBRANCH   8  19
TORSDOF 4
ENDMDL
MODEL 3
REMARK VINA RESULT:      -7.8      1.653      3.830
REMARK  Name = 
REMARK  4 active torsions:
REMARK  status: ('A' for Active; 'I' for Inactive)
REMARK    1  A    between atoms: C_2  and  O_3
REMARK    2  A    between atoms: C_2  and  C_4
REMARK    3  A    between atoms: C_11  and  N_12
REMARK    4  A    between atoms: N_12  and  C_13
REMARK                            x       y       z     vdW  Elec       q    Type
REMARK                         _______ _______ _______ _____ _____    ______ ____
ROOT
ATOM      1  C   UNL     1       5.958   5.424  16.503  0.00  0.00    +0.000 A 
ATOM      2  C   UNL     1       5.492   4.164  16.144  0.00  0.00    +0.000 A 
ATOM      3  C   UNL     1       4.369   3.630  16.786  0.00  0.00    +0.000 A 
ATOM      4  C   UNL     1       3.680   4.334  17.810  0.00  0.00    +0.000 A 
ATOM      5  C   UNL     1       4.175   5.615  18.150  0.00  0.00    +0.000 A 
ATOM      6  C   UNL     1       5.284   6.157  17.481  0.00  0.00    +0.000 A 
ATOM      7  C   UNL     1       3.568   6.352  19.169  0.00  0.00    +0.000 A 
ATOM      8  C   UNL     1       2.463   5.869  19.875  0.00  0.00    +0.000 A 
ATOM      9  C   UNL     1       1.927   4.599  19.541  0.00  0.00    +0.000 A 
ATOM     10  C   UNL     1       0.823   4.052  20.230  0.00  0.00    +0.000 A 
ATOM     11  C   UNL     1       0.341   2.802  19.887  0.00  0.00    +0.000 A 
ATOM     12  N   UNL     1       0.871   2.051  18.912  0.00  0.00    +0.000 NA
ATOM     13  C   UNL     1       1.938   2.577  18.262  0.00  0.00    +0.000 A 
ATOM     14  C   UNL     1       2.530   3.830  18.513  0.00  0.00    +0.000 A 
ENDROOT
BRANCH   1  16
ATOM     15  O   UNL     1       7.566   5.521  14.759  0.00  0.00    +0.000 OA
ATOM     16  C   UNL     1       7.149   5.968  15.811  0.00  0.00    +0.000 C 
BRANCH  16  17
ATOM     17  O   UNL     1       7.755   6.969  16.485  0.00  0.00    +0.000 OA
ATOM     18  H   UNL     1       7.244   7.797  16.544  0.00  0.00    +0.000 HD
ENDBRANCH  16  17
ENDBRANCH   1  16
BRANCH   8  19
ATOM     19  N   UNL     1       1.913   6.623  20.940  0.00  0.00    +0.000 N 
ATOM     20  H   UNL     1       1.544   6.047  21.691  0.00  0.00    +0.000 HD
BRANCH  19  21
ATOM     21  C   UNL     1       1.444   7.994  20.776  0.00  0.00    +0.000 C 
ATOM     22  C   UNL     1       0.129   8.500  21.289  0.00  0.00    +0.000 C 
ATOM     23  C   UNL     1       1.401   8.901  21.975  0.00  0.00    +0.000 C 
ENDBRANCH  19  21
ENDBRANCH   8  19
TORSDOF 4
ENDMDL
MODEL 4
REMARK VINA RESULT:      -7.6      3.276      6.058
REMARK  Name = 
REMARK  4 active torsions:
REMARK  status: ('A' for Active; 'I' for Inactive)
REMARK    1  A    between atoms: C_2  and  O_3
REMARK    2  A    between atoms: C_2  and  C_4
REMARK    3  A    between atoms: C_11  and  N_12
REMARK    4  A    between atoms: N_12  and  C_13
REMARK                            x       y       z     vdW  Elec       q    Type
REMARK                         _______ _______ _______ _____ _____    ______ ____
ROOT
ATOM      1  C   UNL     1       1.810   9.070  18.738  0.00  0.00    +0.000 A 
ATOM      2  C   UNL     1       1.330   8.528  19.925  0.00  0.00    +0.000 A 
ATOM      3  C   UNL     1       1.678   7.221  20.282  0.00  0.00    +0.000 A 
ATOM      4  C   UNL     1       2.510   6.411  19.463  0.00  0.00    +0.000 A 
ATOM      5  C   UNL     1       2.986   6.992  18.264  0.00  0.00    +0.000 A 
ATOM      6  C   UNL     1       2.658   8.314  17.926  0.00  0.00    +0.000 A 
ATOM      7  C   UNL     1       3.783   6.245  17.393  0.00  0.00    +0.000 A 
ATOM      8  C   UNL     1       4.145   4.924  17.669  0.00  0.00    +0.000 A 
ATOM      9  C   UNL     1       3.705   4.321  18.875  0.00  0.00    +0.000 A 
ATOM     10  C   UNL     1       4.023   2.985  19.199  0.00  0.00    +0.000 A 
ATOM     11  C   UNL     1       3.560   2.427  20.377  0.00  0.00    +0.000 A 
ATOM     12  N   UNL     1       2.803   3.093  21.259  0.00  0.00    +0.000 NA
ATOM     13  C   UNL     1       2.489   4.373  20.936  0.00  0.00    +0.000 A 
ATOM     14  C   UNL     1       2.889   5.058  19.773  0.00  0.00    +0.000 A 
ENDROOT
BRANCH   1  16
ATOM     15  O   UNL     1       0.472  11.027  18.871  0.00  0.00    +0.000 OA
ATOM     16  C   UNL     1       1.427  10.456  18.379  0.00  0.00    +0.000 C 
BRANCH  16  17
ATOM     17  O   UNL     1       2.207  11.000  17.420  0.00  0.00    +0.000 OA
ATOM     18  H   UNL     1       2.427  11.939  17.550  0.00  0.00    +0.000 HD
ENDBRANCH  16  17
ENDBRANCH   1  16
BRANCH   8  19
ATOM     19  N   UNL     1       4.906   4.183  16.732  0.00  0.00    +0.000 N 
ATOM     20  H   UNL     1       5.280   3.318  17.113  0.00  0.00    +0.000 HD
BRANCH  19  21
ATOM     21  C   UNL     1       5.528   4.794  15.563  0.00  0.00    +0.000 C 
ATOM     22  C   UNL     1       6.982   4.658  15.218  0.00  0.00    +0.000 C 
ATOM     23  C   UNL     1       5.954   3.915  14.418  0.00  0.00    +0.000 C 
ENDBRANCH  19  21
ENDBRANCH   8  19
TORSDOF 4
ENDMDL
MODEL 5
REMARK VINA RESULT:      -7.6      0.934      1.169
REMARK  Name = 
REMARK  4 active torsions:
REMARK  status: ('A' for Active; 'I' for Inactive)
REMARK    1  A    between atoms: C_2  and  O_3
REMARK    2  A    between atoms: C_2  and  C_4
REMARK    3  A    between atoms: C_11  and  N_12
REMARK    4  A    between atoms: N_12  and  C_13
REMARK                            x       y       z     vdW  Elec       q    Type
REMARK                         _______ _______ _______ _____ _____    ______ ____
ROOT
ATOM      1  C   UNL     1       5.836   5.159  15.475  0.00  0.00    +0.000 A 
ATOM      2  C   UNL     1       5.374   6.469  15.413  0.00  0.00    +0.000 A 
ATOM      3  C   UNL     1       4.516   6.951  16.407  0.00  0.00    +0.000 A 
ATOM      4  C   UNL     1       4.086   6.138  17.491  0.00  0.00    +0.000 A 
ATOM      5  C   UNL     1       4.576   4.811  17.529  0.00  0.00    +0.000 A 
ATOM      6  C   UNL     1       5.461   4.344  16.544  0.00  0.00    +0.000 A 
ATOM      7  C   UNL     1       4.173   3.945  18.547  0.00  0.00    +0.000 A 
ATOM      8  C   UNL     1       3.293   4.346  19.556  0.00  0.00    +0.000 A 
ATOM      9  C   UNL     1       2.803   5.677  19.560  0.00  0.00    +0.000 A 
ATOM     10  C   UNL     1       1.899   6.134  20.543  0.00  0.00    +0.000 A 
ATOM     11  C   UNL     1       1.430   7.434  20.503  0.00  0.00    +0.000 A 
ATOM     12  N   UNL     1       1.788   8.317  19.561  0.00  0.00    +0.000 NA
ATOM     13  C   UNL     1       2.647   7.869  18.613  0.00  0.00    +0.000 A 
ATOM     14  C   UNL     1       3.196   6.574  18.533  0.00  0.00    +0.000 A 
ENDROOT
BRANCH   1  16
ATOM     15  O   UNL     1       7.706   5.304  14.018  0.00  0.00    +0.000 OA
ATOM     16  C   UNL     1       6.743   4.671  14.410  0.00  0.00    +0.000 C 
BRANCH  16  17
ATOM     17  O   UNL     1       6.367   3.487  13.882  0.00  0.00    +0.000 OA
ATOM     18  H   UNL     1       5.662   3.538  13.212  0.00  0.00    +0.000 HD
ENDBRANCH  16  17
ENDBRANCH   1  16
BRANCH   8  19
ATOM     19  N   UNL     1       2.863   3.419  20.536  0.00  0.00    +0.000 N 
ATOM     20  H   UNL     1       3.607   3.120  21.159  0.00  0.00    +0.000 HD
BRANCH  19  21
ATOM     21  C   UNL     1       1.673   2.592  20.372  0.00  0.00    +0.000 C 
ATOM     22  C   UNL     1       0.623   2.829  19.328  0.00  0.00    +0.000 C 
ATOM     23  C   UNL     1       1.575   1.680  19.179  0.00  0.00    +0.000 C 
ENDBRANCH  19  21
ENDBRANCH   8  19
TORSDOF 4
ENDMDL
MODEL 6
REMARK VINA RESULT:      -7.5      1.326      1.573
REMARK  Name = 
REMARK  4 active torsions:
REMARK  status: ('A' for Active; 'I' for Inactive)
REMARK    1  A    between atoms: C_2  and  O_3
REMARK    2  A    between atoms: C_2  and  C_4
REMARK    3  A    between atoms: C_11  and  N_12
REMARK    4  A    between atoms: N_12  and  C_13
REMARK                            x       y       z     vdW  Elec       q    Type
REMARK                         _______ _______ _______ _____ _____    ______ ____
ROOT
ATOM      1  C   UNL     1       5.649   5.006  15.379  0.00  0.00    +0.000 A 
ATOM      2  C   UNL     1       5.589   6.351  15.729  0.00  0.00    +0.000 A 
ATOM      3  C   UNL     1       4.741   6.763  16.761  0.00  0.00    +0.000 A 
ATOM      4  C   UNL     1       3.920   5.848  17.474  0.00  0.00    +0.000 A 
ATOM      5  C   UNL     1       4.006   4.486  17.099  0.00  0.00    +0.000 A 
ATOM      6  C   UNL     1       4.882   4.075  16.082  0.00  0.00    +0.000 A 
ATOM      7  C   UNL     1       3.206   3.533  17.734  0.00  0.00    +0.000 A 
ATOM      8  C   UNL     1       2.312   3.876  18.751  0.00  0.00    +0.000 A 
ATOM      9  C   UNL     1       2.221   5.229  19.168  0.00  0.00    +0.000 A 
ATOM     10  C   UNL     1       1.324   5.638  20.179  0.00  0.00    +0.000 A 
ATOM     11  C   UNL     1       1.251   6.969  20.544  0.00  0.00    +0.000 A 
ATOM     12  N   UNL     1       2.000   7.929  19.984  0.00  0.00    +0.000 NA
ATOM     13  C   UNL     1       2.850   7.532  19.005  0.00  0.00    +0.000 A 
ATOM     14  C   UNL     1       3.020   6.215  18.534  0.00  0.00    +0.000 A 
ENDROOT
BRANCH   1  16
ATOM     15  O   UNL     1       7.416   5.320  13.824  0.00  0.00    +0.000 OA
ATOM     16  C   UNL     1       6.554   4.593  14.281  0.00  0.00    +0.000 C 
BRANCH  16  17
ATOM     17  O   UNL     1       6.294   3.357  13.804  0.00  0.00    +0.000 OA
ATOM     18  H   UNL     1       6.546   2.624  14.394  0.00  0.00    +0.000 HD
ENDBRANCH  16  17
ENDBRANCH   1  16
BRANCH   8  19
ATOM     19  N   UNL     1       1.477   2.889  19.329  0.00  0.00    +0.000 N 
ATOM     20  H   UNL     1       0.491   3.029  19.128  0.00  0.00    +0.000 HD
BRANCH  19  21
ATOM     21  C   UNL     1       1.880   2.092  20.483  0.00  0.00    +0.000 C 
ATOM     22  C   UNL     1       2.868   2.549  21.515  0.00  0.00    +0.000 C 
ATOM     23  C   UNL     1       1.408   2.498  21.852  0.00  0.00    +0.000 C 
ENDBRANCH  19  21
ENDBRANCH   8  19
TORSDOF 4
ENDMDL
MODEL 7
REMARK VINA RESULT:      -7.5      3.826      5.514
REMARK  Name = 
REMARK  4 active torsions:
REMARK  status: ('A' for Active; 'I' for Inactive)
REMARK    1  A    between atoms: C_2  and  O_3
REMARK    2  A    between atoms: C_2  and  C_4
REMARK    3  A    between atoms: C_11  and  N_12
REMARK    4  A    between atoms: N_12  and  C_13
REMARK                            x       y       z     vdW  Elec       q    Type
REMARK                         _______ _______ _______ _____ _____    ______ ____
ROOT
ATOM      1  C   UNL     1       1.664   8.445  19.544  0.00  0.00    +0.000 A 
ATOM      2  C   UNL     1       2.090   8.981  18.334  0.00  0.00    +0.000 A 
ATOM      3  C   UNL     1       2.990   8.268  17.537  0.00  0.00    +0.000 A 
ATOM      4  C   UNL     1       3.500   7.000  17.925  0.00  0.00    +0.000 A 
ATOM      5  C   UNL     1       3.046   6.478  19.159  0.00  0.00    +0.000 A 
ATOM      6  C   UNL     1       2.118   7.186  19.940  0.00  0.00    +0.000 A 
ATOM      7  C   UNL     1       3.527   5.251  19.620  0.00  0.00    +0.000 A 
ATOM      8  C   UNL     1       4.453   4.497  18.892  0.00  0.00    +0.000 A 
ATOM      9  C   UNL     1       4.909   4.981  17.640  0.00  0.00    +0.000 A 
ATOM     10  C   UNL     1       5.856   4.273  16.868  0.00  0.00    +0.000 A 
ATOM     11  C   UNL     1       6.290   4.787  15.660  0.00  0.00    +0.000 A 
ATOM     12  N   UNL     1       5.857   5.951  15.157  0.00  0.00    +0.000 NA
ATOM     13  C   UNL     1       4.958   6.632  15.908  0.00  0.00    +0.000 A 
ATOM     14  C   UNL     1       4.437   6.228  17.153  0.00  0.00    +0.000 A 
ENDROOT
BRANCH   1  16
ATOM     15  O   UNL     1       0.427   8.916  21.517  0.00  0.00    +0.000 OA
ATOM     16  C   UNL     1       0.710   9.219  20.373  0.00  0.00    +0.000 C 
BRANCH  16  17
ATOM     17  O   UNL     1       0.148  10.258  19.719  0.00  0.00    +0.000 OA
ATOM     18  H   UNL     1       0.776  10.913  19.365  0.00  0.00    +0.000 HD
ENDBRANCH  16  17
ENDBRANCH   1  16
BRANCH   8  19
ATOM     19  N   UNL     1       4.960   3.286  19.422  0.00  0.00    +0.000 N 
ATOM     20  H   UNL     1       5.969   3.206  19.347  0.00  0.00    +0.000 HD
BRANCH  19  21
ATOM     21  C   UNL     1       4.142   2.087  19.570  0.00  0.00    +0.000 C 
ATOM     22  C   UNL     1       2.698   2.001  19.175  0.00  0.00    +0.000 C 
ATOM     23  C   UNL     1       3.741   1.320  18.340  0.00  0.00    +0.000 C 
ENDBRANCH  19  21
ENDBRANCH   8  19
TORSDOF 4
ENDMDL
MODEL 8
REMARK VINA RESULT:      -7.2      0.589      1.011
REMARK  Name = 
REMARK  4 active torsions:
REMARK  status: ('A' for Active; 'I' for Inactive)
REMARK    1  A    between atoms: C_2  and  O_3
REMARK    2  A    between atoms: C_2  and  C_4
REMARK    3  A    between atoms: C_11  and  N_12
REMARK    4  A    between atoms: N_12  and  C_13
REMARK                            x       y       z     vdW  Elec       q    Type
REMARK                         _______ _______ _______ _____ _____    ______ ____
ROOT
ATOM      1  C   UNL     1       5.906   5.224  15.504  0.00  0.00    +0.000 A 
ATOM      2  C   UNL     1       5.353   6.456  15.171  0.00  0.00    +0.000 A 
ATOM      3  C   UNL     1       4.472   7.084  16.057  0.00  0.00    +0.000 A 
ATOM      4  C   UNL     1       4.110   6.501  17.301  0.00  0.00    +0.000 A 
ATOM      5  C   UNL     1       4.693   5.250  17.614  0.00  0.00    +0.000 A 
ATOM      6  C   UNL     1       5.600   4.639  16.734  0.00  0.00    +0.000 A 
ATOM      7  C   UNL     1       4.360   4.602  18.806  0.00  0.00    +0.000 A 
ATOM      8  C   UNL     1       3.463   5.154  19.724  0.00  0.00    +0.000 A 
ATOM      9  C   UNL     1       2.882   6.418  19.452  0.00  0.00    +0.000 A 
ATOM     10  C   UNL     1       1.957   7.018  20.333  0.00  0.00    +0.000 A 
ATOM     11  C   UNL     1       1.397   8.244  20.023  0.00  0.00    +0.000 A 
ATOM     12  N   UNL     1       1.684   8.922  18.904  0.00  0.00    +0.000 NA
ATOM     13  C   UNL     1       2.563   8.335  18.055  0.00  0.00    +0.000 A 
ATOM     14  C   UNL     1       3.201   7.094  18.245  0.00  0.00    +0.000 A 
ENDROOT
BRANCH   1  16
ATOM     15  O   UNL     1       6.544   3.584  13.909  0.00  0.00    +0.000 OA
ATOM     16  C   UNL     1       6.836   4.577  14.549  0.00  0.00    +0.000 C 
BRANCH  16  17
ATOM     17  O   UNL     1       8.051   5.164  14.498  0.00  0.00    +0.000 OA
ATOM     18  H   UNL     1       8.744   4.641  14.056  0.00  0.00    +0.000 HD
ENDBRANCH  16  17
ENDBRANCH   1  16
BRANCH   8  19
ATOM     19  N   UNL     1       3.109   4.437  20.893  0.00  0.00    +0.000 N 
ATOM     20  H   UNL     1       3.605   4.751  21.722  0.00  0.00    +0.000 HD
BRANCH  19  21
ATOM     21  C   UNL     1       2.530   3.099  20.852  0.00  0.00    +0.000 C 
ATOM     22  C   UNL     1       1.486   2.606  21.810  0.00  0.00    +0.000 C 
ATOM     23  C   UNL     1       1.106   2.932  20.397  0.00  0.00    +0.000 C 
ENDBRANCH  19  21
ENDBRANCH   8  19
TORSDOF 4
ENDMDL
MODEL 9
REMARK VINA RESULT:      -7.2      4.202      6.628
REMARK  Name = 
REMARK  4 active torsions:
REMARK  status: ('A' for Active; 'I' for Inactive)
REMARK    1  A    between atoms: C_2  and  O_3
REMARK    2  A    between atoms: C_2  and  C_4
REMARK    3  A    between atoms: C_11  and  N_12
REMARK    4  A    between atoms: N_12  and  C_13
REMARK                            x       y       z     vdW  Elec       q    Type
REMARK                         _______ _______ _______ _____ _____    ______ ____
ROOT
ATOM      1  C   UNL     1       2.549   3.340  19.762  0.00  0.00    +0.000 A 
ATOM      2  C   UNL     1       2.307   2.818  18.496  0.00  0.00    +0.000 A 
ATOM      3  C   UNL     1       3.202   3.082  17.454  0.00  0.00    +0.000 A 
ATOM      4  C   UNL     1       4.363   3.881  17.640  0.00  0.00    +0.000 A 
ATOM      5  C   UNL     1       4.583   4.394  18.940  0.00  0.00    +0.000 A 
ATOM      6  C   UNL     1       3.697   4.100  19.989  0.00  0.00    +0.000 A 
ATOM      7  C   UNL     1       5.686   5.213  19.192  0.00  0.00    +0.000 A 
ATOM      8  C   UNL     1       6.605   5.545  18.192  0.00  0.00    +0.000 A 
ATOM      9  C   UNL     1       6.426   5.026  16.885  0.00  0.00    +0.000 A 
ATOM     10  C   UNL     1       7.310   5.341  15.831  0.00  0.00    +0.000 A 
ATOM     11  C   UNL     1       7.092   4.829  14.565  0.00  0.00    +0.000 A 
ATOM     12  N   UNL     1       6.061   4.029  14.262  0.00  0.00    +0.000 NA
ATOM     13  C   UNL     1       5.207   3.741  15.276  0.00  0.00    +0.000 A 
ATOM     14  C   UNL     1       5.310   4.196  16.605  0.00  0.00    +0.000 A 
ENDROOT
BRANCH   1  16
ATOM     15  O   UNL     1       1.931   2.746  21.978  0.00  0.00    +0.000 OA
ATOM     16  C   UNL     1       1.586   3.047  20.850  0.00  0.00    +0.000 C 
BRANCH  16  17
ATOM     17  O   UNL     1       0.295   3.095  20.456  0.00  0.00    +0.000 OA
ATOM     18  H   UNL     1      -0.358   3.105  21.178  0.00  0.00    +0.000 HD
ENDBRANCH  16  17
ENDBRANCH   1  16
BRANCH   8  19
ATOM     19  N   UNL     1       7.678   6.425  18.475  0.00  0.00    +0.000 N 
ATOM     20  H   UNL     1       7.961   6.413  19.450  0.00  0.00    +0.000 HD
BRANCH  19  21
ATOM     21  C   UNL     1       7.993   7.578  17.639  0.00  0.00    +0.000 C 
ATOM     22  C   UNL     1       7.148   8.815  17.561  0.00  0.00    +0.000 C 
ATOM     23  C   UNL     1       8.456   8.851  18.293  0.00  0.00    +0.000 C 
ENDBRANCH  19  21
ENDBRANCH   8  19
TORSDOF 4
ENDMDL
