MODEL 1
REMARK VINA RESULT:      -7.9      0.000      0.000
REMARK  Name = 
REMARK  10 active torsions:
REMARK  status: ('A' for Active; 'I' for Inactive)
REMARK    1  A    between atoms: C_1  and  C_2
REMARK    2  A    between atoms: C_2  and  N_3
REMARK    3  A    between atoms: N_3  and  C_4
REMARK    4  A    between atoms: N_3  and  S_6
REMARK    5  A    between atoms: C_4  and  C_5
REMARK    6  A    between atoms: S_6  and  C_9
REMARK    7  A    between atoms: C_15  and  N_16
REMARK    8  A    between atoms: C_27  and  O_28
REMARK    9  A    between atoms: C_29  and  C_30
REMARK   10  A    between atoms: C_29  and  C_31
REMARK                            x       y       z     vdW  Elec       q    Type
REMARK                         _______ _______ _______ _____ _____    ______ ____
ROOT
ATOM      1  C   UNL     1       1.976   7.768  18.942  0.00  0.00    +0.000 A 
ATOM      2  C   UNL     1       1.871   7.852  20.333  0.00  0.00    +0.000 A 
ATOM      3  C   UNL     1       1.155   8.902  20.914  0.00  0.00    +0.000 A 
ATOM      4  C   UNL     1       0.545   9.862  20.106  0.00  0.00    +0.000 A 
ATOM      5  C   UNL     1       0.557   9.724  18.724  0.00  0.00    +0.000 A 
ATOM      6  C   UNL     1       1.301   8.683  18.127  0.00  0.00    +0.000 A 
ATOM      7  C   UNL     1      -0.230  10.687  17.864  0.00  0.00    +0.000 C 
ATOM      8  C   UNL     1      -0.786  11.921  18.641  0.00  0.00    +0.000 C 
ATOM      9  C   UNL     1      -0.036  12.133  19.988  0.00  0.00    +0.000 C 
ATOM     10  C   UNL     1       1.420  12.644  19.862  0.00  0.00    +0.000 C 
ATOM     11  C   UNL     1      -0.785  13.168  20.847  0.00  0.00    +0.000 C 
ATOM     12  O   UNL     1      -0.046  10.906  20.749  0.00  0.00    +0.000 OA
ENDROOT
BRANCH   7  13
ATOM     13  N   UNL     1      -1.187   9.917  17.048  0.00  0.00    +0.000 N 
ATOM     14  C   UNL     1      -2.474  10.244  16.755  0.00  0.00    +0.000 A 
ATOM     15  N   UNL     1      -2.947  10.009  15.524  0.00  0.00    +0.000 NA
ATOM     16  O   UNL     1      -4.134  10.702  15.428  0.00  0.00    +0.000 OA
ATOM     17  C   UNL     1      -4.409  11.282  16.622  0.00  0.00    +0.000 A 
ATOM     18  C   UNL     1      -5.450  12.172  16.867  0.00  0.00    +0.000 A 
ATOM     19  C   UNL     1      -5.598  12.599  18.189  0.00  0.00    +0.000 A 
ATOM     20  C   UNL     1      -4.783  12.078  19.196  0.00  0.00    +0.000 A 
ATOM     21 CL   UNL     1      -5.110  12.503  20.835  0.00  0.00    +0.000 Cl
ATOM     22  C   UNL     1      -3.711  11.219  18.906  0.00  0.00    +0.000 A 
ATOM     23  C   UNL     1      -3.474  10.870  17.560  0.00  0.00    +0.000 A 
ATOM     24  H   UNL     1      -0.724   9.522  16.232  0.00  0.00    +0.000 HD
ENDBRANCH   7  13
BRANCH   1  25
ATOM     25  S   UNL     1       2.851   6.399  18.213  0.00  0.00    +0.000 S 
ATOM     26  O   UNL     1       3.875   6.960  17.361  0.00  0.00    +0.000 OA
ATOM     27  O   UNL     1       1.862   5.477  17.685  0.00  0.00    +0.000 OA
BRANCH  25  28
ATOM     28  N   UNL     1       3.628   5.609  19.537  0.00  0.00    +0.000 NA
BRANCH  28  30
ATOM     29  C   UNL     1       2.207   4.414  21.246  0.00  0.00    +0.000 C 
ATOM     30  C   UNL     1       2.992   4.318  19.942  0.00  0.00    +0.000 C 
ENDBRANCH  28  30
BRANCH  28  31
ATOM     31  C   UNL     1       5.121   5.554  19.381  0.00  0.00    +0.000 C 
ATOM     32  C   UNL     1       5.622   4.291  18.695  0.00  0.00    +0.000 C 
ENDBRANCH  28  31
ENDBRANCH  25  28
ENDBRANCH   1  25
BRANCH   8  33
ATOM     33  O   UNL     1      -0.765  13.108  17.828  0.00  0.00    +0.000 OA
ATOM     34  H   UNL     1      -1.057  13.870  18.356  0.00  0.00    +0.000 HD
ENDBRANCH   8  33
TORSDOF 6
ENDMDL
MODEL 2
REMARK VINA RESULT:      -7.9      1.063      1.546
REMARK  Name = 
REMARK  10 active torsions:
REMARK  status: ('A' for Active; 'I' for Inactive)
REMARK    1  A    between atoms: C_1  and  C_2
REMARK    2  A    between atoms: C_2  and  N_3
REMARK    3  A    between atoms: N_3  and  C_4
REMARK    4  A    between atoms: N_3  and  S_6
REMARK    5  A    between atoms: C_4  and  C_5
REMARK    6  A    between atoms: S_6  and  C_9
REMARK    7  A    between atoms: C_15  and  N_16
REMARK    8  A    between atoms: C_27  and  O_28
REMARK    9  A    between atoms: C_29  and  C_30
REMARK   10  A    between atoms: C_29  and  C_31
REMARK                            x       y       z     vdW  Elec       q    Type
REMARK                         _______ _______ _______ _____ _____    ______ ____
ROOT
ATOM      1  C   UNL     1       1.901   7.783  19.484  0.00  0.00    +0.000 A 
ATOM      2  C   UNL     1       1.625   7.812  20.853  0.00  0.00    +0.000 A 
ATOM      3  C   UNL     1       0.833   8.834  21.381  0.00  0.00    +0.000 A 
ATOM      4  C   UNL     1       0.319   9.823  20.541  0.00  0.00    +0.000 A 
ATOM      5  C   UNL     1       0.502   9.739  19.167  0.00  0.00    +0.000 A 
ATOM      6  C   UNL     1       1.323   8.726  18.627  0.00  0.00    +0.000 A 
ATOM      7  C   UNL     1      -0.182  10.730  18.254  0.00  0.00    +0.000 C 
ATOM      8  C   UNL     1      -0.841  11.931  19.002  0.00  0.00    +0.000 C 
ATOM      9  C   UNL     1      -0.265  12.094  20.439  0.00  0.00    +0.000 C 
ATOM     10  C   UNL     1       1.190  12.616  20.513  0.00  0.00    +0.000 C 
ATOM     11  C   UNL     1      -1.124  13.091  21.238  0.00  0.00    +0.000 C 
ATOM     12  O   UNL     1      -0.357  10.838  21.145  0.00  0.00    +0.000 OA
ENDROOT
BRANCH   7  13
ATOM     13  N   UNL     1      -1.024   9.989  17.297  0.00  0.00    +0.000 N 
ATOM     14  C   UNL     1      -2.279  10.306  16.879  0.00  0.00    +0.000 A 
ATOM     15  N   UNL     1      -2.607  10.131  15.593  0.00  0.00    +0.000 NA
ATOM     16  O   UNL     1      -3.793  10.806  15.402  0.00  0.00    +0.000 OA
ATOM     17  C   UNL     1      -4.213  11.313  16.587  0.00  0.00    +0.000 A 
ATOM     18  C   UNL     1      -5.297  12.169  16.761  0.00  0.00    +0.000 A 
ATOM     19  C   UNL     1      -5.600  12.519  18.079  0.00  0.00    +0.000 A 
ATOM     20  C   UNL     1      -4.888  11.959  19.142  0.00  0.00    +0.000 A 
ATOM     21 CL   UNL     1      -5.404  12.287  20.754  0.00  0.00    +0.000 Cl
ATOM     22  C   UNL     1      -3.769  11.138  18.928  0.00  0.00    +0.000 A 
ATOM     23  C   UNL     1      -3.377  10.869  17.601  0.00  0.00    +0.000 A 
ATOM     24  H   UNL     1      -0.464   9.648  16.517  0.00  0.00    +0.000 HD
ENDBRANCH   7  13
BRANCH   1  25
ATOM     25  S   UNL     1       2.872   6.447  18.816  0.00  0.00    +0.000 S 
ATOM     26  O   UNL     1       4.008   6.273  19.695  0.00  0.00    +0.000 OA
ATOM     27  O   UNL     1       3.057   6.703  17.400  0.00  0.00    +0.000 OA
BRANCH  25  28
ATOM     28  N   UNL     1       1.867   5.050  18.957  0.00  0.00    +0.000 NA
BRANCH  28  30
ATOM     29  C   UNL     1       2.649   3.258  17.361  0.00  0.00    +0.000 C 
ATOM     30  C   UNL     1       1.618   4.340  17.664  0.00  0.00    +0.000 C 
ENDBRANCH  28  30
BRANCH  28  31
ATOM     31  C   UNL     1       2.271   4.159  20.097  0.00  0.00    +0.000 C 
ATOM     32  C   UNL     1       1.125   3.340  20.673  0.00  0.00    +0.000 C 
ENDBRANCH  28  31
ENDBRANCH  25  28
ENDBRANCH   1  25
BRANCH   8  33
ATOM     33  O   UNL     1      -0.732  13.149  18.244  0.00  0.00    +0.000 OA
ATOM     34  H   UNL     1      -1.496  13.232  17.649  0.00  0.00    +0.000 HD
ENDBRANCH   8  33
TORSDOF 6
ENDMDL
MODEL 3
REMARK VINA RESULT:      -7.5      3.949      6.344
REMARK  Name = 
REMARK  10 active torsions:
REMARK  status: ('A' for Active; 'I' for Inactive)
REMARK    1  A    between atoms: C_1  and  C_2
REMARK    2  A    between atoms: C_2  and  N_3
REMARK    3  A    between atoms: N_3  and  C_4
REMARK    4  A    between atoms: N_3  and  S_6
REMARK    5  A    between atoms: C_4  and  C_5
REMARK    6  A    between atoms: S_6  and  C_9
REMARK    7  A    between atoms: C_15  and  N_16
REMARK    8  A    between atoms: C_27  and  O_28
REMARK    9  A    between atoms: C_29  and  C_30
REMARK   10  A    between atoms: C_29  and  C_31
REMARK                            x       y       z     vdW  Elec       q    Type
REMARK                         _______ _______ _______ _____ _____    ______ ____
ROOT
ATOM      1  C   UNL     1       5.284   4.906  16.856  0.00  0.00    +0.000 A 
ATOM      2  C   UNL     1       4.986   3.546  16.739  0.00  0.00    +0.000 A 
ATOM      3  C   UNL     1       3.894   3.012  17.427  0.00  0.00    +0.000 A 
ATOM      4  C   UNL     1       3.102   3.836  18.228  0.00  0.00    +0.000 A 
ATOM      5  C   UNL     1       3.330   5.206  18.262  0.00  0.00    +0.000 A 
ATOM      6  C   UNL     1       4.447   5.751  17.593  0.00  0.00    +0.000 A 
ATOM      7  C   UNL     1       2.378   6.109  19.013  0.00  0.00    +0.000 C 
ATOM      8  C   UNL     1       1.349   5.344  19.904  0.00  0.00    +0.000 C 
ATOM      9  C   UNL     1       1.812   3.886  20.188  0.00  0.00    +0.000 C 
ATOM     10  C   UNL     1       3.016   3.750  21.151  0.00  0.00    +0.000 C 
ATOM     11  C   UNL     1       0.660   3.084  20.820  0.00  0.00    +0.000 C 
ATOM     12  O   UNL     1       2.121   3.222  18.944  0.00  0.00    +0.000 OA
ENDROOT
BRANCH   7  13
ATOM     13  N   UNL     1       1.842   7.114  18.077  0.00  0.00    +0.000 N 
ATOM     14  C   UNL     1       1.610   8.431  18.321  0.00  0.00    +0.000 A 
ATOM     15  N   UNL     1       1.900   9.336  17.378  0.00  0.00    +0.000 NA
ATOM     16  O   UNL     1       1.857  10.566  17.996  0.00  0.00    +0.000 OA
ATOM     17  C   UNL     1       1.464  10.405  19.283  0.00  0.00    +0.000 A 
ATOM     18  C   UNL     1       1.439  11.403  20.252  0.00  0.00    +0.000 A 
ATOM     19  C   UNL     1       0.932  11.038  21.501  0.00  0.00    +0.000 A 
ATOM     20  C   UNL     1       0.412   9.758  21.707  0.00  0.00    +0.000 A 
ATOM     21 CL   UNL     1      -0.356   9.403  23.210  0.00  0.00    +0.000 Cl
ATOM     22  C   UNL     1       0.499   8.760  20.723  0.00  0.00    +0.000 A 
ATOM     23  C   UNL     1       1.115   9.079  19.495  0.00  0.00    +0.000 A 
ATOM     24  H   UNL     1       2.243   6.989  17.149  0.00  0.00    +0.000 HD
ENDBRANCH   7  13
BRANCH   1  25
ATOM     25  S   UNL     1       6.650   5.584  15.936  0.00  0.00    +0.000 S 
ATOM     26  O   UNL     1       6.109   6.617  15.080  0.00  0.00    +0.000 OA
ATOM     27  O   UNL     1       7.401   4.472  15.381  0.00  0.00    +0.000 OA
BRANCH  25  28
ATOM     28  N   UNL     1       7.655   6.339  17.119  0.00  0.00    +0.000 NA
BRANCH  28  30
ATOM     29  C   UNL     1       8.306   8.661  17.862  0.00  0.00    +0.000 C 
ATOM     30  C   UNL     1       7.175   7.683  17.566  0.00  0.00    +0.000 C 
ENDBRANCH  28  30
BRANCH  28  31
ATOM     31  C   UNL     1       8.041   5.406  18.231  0.00  0.00    +0.000 C 
ATOM     32  C   UNL     1       7.460   5.788  19.584  0.00  0.00    +0.000 C 
ENDBRANCH  28  31
ENDBRANCH  25  28
ENDBRANCH   1  25
BRANCH   8  33
ATOM     33  O   UNL     1       1.070   6.060  21.120  0.00  0.00    +0.000 OA
ATOM     34  H   UNL     1       1.013   5.435  21.861  0.00  0.00    +0.000 HD
ENDBRANCH   8  33
TORSDOF 6
ENDMDL
MODEL 4
REMARK VINA RESULT:      -7.4      4.794      8.368
REMARK  Name = 
REMARK  10 active torsions:
REMARK  status: ('A' for Active; 'I' for Inactive)
REMARK    1  A    between atoms: C_1  and  C_2
REMARK    2  A    between atoms: C_2  and  N_3
REMARK    3  A    between atoms: N_3  and  C_4
REMARK    4  A    between atoms: N_3  and  S_6
REMARK    5  A    between atoms: C_4  and  C_5
REMARK    6  A    between atoms: S_6  and  C_9
REMARK    7  A    between atoms: C_15  and  N_16
REMARK    8  A    between atoms: C_27  and  O_28
REMARK    9  A    between atoms: C_29  and  C_30
REMARK   10  A    between atoms: C_29  and  C_31
REMARK                            x       y       z     vdW  Elec       q    Type
REMARK                         _______ _______ _______ _____ _____    ______ ____
ROOT
ATOM      1  C   UNL     1      -4.606  12.139  18.866  0.00  0.00    +0.000 A 
ATOM      2  C   UNL     1      -4.173  11.337  17.807  0.00  0.00    +0.000 A 
ATOM      3  C   UNL     1      -2.831  10.956  17.728  0.00  0.00    +0.000 A 
ATOM      4  C   UNL     1      -1.927  11.375  18.705  0.00  0.00    +0.000 A 
ATOM      5  C   UNL     1      -2.374  12.082  19.815  0.00  0.00    +0.000 A 
ATOM      6  C   UNL     1      -3.722  12.495  19.890  0.00  0.00    +0.000 A 
ATOM      7  C   UNL     1      -1.416  12.402  20.939  0.00  0.00    +0.000 C 
ATOM      8  C   UNL     1       0.079  12.109  20.600  0.00  0.00    +0.000 C 
ATOM      9  C   UNL     1       0.306  11.999  19.065  0.00  0.00    +0.000 C 
ATOM     10  C   UNL     1       0.206  13.332  18.284  0.00  0.00    +0.000 C 
ATOM     11  C   UNL     1       1.711  11.437  18.782  0.00  0.00    +0.000 C 
ATOM     12  O   UNL     1      -0.622  11.048  18.503  0.00  0.00    +0.000 OA
ENDROOT
BRANCH   7  13
ATOM     13  N   UNL     1      -1.948  11.833  22.190  0.00  0.00    +0.000 N 
ATOM     14  C   UNL     1      -2.489  12.504  23.242  0.00  0.00    +0.000 A 
ATOM     15  N   UNL     1      -3.561  11.998  23.864  0.00  0.00    +0.000 NA
ATOM     16  O   UNL     1      -4.061  13.009  24.655  0.00  0.00    +0.000 OA
ATOM     17  C   UNL     1      -3.245  14.087  24.569  0.00  0.00    +0.000 A 
ATOM     18  C   UNL     1      -3.499  15.340  25.120  0.00  0.00    +0.000 A 
ATOM     19  C   UNL     1      -2.491  16.295  24.972  0.00  0.00    +0.000 A 
ATOM     20  C   UNL     1      -1.276  15.955  24.374  0.00  0.00    +0.000 A 
ATOM     21 CL   UNL     1       0.001  17.114  24.364  0.00  0.00    +0.000 Cl
ATOM     22  C   UNL     1      -1.071  14.696  23.785  0.00  0.00    +0.000 A 
ATOM     23  C   UNL     1      -2.123  13.758  23.822  0.00  0.00    +0.000 A 
ATOM     24  H   UNL     1      -2.476  10.983  22.000  0.00  0.00    +0.000 HD
ENDBRANCH   7  13
BRANCH   1  25
ATOM     25  S   UNL     1      -6.329  12.577  18.982  0.00  0.00    +0.000 S 
ATOM     26  O   UNL     1      -7.024  11.824  17.961  0.00  0.00    +0.000 OA
ATOM     27  O   UNL     1      -6.412  14.025  19.028  0.00  0.00    +0.000 OA
BRANCH  25  28
ATOM     28  N   UNL     1      -6.838  11.987  20.522  0.00  0.00    +0.000 NA
BRANCH  28  30
ATOM     29  C   UNL     1      -7.179  12.552  22.958  0.00  0.00    +0.000 C 
ATOM     30  C   UNL     1      -7.142  13.058  21.521  0.00  0.00    +0.000 C 
ENDBRANCH  28  30
BRANCH  28  31
ATOM     31  C   UNL     1      -7.882  10.913  20.414  0.00  0.00    +0.000 C 
ATOM     32  C   UNL     1      -7.311   9.505  20.328  0.00  0.00    +0.000 C 
ENDBRANCH  28  31
ENDBRANCH  25  28
ENDBRANCH   1  25
BRANCH   8  33
ATOM     33  O   UNL     1       0.956  13.080  21.200  0.00  0.00    +0.000 OA
ATOM     34  H   UNL     1       0.429  13.782  21.616  0.00  0.00    +0.000 HD
ENDBRANCH   8  33
TORSDOF 6
ENDMDL
MODEL 5
REMARK VINA RESULT:      -7.4      4.272      6.762
REMARK  Name = 
REMARK  10 active torsions:
REMARK  status: ('A' for Active; 'I' for Inactive)
REMARK    1  A    between atoms: C_1  and  C_2
REMARK    2  A    between atoms: C_2  and  N_3
REMARK    3  A    between atoms: N_3  and  C_4
REMARK    4  A    between atoms: N_3  and  S_6
REMARK    5  A    between atoms: C_4  and  C_5
REMARK    6  A    between atoms: S_6  and  C_9
REMARK    7  A    between atoms: C_15  and  N_16
REMARK    8  A    between atoms: C_27  and  O_28
REMARK    9  A    between atoms: C_29  and  C_30
REMARK   10  A    between atoms: C_29  and  C_31
REMARK                            x       y       z     vdW  Elec       q    Type
REMARK                         _______ _______ _______ _____ _____    ______ ____
ROOT
ATOM      1  C   UNL     1       2.341  13.481  19.247  0.00  0.00    +0.000 A 
ATOM      2  C   UNL     1       2.373  12.423  18.335  0.00  0.00    +0.000 A 
ATOM      3  C   UNL     1       1.649  11.258  18.595  0.00  0.00    +0.000 A 
ATOM      4  C   UNL     1       0.894  11.152  19.765  0.00  0.00    +0.000 A 
ATOM      5  C   UNL     1       0.774  12.239  20.621  0.00  0.00    +0.000 A 
ATOM      6  C   UNL     1       1.524  13.411  20.381  0.00  0.00    +0.000 A 
ATOM      7  C   UNL     1      -0.162  12.165  21.805  0.00  0.00    +0.000 C 
ATOM      8  C   UNL     1      -0.721  10.734  22.083  0.00  0.00    +0.000 C 
ATOM      9  C   UNL     1       0.145   9.640  21.395  0.00  0.00    +0.000 C 
ATOM     10  C   UNL     1       1.541   9.409  22.023  0.00  0.00    +0.000 C 
ATOM     11  C   UNL     1      -0.582   8.284  21.450  0.00  0.00    +0.000 C 
ATOM     12  O   UNL     1       0.299   9.950  19.994  0.00  0.00    +0.000 OA
ENDROOT
BRANCH   7  13
ATOM     13  N   UNL     1      -1.141  13.263  21.704  0.00  0.00    +0.000 N 
ATOM     14  C   UNL     1      -2.348  13.240  21.078  0.00  0.00    +0.000 A 
ATOM     15  N   UNL     1      -3.395  13.851  21.647  0.00  0.00    +0.000 NA
ATOM     16  O   UNL     1      -4.512  13.412  20.971  0.00  0.00    +0.000 OA
ATOM     17  C   UNL     1      -4.128  12.607  19.951  0.00  0.00    +0.000 A 
ATOM     18  C   UNL     1      -4.983  11.869  19.137  0.00  0.00    +0.000 A 
ATOM     19  C   UNL     1      -4.382  11.156  18.097  0.00  0.00    +0.000 A 
ATOM     20  C   UNL     1      -3.010  11.265  17.866  0.00  0.00    +0.000 A 
ATOM     21 CL   UNL     1      -2.337  10.504  16.472  0.00  0.00    +0.000 Cl
ATOM     22  C   UNL     1      -2.169  11.978  18.736  0.00  0.00    +0.000 A 
ATOM     23  C   UNL     1      -2.744  12.608  19.859  0.00  0.00    +0.000 A 
ATOM     24  H   UNL     1      -1.206  13.767  22.586  0.00  0.00    +0.000 HD
ENDBRANCH   7  13
BRANCH   1  25
ATOM     25  S   UNL     1       3.231  14.979  18.879  0.00  0.00    +0.000 S 
ATOM     26  O   UNL     1       3.251  15.114  17.439  0.00  0.00    +0.000 OA
ATOM     27  O   UNL     1       4.465  14.957  19.644  0.00  0.00    +0.000 OA
BRANCH  25  28
ATOM     28  N   UNL     1       2.254  16.249  19.523  0.00  0.00    +0.000 NA
BRANCH  28  30
ATOM     29  C   UNL     1       2.452  17.497  21.708  0.00  0.00    +0.000 C 
ATOM     30  C   UNL     1       3.013  17.271  20.308  0.00  0.00    +0.000 C 
ENDBRANCH  28  30
BRANCH  28  31
ATOM     31  C   UNL     1       1.300  16.815  18.510  0.00  0.00    +0.000 C 
ATOM     32  C   UNL     1      -0.113  16.261  18.618  0.00  0.00    +0.000 C 
ENDBRANCH  28  31
ENDBRANCH  25  28
ENDBRANCH   1  25
BRANCH   8  33
ATOM     33  O   UNL     1      -0.867  10.489  23.493  0.00  0.00    +0.000 OA
ATOM     34  H   UNL     1      -1.784  10.663  23.761  0.00  0.00    +0.000 HD
ENDBRANCH   8  33
TORSDOF 6
ENDMDL
MODEL 6
REMARK VINA RESULT:      -7.3      4.107      8.223
REMARK  Name = 
REMARK  10 active torsions:
REMARK  status: ('A' for Active; 'I' for Inactive)
REMARK    1  A    between atoms: C_1  and  C_2
REMARK    2  A    between atoms: C_2  and  N_3
REMARK    3  A    between atoms: N_3  and  C_4
REMARK    4  A    between atoms: N_3  and  S_6
REMARK    5  A    between atoms: C_4  and  C_5
REMARK    6  A    between atoms: S_6  and  C_9
REMARK    7  A    between atoms: C_15  and  N_16
REMARK    8  A    between atoms: C_27  and  O_28
REMARK    9  A    between atoms: C_29  and  C_30
REMARK   10  A    between atoms: C_29  and  C_31
REMARK                            x       y       z     vdW  Elec       q    Type
REMARK                         _______ _______ _______ _____ _____    ______ ____
ROOT
ATOM      1  C   UNL     1      -4.151  11.835  18.470  0.00  0.00    +0.000 A 
ATOM      2  C   UNL     1      -3.374  11.556  17.342  0.00  0.00    +0.000 A 
ATOM      3  C   UNL     1      -2.003  11.824  17.358  0.00  0.00    +0.000 A 
ATOM      4  C   UNL     1      -1.412  12.367  18.500  0.00  0.00    +0.000 A 
ATOM      5  C   UNL     1      -2.158  12.546  19.657  0.00  0.00    +0.000 A 
ATOM      6  C   UNL     1      -3.549  12.305  19.643  0.00  0.00    +0.000 A 
ATOM      7  C   UNL     1      -1.478  12.994  20.931  0.00  0.00    +0.000 C 
ATOM      8  C   UNL     1      -0.002  13.461  20.729  0.00  0.00    +0.000 C 
ATOM      9  C   UNL     1       0.291  13.802  19.240  0.00  0.00    +0.000 C 
ATOM     10  C   UNL     1      -0.378  15.095  18.713  0.00  0.00    +0.000 C 
ATOM     11  C   UNL     1       1.806  13.983  19.032  0.00  0.00    +0.000 C 
ATOM     12  O   UNL     1      -0.094  12.692  18.402  0.00  0.00    +0.000 OA
ENDROOT
BRANCH   7  13
ATOM     13  N   UNL     1      -1.729  11.990  21.980  0.00  0.00    +0.000 N 
ATOM     14  C   UNL     1      -0.964  10.911  22.294  0.00  0.00    +0.000 A 
ATOM     15  N   UNL     1      -0.789  10.580  23.580  0.00  0.00    +0.000 NA
ATOM     16  O   UNL     1       0.247   9.673  23.608  0.00  0.00    +0.000 OA
ATOM     17  C   UNL     1       0.635   9.400  22.339  0.00  0.00    +0.000 A 
ATOM     18  C   UNL     1       1.741   8.636  21.979  0.00  0.00    +0.000 A 
ATOM     19  C   UNL     1       1.923   8.421  20.610  0.00  0.00    +0.000 A 
ATOM     20  C   UNL     1       0.984   8.890  19.690  0.00  0.00    +0.000 A 
ATOM     21 CL   UNL     1       1.157   8.457  18.029  0.00  0.00    +0.000 Cl
ATOM     22  C   UNL     1      -0.094   9.700  20.084  0.00  0.00    +0.000 A 
ATOM     23  C   UNL     1      -0.226  10.025  21.449  0.00  0.00    +0.000 A 
ATOM     24  H   UNL     1      -2.081  12.436  22.825  0.00  0.00    +0.000 HD
ENDBRANCH   7  13
BRANCH   1  25
ATOM     25  S   UNL     1      -5.888  11.444  18.452  0.00  0.00    +0.000 S 
ATOM     26  O   UNL     1      -6.001  10.017  18.658  0.00  0.00    +0.000 OA
ATOM     27  O   UNL     1      -6.470  12.079  17.283  0.00  0.00    +0.000 OA
BRANCH  25  28
ATOM     28  N   UNL     1      -6.539  12.238  19.841  0.00  0.00    +0.000 NA
BRANCH  28  30
ATOM     29  C   UNL     1      -6.372  14.752  19.691  0.00  0.00    +0.000 C 
ATOM     30  C   UNL     1      -7.253  13.517  19.539  0.00  0.00    +0.000 C 
ENDBRANCH  28  30
BRANCH  28  31
ATOM     31  C   UNL     1      -7.284  11.300  20.747  0.00  0.00    +0.000 C 
ATOM     32  C   UNL     1      -7.861  11.969  21.986  0.00  0.00    +0.000 C 
ENDBRANCH  28  31
ENDBRANCH  25  28
ENDBRANCH   1  25
BRANCH   8  33
ATOM     33  O   UNL     1       0.327  14.558  21.601  0.00  0.00    +0.000 OA
ATOM     34  H   UNL     1      -0.373  14.668  22.265  0.00  0.00    +0.000 HD
ENDBRANCH   8  33
TORSDOF 6
ENDMDL
MODEL 7
REMARK VINA RESULT:      -7.2      1.076      1.507
REMARK  Name = 
REMARK  10 active torsions:
REMARK  status: ('A' for Active; 'I' for Inactive)
REMARK    1  A    between atoms: C_1  and  C_2
REMARK    2  A    between atoms: C_2  and  N_3
REMARK    3  A    between atoms: N_3  and  C_4
REMARK    4  A    between atoms: N_3  and  S_6
REMARK    5  A    between atoms: C_4  and  C_5
REMARK    6  A    between atoms: S_6  and  C_9
REMARK    7  A    between atoms: C_15  and  N_16
REMARK    8  A    between atoms: C_27  and  O_28
REMARK    9  A    between atoms: C_29  and  C_30
REMARK   10  A    between atoms: C_29  and  C_31
REMARK                            x       y       z     vdW  Elec       q    Type
REMARK                         _______ _______ _______ _____ _____    ______ ____
ROOT
ATOM      1  C   UNL     1       1.887   7.447  19.565  0.00  0.00    +0.000 A 
ATOM      2  C   UNL     1       1.706   7.694  20.928  0.00  0.00    +0.000 A 
ATOM      3  C   UNL     1       1.068   8.865  21.344  0.00  0.00    +0.000 A 
ATOM      4  C   UNL     1       0.612   9.785  20.398  0.00  0.00    +0.000 A 
ATOM      5  C   UNL     1       0.694   9.494  19.043  0.00  0.00    +0.000 A 
ATOM      6  C   UNL     1       1.361   8.327  18.612  0.00  0.00    +0.000 A 
ATOM      7  C   UNL     1       0.065  10.426  18.033  0.00  0.00    +0.000 C 
ATOM      8  C   UNL     1      -0.407  11.787  18.635  0.00  0.00    +0.000 C 
ATOM      9  C   UNL     1       0.276  12.074  20.003  0.00  0.00    +0.000 C 
ATOM     10  C   UNL     1       1.782  12.425  19.930  0.00  0.00    +0.000 C 
ATOM     11  C   UNL     1      -0.413  13.265  20.693  0.00  0.00    +0.000 C 
ATOM     12  O   UNL     1       0.093  10.946  20.884  0.00  0.00    +0.000 OA
ENDROOT
BRANCH   7  13
ATOM     13  N   UNL     1      -0.915   9.667  17.234  0.00  0.00    +0.000 N 
ATOM     14  C   UNL     1      -2.185  10.033  16.915  0.00  0.00    +0.000 A 
ATOM     15  N   UNL     1      -2.655   9.774  15.689  0.00  0.00    +0.000 NA
ATOM     16  O   UNL     1      -3.812  10.509  15.555  0.00  0.00    +0.000 OA
ATOM     17  C   UNL     1      -4.075  11.142  16.725  0.00  0.00    +0.000 A 
ATOM     18  C   UNL     1      -5.082  12.081  16.927  0.00  0.00    +0.000 A 
ATOM     19  C   UNL     1      -5.225  12.560  18.231  0.00  0.00    +0.000 A 
ATOM     20  C   UNL     1      -4.441  12.044  19.265  0.00  0.00    +0.000 A 
ATOM     21 CL   UNL     1      -4.767  12.540  20.884  0.00  0.00    +0.000 Cl
ATOM     22  C   UNL     1      -3.401  11.133  19.017  0.00  0.00    +0.000 A 
ATOM     23  C   UNL     1      -3.166  10.727  17.688  0.00  0.00    +0.000 A 
ATOM     24  H   UNL     1      -0.460   9.224  16.437  0.00  0.00    +0.000 HD
ENDBRANCH   7  13
BRANCH   1  25
ATOM     25  S   UNL     1       2.659   5.928  19.047  0.00  0.00    +0.000 S 
ATOM     26  O   UNL     1       1.937   5.465  17.883  0.00  0.00    +0.000 OA
ATOM     27  O   UNL     1       2.802   5.086  20.221  0.00  0.00    +0.000 OA
BRANCH  25  28
ATOM     28  N   UNL     1       4.248   6.381  18.547  0.00  0.00    +0.000 NA
BRANCH  28  30
ATOM     29  C   UNL     1       6.521   5.605  19.321  0.00  0.00    +0.000 C 
ATOM     30  C   UNL     1       5.241   5.263  18.567  0.00  0.00    +0.000 C 
ENDBRANCH  28  30
BRANCH  28  31
ATOM     31  C   UNL     1       4.246   7.200  17.288  0.00  0.00    +0.000 C 
ATOM     32  C   UNL     1       5.019   6.566  16.140  0.00  0.00    +0.000 C 
ENDBRANCH  28  31
ENDBRANCH  25  28
ENDBRANCH   1  25
BRANCH   8  33
ATOM     33  O   UNL     1      -0.215  12.870  17.706  0.00  0.00    +0.000 OA
ATOM     34  H   UNL     1      -1.060  13.091  17.283  0.00  0.00    +0.000 HD
ENDBRANCH   8  33
TORSDOF 6
ENDMDL
MODEL 8
REMARK VINA RESULT:      -7.2      4.284      6.377
REMARK  Name = 
REMARK  10 active torsions:
REMARK  status: ('A' for Active; 'I' for Inactive)
REMARK    1  A    between atoms: C_1  and  C_2
REMARK    2  A    between atoms: C_2  and  N_3
REMARK    3  A    between atoms: N_3  and  C_4
REMARK    4  A    between atoms: N_3  and  S_6
REMARK    5  A    between atoms: C_4  and  C_5
REMARK    6  A    between atoms: S_6  and  C_9
REMARK    7  A    between atoms: C_15  and  N_16
REMARK    8  A    between atoms: C_27  and  O_28
REMARK    9  A    between atoms: C_29  and  C_30
REMARK   10  A    between atoms: C_29  and  C_31
REMARK                            x       y       z     vdW  Elec       q    Type
REMARK                         _______ _______ _______ _____ _____    ______ ____
ROOT
ATOM      1  C   UNL     1       2.311  13.539  19.254  0.00  0.00    +0.000 A 
ATOM      2  C   UNL     1       2.380  12.471  18.356  0.00  0.00    +0.000 A 
ATOM      3  C   UNL     1       1.671  11.296  18.617  0.00  0.00    +0.000 A 
ATOM      4  C   UNL     1       0.894  11.192  19.772  0.00  0.00    +0.000 A 
ATOM      5  C   UNL     1       0.738  12.287  20.611  0.00  0.00    +0.000 A 
ATOM      6  C   UNL     1       1.472  13.469  20.371  0.00  0.00    +0.000 A 
ATOM      7  C   UNL     1      -0.221  12.212  21.777  0.00  0.00    +0.000 C 
ATOM      8  C   UNL     1      -0.760  10.775  22.062  0.00  0.00    +0.000 C 
ATOM      9  C   UNL     1       0.139   9.688  21.407  0.00  0.00    +0.000 C 
ATOM     10  C   UNL     1       1.525   9.490  22.066  0.00  0.00    +0.000 C 
ATOM     11  C   UNL     1      -0.566   8.320  21.465  0.00  0.00    +0.000 C 
ATOM     12  O   UNL     1       0.316   9.982  20.006  0.00  0.00    +0.000 OA
ENDROOT
BRANCH   7  13
ATOM     13  N   UNL     1      -1.217  13.291  21.641  0.00  0.00    +0.000 N 
ATOM     14  C   UNL     1      -2.418  13.234  21.005  0.00  0.00    +0.000 A 
ATOM     15  N   UNL     1      -3.479  13.840  21.551  0.00  0.00    +0.000 NA
ATOM     16  O   UNL     1      -4.583  13.367  20.876  0.00  0.00    +0.000 OA
ATOM     17  C   UNL     1      -4.177  12.544  19.879  0.00  0.00    +0.000 A 
ATOM     18  C   UNL     1      -5.012  11.774  19.075  0.00  0.00    +0.000 A 
ATOM     19  C   UNL     1      -4.391  11.047  18.058  0.00  0.00    +0.000 A 
ATOM     20  C   UNL     1      -3.018  11.173  17.836  0.00  0.00    +0.000 A 
ATOM     21 CL   UNL     1      -2.321  10.390  16.466  0.00  0.00    +0.000 Cl
ATOM     22  C   UNL     1      -2.197  11.919  18.696  0.00  0.00    +0.000 A 
ATOM     23  C   UNL     1      -2.792  12.566  19.799  0.00  0.00    +0.000 A 
ATOM     24  H   UNL     1      -1.298  13.815  22.511  0.00  0.00    +0.000 HD
ENDBRANCH   7  13
BRANCH   1  25
ATOM     25  S   UNL     1       3.182  15.048  18.884  0.00  0.00    +0.000 S 
ATOM     26  O   UNL     1       2.555  16.096  19.659  0.00  0.00    +0.000 OA
ATOM     27  O   UNL     1       3.292  15.150  17.440  0.00  0.00    +0.000 OA
BRANCH  25  28
ATOM     28  N   UNL     1       4.776  14.807  19.502  0.00  0.00    +0.000 NA
BRANCH  28  30
ATOM     29  C   UNL     1       6.507  16.533  18.873  0.00  0.00    +0.000 C 
ATOM     30  C   UNL     1       5.867  15.187  18.552  0.00  0.00    +0.000 C 
ENDBRANCH  28  30
BRANCH  28  31
ATOM     31  C   UNL     1       4.943  15.338  20.897  0.00  0.00    +0.000 C 
ATOM     32  C   UNL     1       4.779  14.283  21.981  0.00  0.00    +0.000 C 
ENDBRANCH  28  31
ENDBRANCH  25  28
ENDBRANCH   1  25
BRANCH   8  33
ATOM     33  O   UNL     1      -0.931  10.546  23.472  0.00  0.00    +0.000 OA
ATOM     34  H   UNL     1      -1.397   9.705  23.612  0.00  0.00    +0.000 HD
ENDBRANCH   8  33
TORSDOF 6
ENDMDL
MODEL 9
REMARK VINA RESULT:      -7.2      5.234      8.327
REMARK  Name = 
REMARK  10 active torsions:
REMARK  status: ('A' for Active; 'I' for Inactive)
REMARK    1  A    between atoms: C_1  and  C_2
REMARK    2  A    between atoms: C_2  and  N_3
REMARK    3  A    between atoms: N_3  and  C_4
REMARK    4  A    between atoms: N_3  and  S_6
REMARK    5  A    between atoms: C_4  and  C_5
REMARK    6  A    between atoms: S_6  and  C_9
REMARK    7  A    between atoms: C_15  and  N_16
REMARK    8  A    between atoms: C_27  and  O_28
REMARK    9  A    between atoms: C_29  and  C_30
REMARK   10  A    between atoms: C_29  and  C_31
REMARK                            x       y       z     vdW  Elec       q    Type
REMARK                         _______ _______ _______ _____ _____    ______ ____
ROOT
ATOM      1  C   UNL     1      -3.910  12.059  19.239  0.00  0.00    +0.000 A 
ATOM      2  C   UNL     1      -3.019  11.406  18.384  0.00  0.00    +0.000 A 
ATOM      3  C   UNL     1      -1.645  11.471  18.631  0.00  0.00    +0.000 A 
ATOM      4  C   UNL     1      -1.167  12.185  19.731  0.00  0.00    +0.000 A 
ATOM      5  C   UNL     1      -2.053  12.744  20.641  0.00  0.00    +0.000 A 
ATOM      6  C   UNL     1      -3.441  12.708  20.386  0.00  0.00    +0.000 A 
ATOM      7  C   UNL     1      -1.529  13.386  21.905  0.00  0.00    +0.000 C 
ATOM      8  C   UNL     1       0.020  13.575  21.925  0.00  0.00    +0.000 C 
ATOM      9  C   UNL     1       0.622  13.498  20.492  0.00  0.00    +0.000 C 
ATOM     10  C   UNL     1       0.309  14.706  19.577  0.00  0.00    +0.000 C 
ATOM     11  C   UNL     1       2.157  13.405  20.574  0.00  0.00    +0.000 C 
ATOM     12  O   UNL     1       0.186  12.285  19.845  0.00  0.00    +0.000 OA
ENDROOT
BRANCH   7  13
ATOM     13  N   UNL     1      -2.141  12.714  23.066  0.00  0.00    +0.000 N 
ATOM     14  C   UNL     1      -3.386  12.912  23.576  0.00  0.00    +0.000 A 
ATOM     15  N   UNL     1      -4.096  11.860  24.003  0.00  0.00    +0.000 NA
ATOM     16  O   UNL     1      -5.388  12.308  24.168  0.00  0.00    +0.000 OA
ATOM     17  C   UNL     1      -5.433  13.640  23.919  0.00  0.00    +0.000 A 
ATOM     18  C   UNL     1      -6.590  14.411  23.852  0.00  0.00    +0.000 A 
ATOM     19  C   UNL     1      -6.407  15.781  23.652  0.00  0.00    +0.000 A 
ATOM     20  C   UNL     1      -5.121  16.324  23.610  0.00  0.00    +0.000 A 
ATOM     21 CL   UNL     1      -4.944  18.038  23.532  0.00  0.00    +0.000 Cl
ATOM     22  C   UNL     1      -3.976  15.511  23.631  0.00  0.00    +0.000 A 
ATOM     23  C   UNL     1      -4.146  14.114  23.714  0.00  0.00    +0.000 A 
ATOM     24  H   UNL     1      -1.908  11.723  23.069  0.00  0.00    +0.000 HD
ENDBRANCH   7  13
BRANCH   1  25
ATOM     25  S   UNL     1      -5.661  11.928  18.939  0.00  0.00    +0.000 S 
ATOM     26  O   UNL     1      -6.292  11.711  20.222  0.00  0.00    +0.000 OA
ATOM     27  O   UNL     1      -5.852  10.993  17.845  0.00  0.00    +0.000 OA
BRANCH  25  28
ATOM     28  N   UNL     1      -6.134  13.487  18.367  0.00  0.00    +0.000 NA
BRANCH  28  30
ATOM     29  C   UNL     1      -7.032  14.863  16.451  0.00  0.00    +0.000 C 
ATOM     30  C   UNL     1      -6.819  13.472  17.037  0.00  0.00    +0.000 C 
ENDBRANCH  28  30
BRANCH  28  31
ATOM     31  C   UNL     1      -6.824  14.306  19.421  0.00  0.00    +0.000 C 
ATOM     32  C   UNL     1      -5.944  15.385  20.036  0.00  0.00    +0.000 C 
ENDBRANCH  28  31
ENDBRANCH  25  28
ENDBRANCH   1  25
BRANCH   8  33
ATOM     33  O   UNL     1       0.395  14.792  22.595  0.00  0.00    +0.000 OA
ATOM     34  H   UNL     1      -0.397  15.329  22.764  0.00  0.00    +0.000 HD
ENDBRANCH   8  33
TORSDOF 6
ENDMDL
