MODEL 1
REMARK VINA RESULT:      -8.9      0.000      0.000
REMARK  Name = 
REMARK  9 active torsions:
REMARK  status: ('A' for Active; 'I' for Inactive)
REMARK    1  A    between atoms: C_1  and  C_2
REMARK    2  A    between atoms: C_2  and  O_3
REMARK    3  A    between atoms: C_2  and  C_26
REMARK    4  A    between atoms: O_3  and  C_4
REMARK    5  A    between atoms: C_7  and  C_8
REMARK    6  A    between atoms: N_10  and  C_11
REMARK    7  A    between atoms: C_11  and  C_12
REMARK    8  A    between atoms: C_19  and  C_20
REMARK    9  A    between atoms: N_22  and  C_23
REMARK                            x       y       z     vdW  Elec       q    Type
REMARK                         _______ _______ _______ _____ _____    ______ ____
ROOT
ATOM      1  C   UNL     1       4.380   5.763  17.561  0.00  0.00    +0.000 A 
ATOM      2  C   UNL     1       4.650   6.937  16.843  0.00  0.00    +0.000 A 
ATOM      3  C   UNL     1       3.844   8.075  16.994  0.00  0.00    +0.000 A 
ATOM      4  C   UNL     1       2.750   8.056  17.865  0.00  0.00    +0.000 A 
ATOM      5  C   UNL     1       2.441   6.865  18.537  0.00  0.00    +0.000 A 
ATOM      6  C   UNL     1       3.211   5.699  18.342  0.00  0.00    +0.000 A 
ENDROOT
BRANCH   6   7
ATOM      7  C   UNL     1       2.722   4.478  18.948  0.00  0.00    +0.000 A 
ATOM      8  C   UNL     1       2.904   4.081  20.254  0.00  0.00    +0.000 A 
ATOM      9  N   UNL     1       2.066   3.020  20.384  0.00  0.00    +0.000 N 
ATOM     10  C   UNL     1       1.673   2.353  21.597  0.00  0.00    +0.000 C 
ATOM     11  N   UNL     1       1.504   2.688  19.208  0.00  0.00    +0.000 NA
ATOM     12  N   UNL     1       1.905   3.582  18.312  0.00  0.00    +0.000 NA
ENDBRANCH   6   7
BRANCH   4  13
ATOM     13  C   UNL     1       1.954   9.301  18.066  0.00  0.00    +0.000 C 
ATOM     14  O   UNL     1       2.190  10.301  17.390  0.00  0.00    +0.000 OA
ATOM     15  N   UNL     1       0.962   9.256  19.029  0.00  0.00    +0.000 N 
ATOM     16  H   UNL     1       0.733   8.373  19.463  0.00  0.00    +0.000 HD
BRANCH  15  17
ATOM     17  C   UNL     1       0.092  10.380  19.314  0.00  0.00    +0.000 C 
BRANCH  17  18
ATOM     18  C   UNL     1      -0.576  10.298  20.698  0.00  0.00    +0.000 C 
ATOM     19  C   UNL     1      -0.809  11.684  21.320  0.00  0.00    +0.000 C 
ATOM     20  C   UNL     1      -1.339  11.552  22.744  0.00  0.00    +0.000 C 
ATOM     21  O   UNL     1      -0.440  10.789  23.547  0.00  0.00    +0.000 OA
ATOM     22  C   UNL     1      -0.295   9.455  23.063  0.00  0.00    +0.000 C 
ATOM     23  C   UNL     1       0.286   9.454  21.654  0.00  0.00    +0.000 C 
ENDBRANCH  17  18
ENDBRANCH  15  17
ENDBRANCH   4  13
BRANCH   1  24
ATOM     24  O   UNL     1       5.295   4.750  17.380  0.00  0.00    +0.000 OA
BRANCH  24  26
ATOM     25  C   UNL     1       7.690   4.489  17.658  0.00  0.00    +0.000 C 
ATOM     26  C   UNL     1       6.573   5.118  16.817  0.00  0.00    +0.000 C 
BRANCH  26  27
ATOM     27  C   UNL     1       6.755   4.740  15.358  0.00  0.00    +0.000 A 
ATOM     28  C   UNL     1       5.845   3.848  14.780  0.00  0.00    +0.000 A 
ATOM     29  C   UNL     1       5.892   3.634  13.410  0.00  0.00    +0.000 A 
ATOM     30  C   UNL     1       6.848   4.302  12.656  0.00  0.00    +0.000 A 
ATOM     31  C   UNL     1       7.729   5.147  13.306  0.00  0.00    +0.000 A 
ATOM     32  N   UNL     1       7.704   5.383  14.636  0.00  0.00    +0.000 NA
ENDBRANCH  26  27
ENDBRANCH  24  26
ENDBRANCH   1  24
TORSDOF 7
ENDMDL
MODEL 2
REMARK VINA RESULT:      -8.8      1.718      2.411
REMARK  Name = 
REMARK  9 active torsions:
REMARK  status: ('A' for Active; 'I' for Inactive)
REMARK    1  A    between atoms: C_1  and  C_2
REMARK    2  A    between atoms: C_2  and  O_3
REMARK    3  A    between atoms: C_2  and  C_26
REMARK    4  A    between atoms: O_3  and  C_4
REMARK    5  A    between atoms: C_7  and  C_8
REMARK    6  A    between atoms: N_10  and  C_11
REMARK    7  A    between atoms: C_11  and  C_12
REMARK    8  A    between atoms: C_19  and  C_20
REMARK    9  A    between atoms: N_22  and  C_23
REMARK                            x       y       z     vdW  Elec       q    Type
REMARK                         _______ _______ _______ _____ _____    ______ ____
ROOT
ATOM      1  C   UNL     1       4.225   5.891  17.556  0.00  0.00    +0.000 A 
ATOM      2  C   UNL     1       4.518   7.063  16.844  0.00  0.00    +0.000 A 
ATOM      3  C   UNL     1       3.743   8.220  17.014  0.00  0.00    +0.000 A 
ATOM      4  C   UNL     1       2.659   8.221  17.897  0.00  0.00    +0.000 A 
ATOM      5  C   UNL     1       2.326   7.033  18.562  0.00  0.00    +0.000 A 
ATOM      6  C   UNL     1       3.064   5.850  18.350  0.00  0.00    +0.000 A 
ENDROOT
BRANCH   6   7
ATOM      7  C   UNL     1       2.551   4.637  18.951  0.00  0.00    +0.000 A 
ATOM      8  C   UNL     1       2.774   4.203  20.239  0.00  0.00    +0.000 A 
ATOM      9  N   UNL     1       1.897   3.175  20.385  0.00  0.00    +0.000 N 
ATOM     10  C   UNL     1       1.530   2.497  21.600  0.00  0.00    +0.000 C 
ATOM     11  N   UNL     1       1.270   2.894  19.229  0.00  0.00    +0.000 NA
ATOM     12  N   UNL     1       1.669   3.790  18.334  0.00  0.00    +0.000 NA
ENDBRANCH   6   7
BRANCH   4  13
ATOM     13  C   UNL     1       1.898   9.485  18.117  0.00  0.00    +0.000 C 
ATOM     14  O   UNL     1       2.274  10.533  17.594  0.00  0.00    +0.000 OA
ATOM     15  N   UNL     1       0.774   9.402  18.919  0.00  0.00    +0.000 N 
ATOM     16  H   UNL     1       0.444   8.495  19.217  0.00  0.00    +0.000 HD
BRANCH  15  17
ATOM     17  C   UNL     1      -0.078  10.541  19.198  0.00  0.00    +0.000 C 
BRANCH  17  18
ATOM     18  C   UNL     1      -1.523  10.358  18.700  0.00  0.00    +0.000 C 
ATOM     19  C   UNL     1      -1.587   9.954  17.219  0.00  0.00    +0.000 C 
ATOM     20  C   UNL     1      -3.031   9.922  16.732  0.00  0.00    +0.000 C 
ATOM     21  O   UNL     1      -3.658  11.189  16.932  0.00  0.00    +0.000 OA
ATOM     22  C   UNL     1      -3.723  11.539  18.313  0.00  0.00    +0.000 C 
ATOM     23  C   UNL     1      -2.323  11.657  18.904  0.00  0.00    +0.000 C 
ENDBRANCH  17  18
ENDBRANCH  15  17
ENDBRANCH   4  13
BRANCH   1  24
ATOM     24  O   UNL     1       5.113   4.855  17.357  0.00  0.00    +0.000 OA
BRANCH  24  26
ATOM     25  C   UNL     1       7.494   4.597  17.730  0.00  0.00    +0.000 C 
ATOM     26  C   UNL     1       6.411   5.202  16.829  0.00  0.00    +0.000 C 
BRANCH  26  27
ATOM     27  C   UNL     1       6.645   4.777  15.391  0.00  0.00    +0.000 A 
ATOM     28  C   UNL     1       5.740   3.887  14.801  0.00  0.00    +0.000 A 
ATOM     29  C   UNL     1       5.839   3.631  13.441  0.00  0.00    +0.000 A 
ATOM     30  C   UNL     1       6.839   4.257  12.708  0.00  0.00    +0.000 A 
ATOM     31  C   UNL     1       7.710   5.104  13.370  0.00  0.00    +0.000 A 
ATOM     32  N   UNL     1       7.637   5.379  14.690  0.00  0.00    +0.000 NA
ENDBRANCH  26  27
ENDBRANCH  24  26
ENDBRANCH   1  24
TORSDOF 7
ENDMDL
MODEL 3
REMARK VINA RESULT:      -8.5      2.119      2.698
REMARK  Name = 
REMARK  9 active torsions:
REMARK  status: ('A' for Active; 'I' for Inactive)
REMARK    1  A    between atoms: C_1  and  C_2
REMARK    2  A    between atoms: C_2  and  O_3
REMARK    3  A    between atoms: C_2  and  C_26
REMARK    4  A    between atoms: O_3  and  C_4
REMARK    5  A    between atoms: C_7  and  C_8
REMARK    6  A    between atoms: N_10  and  C_11
REMARK    7  A    between atoms: C_11  and  C_12
REMARK    8  A    between atoms: C_19  and  C_20
REMARK    9  A    between atoms: N_22  and  C_23
REMARK                            x       y       z     vdW  Elec       q    Type
REMARK                         _______ _______ _______ _____ _____    ______ ____
ROOT
ATOM      1  C   UNL     1       4.021   6.237  18.142  0.00  0.00    +0.000 A 
ATOM      2  C   UNL     1       3.856   7.382  17.349  0.00  0.00    +0.000 A 
ATOM      3  C   UNL     1       2.924   8.371  17.697  0.00  0.00    +0.000 A 
ATOM      4  C   UNL     1       2.139   8.229  18.845  0.00  0.00    +0.000 A 
ATOM      5  C   UNL     1       2.257   7.057  19.606  0.00  0.00    +0.000 A 
ATOM      6  C   UNL     1       3.148   6.031  19.227  0.00  0.00    +0.000 A 
ENDROOT
BRANCH   6   7
ATOM      7  C   UNL     1       3.085   4.794  19.976  0.00  0.00    +0.000 A 
ATOM      8  C   UNL     1       2.216   4.502  21.005  0.00  0.00    +0.000 A 
ATOM      9  N   UNL     1       2.388   3.168  21.198  0.00  0.00    +0.000 N 
ATOM     10  C   UNL     1       1.576   2.283  21.990  0.00  0.00    +0.000 C 
ATOM     11  N   UNL     1       3.391   2.686  20.444  0.00  0.00    +0.000 NA
ATOM     12  N   UNL     1       3.832   3.684  19.686  0.00  0.00    +0.000 NA
ENDBRANCH   6   7
BRANCH   4  13
ATOM     13  C   UNL     1       1.211   9.329  19.236  0.00  0.00    +0.000 C 
ATOM     14  O   UNL     1       0.935   9.514  20.420  0.00  0.00    +0.000 OA
ATOM     15  N   UNL     1       0.702  10.106  18.210  0.00  0.00    +0.000 N 
ATOM     16  H   UNL     1       1.061   9.987  17.274  0.00  0.00    +0.000 HD
BRANCH  15  17
ATOM     17  C   UNL     1      -0.188  11.227  18.442  0.00  0.00    +0.000 C 
BRANCH  17  18
ATOM     18  C   UNL     1      -1.675  10.832  18.451  0.00  0.00    +0.000 C 
ATOM     19  C   UNL     1      -2.129  10.221  17.117  0.00  0.00    +0.000 C 
ATOM     20  C   UNL     1      -3.634   9.978  17.120  0.00  0.00    +0.000 C 
ATOM     21  O   UNL     1      -4.339  11.191  17.379  0.00  0.00    +0.000 OA
ATOM     22  C   UNL     1      -4.030  11.722  18.666  0.00  0.00    +0.000 C 
ATOM     23  C   UNL     1      -2.548  12.061  18.766  0.00  0.00    +0.000 C 
ENDBRANCH  17  18
ENDBRANCH  15  17
ENDBRANCH   4  13
BRANCH   1  24
ATOM     24  O   UNL     1       5.025   5.387  17.731  0.00  0.00    +0.000 OA
BRANCH  24  26
ATOM     25  C   UNL     1       7.363   6.025  17.772  0.00  0.00    +0.000 C 
ATOM     26  C   UNL     1       6.081   5.963  16.933  0.00  0.00    +0.000 C 
BRANCH  26  27
ATOM     27  C   UNL     1       6.357   5.239  15.628  0.00  0.00    +0.000 A 
ATOM     28  C   UNL     1       5.387   4.360  15.134  0.00  0.00    +0.000 A 
ATOM     29  C   UNL     1       5.546   3.831  13.861  0.00  0.00    +0.000 A 
ATOM     30  C   UNL     1       6.668   4.181  13.121  0.00  0.00    +0.000 A 
ATOM     31  C   UNL     1       7.594   5.036  13.691  0.00  0.00    +0.000 A 
ATOM     32  N   UNL     1       7.465   5.573  14.924  0.00  0.00    +0.000 NA
ENDBRANCH  26  27
ENDBRANCH  24  26
ENDBRANCH   1  24
TORSDOF 7
ENDMDL
MODEL 4
REMARK VINA RESULT:      -8.5      2.151      2.831
REMARK  Name = 
REMARK  9 active torsions:
REMARK  status: ('A' for Active; 'I' for Inactive)
REMARK    1  A    between atoms: C_1  and  C_2
REMARK    2  A    between atoms: C_2  and  O_3
REMARK    3  A    between atoms: C_2  and  C_26
REMARK    4  A    between atoms: O_3  and  C_4
REMARK    5  A    between atoms: C_7  and  C_8
REMARK    6  A    between atoms: N_10  and  C_11
REMARK    7  A    between atoms: C_11  and  C_12
REMARK    8  A    between atoms: C_19  and  C_20
REMARK    9  A    between atoms: N_22  and  C_23
REMARK                            x       y       z     vdW  Elec       q    Type
REMARK                         _______ _______ _______ _____ _____    ______ ____
ROOT
ATOM      1  C   UNL     1       4.116   5.944  17.839  0.00  0.00    +0.000 A 
ATOM      2  C   UNL     1       3.832   7.155  17.190  0.00  0.00    +0.000 A 
ATOM      3  C   UNL     1       2.923   8.071  17.742  0.00  0.00    +0.000 A 
ATOM      4  C   UNL     1       2.280   7.788  18.951  0.00  0.00    +0.000 A 
ATOM      5  C   UNL     1       2.515   6.551  19.569  0.00  0.00    +0.000 A 
ATOM      6  C   UNL     1       3.380   5.601  18.988  0.00  0.00    +0.000 A 
ENDROOT
BRANCH   6   7
ATOM      7  C   UNL     1       3.434   4.294  19.609  0.00  0.00    +0.000 A 
ATOM      8  C   UNL     1       4.421   3.347  19.442  0.00  0.00    +0.000 A 
ATOM      9  N   UNL     1       4.145   2.427  20.403  0.00  0.00    +0.000 N 
ATOM     10  C   UNL     1       4.977   1.338  20.843  0.00  0.00    +0.000 C 
ATOM     11  N   UNL     1       2.990   2.703  21.033  0.00  0.00    +0.000 NA
ATOM     12  N   UNL     1       2.540   3.855  20.548  0.00  0.00    +0.000 NA
ENDBRANCH   6   7
BRANCH   4  13
ATOM     13  C   UNL     1       1.378   8.810  19.555  0.00  0.00    +0.000 C 
ATOM     14  O   UNL     1       1.312   8.932  20.777  0.00  0.00    +0.000 OA
ATOM     15  N   UNL     1       0.648   9.591  18.676  0.00  0.00    +0.000 N 
ATOM     16  H   UNL     1       0.837   9.531  17.686  0.00  0.00    +0.000 HD
BRANCH  15  17
ATOM     17  C   UNL     1      -0.247  10.642  19.118  0.00  0.00    +0.000 C 
BRANCH  17  18
ATOM     18  C   UNL     1      -1.690  10.467  18.613  0.00  0.00    +0.000 C 
ATOM     19  C   UNL     1      -1.750  10.110  17.120  0.00  0.00    +0.000 C 
ATOM     20  C   UNL     1      -3.193  10.086  16.629  0.00  0.00    +0.000 C 
ATOM     21  O   UNL     1      -3.827  11.342  16.868  0.00  0.00    +0.000 OA
ATOM     22  C   UNL     1      -3.896  11.646  18.260  0.00  0.00    +0.000 C 
ATOM     23  C   UNL     1      -2.498  11.754  18.857  0.00  0.00    +0.000 C 
ENDBRANCH  17  18
ENDBRANCH  15  17
ENDBRANCH   4  13
BRANCH   1  24
ATOM     24  O   UNL     1       5.085   5.175  17.232  0.00  0.00    +0.000 OA
BRANCH  24  26
ATOM     25  C   UNL     1       7.306   6.145  17.237  0.00  0.00    +0.000 C 
ATOM     26  C   UNL     1       6.046   5.869  16.408  0.00  0.00    +0.000 C 
BRANCH  26  27
ATOM     27  C   UNL     1       6.423   5.146  15.127  0.00  0.00    +0.000 A 
ATOM     28  C   UNL     1       5.509   4.240  14.578  0.00  0.00    +0.000 A 
ATOM     29  C   UNL     1       5.763   3.709  13.321  0.00  0.00    +0.000 A 
ATOM     30  C   UNL     1       6.920   4.086  12.651  0.00  0.00    +0.000 A 
ATOM     31  C   UNL     1       7.786   4.967  13.273  0.00  0.00    +0.000 A 
ATOM     32  N   UNL     1       7.565   5.506  14.492  0.00  0.00    +0.000 NA
ENDBRANCH  26  27
ENDBRANCH  24  26
ENDBRANCH   1  24
TORSDOF 7
ENDMDL
MODEL 5
REMARK VINA RESULT:      -8.5      1.408      4.875
REMARK  Name = 
REMARK  9 active torsions:
REMARK  status: ('A' for Active; 'I' for Inactive)
REMARK    1  A    between atoms: C_1  and  C_2
REMARK    2  A    between atoms: C_2  and  O_3
REMARK    3  A    between atoms: C_2  and  C_26
REMARK    4  A    between atoms: O_3  and  C_4
REMARK    5  A    between atoms: C_7  and  C_8
REMARK    6  A    between atoms: N_10  and  C_11
REMARK    7  A    between atoms: C_11  and  C_12
REMARK    8  A    between atoms: C_19  and  C_20
REMARK    9  A    between atoms: N_22  and  C_23
REMARK                            x       y       z     vdW  Elec       q    Type
REMARK                         _______ _______ _______ _____ _____    ______ ____
ROOT
ATOM      1  C   UNL     1       4.575   4.926  18.872  0.00  0.00    +0.000 A 
ATOM      2  C   UNL     1       3.828   5.492  19.915  0.00  0.00    +0.000 A 
ATOM      3  C   UNL     1       3.057   6.645  19.704  0.00  0.00    +0.000 A 
ATOM      4  C   UNL     1       3.025   7.253  18.445  0.00  0.00    +0.000 A 
ATOM      5  C   UNL     1       3.819   6.725  17.418  0.00  0.00    +0.000 A 
ATOM      6  C   UNL     1       4.644   5.603  17.641  0.00  0.00    +0.000 A 
ENDROOT
BRANCH   6   7
ATOM      7  C   UNL     1       5.550   5.229  16.574  0.00  0.00    +0.000 A 
ATOM      8  C   UNL     1       5.344   4.246  15.631  0.00  0.00    +0.000 A 
ATOM      9  N   UNL     1       6.343   4.453  14.733  0.00  0.00    +0.000 N 
ATOM     10  C   UNL     1       6.485   3.869  13.426  0.00  0.00    +0.000 C 
ATOM     11  N   UNL     1       7.195   5.404  15.154  0.00  0.00    +0.000 NA
ATOM     12  N   UNL     1       6.716   5.890  16.293  0.00  0.00    +0.000 NA
ENDBRANCH   6   7
BRANCH   4  13
ATOM     13  C   UNL     1       2.138   8.432  18.226  0.00  0.00    +0.000 C 
ATOM     14  O   UNL     1       2.108   8.988  17.130  0.00  0.00    +0.000 OA
ATOM     15  N   UNL     1       1.372   8.841  19.303  0.00  0.00    +0.000 N 
ATOM     16  H   UNL     1       1.344   8.272  20.137  0.00  0.00    +0.000 HD
BRANCH  15  17
ATOM     17  C   UNL     1       0.444   9.953  19.229  0.00  0.00    +0.000 C 
BRANCH  17  18
ATOM     18  C   UNL     1      -0.357  10.165  20.525  0.00  0.00    +0.000 C 
ATOM     19  C   UNL     1      -0.307  11.620  21.016  0.00  0.00    +0.000 C 
ATOM     20  C   UNL     1      -0.990  11.756  22.372  0.00  0.00    +0.000 C 
ATOM     21  O   UNL     1      -0.388  10.885  23.329  0.00  0.00    +0.000 OA
ATOM     22  C   UNL     1      -0.525   9.514  22.961  0.00  0.00    +0.000 C 
ATOM     23  C   UNL     1       0.175   9.240  21.636  0.00  0.00    +0.000 C 
ENDBRANCH  17  18
ENDBRANCH  15  17
ENDBRANCH   4  13
BRANCH   1  24
ATOM     24  O   UNL     1       5.221   3.751  19.194  0.00  0.00    +0.000 OA
BRANCH  24  26
ATOM     25  C   UNL     1       5.044   1.479  20.019  0.00  0.00    +0.000 C 
ATOM     26  C   UNL     1       4.457   2.533  19.073  0.00  0.00    +0.000 C 
BRANCH  26  27
ATOM     27  C   UNL     1       2.970   2.687  19.337  0.00  0.00    +0.000 A 
ATOM     28  C   UNL     1       2.523   2.680  20.663  0.00  0.00    +0.000 A 
ATOM     29  C   UNL     1       1.198   2.997  20.927  0.00  0.00    +0.000 A 
ATOM     30  C   UNL     1       0.354   3.301  19.867  0.00  0.00    +0.000 A 
ATOM     31  C   UNL     1       0.866   3.261  18.583  0.00  0.00    +0.000 A 
ATOM     32  N   UNL     1       2.152   2.963  18.293  0.00  0.00    +0.000 NA
ENDBRANCH  26  27
ENDBRANCH  24  26
ENDBRANCH   1  24
TORSDOF 7
ENDMDL
MODEL 6
REMARK VINA RESULT:      -8.1      0.894      1.256
REMARK  Name = 
REMARK  9 active torsions:
REMARK  status: ('A' for Active; 'I' for Inactive)
REMARK    1  A    between atoms: C_1  and  C_2
REMARK    2  A    between atoms: C_2  and  O_3
REMARK    3  A    between atoms: C_2  and  C_26
REMARK    4  A    between atoms: O_3  and  C_4
REMARK    5  A    between atoms: C_7  and  C_8
REMARK    6  A    between atoms: N_10  and  C_11
REMARK    7  A    between atoms: C_11  and  C_12
REMARK    8  A    between atoms: C_19  and  C_20
REMARK    9  A    between atoms: N_22  and  C_23
REMARK                            x       y       z     vdW  Elec       q    Type
REMARK                         _______ _______ _______ _____ _____    ______ ____
ROOT
ATOM      1  C   UNL     1       3.929   6.113  17.977  0.00  0.00    +0.000 A 
ATOM      2  C   UNL     1       4.121   7.316  17.282  0.00  0.00    +0.000 A 
ATOM      3  C   UNL     1       3.222   8.383  17.429  0.00  0.00    +0.000 A 
ATOM      4  C   UNL     1       2.114   8.262  18.273  0.00  0.00    +0.000 A 
ATOM      5  C   UNL     1       1.886   7.040  18.920  0.00  0.00    +0.000 A 
ATOM      6  C   UNL     1       2.751   5.943  18.728  0.00  0.00    +0.000 A 
ENDROOT
BRANCH   6   7
ATOM      7  C   UNL     1       2.348   4.677  19.304  0.00  0.00    +0.000 A 
ATOM      8  C   UNL     1       2.607   4.240  20.585  0.00  0.00    +0.000 A 
ATOM      9  N   UNL     1       1.826   3.135  20.707  0.00  0.00    +0.000 N 
ATOM     10  C   UNL     1       1.519   2.404  21.909  0.00  0.00    +0.000 C 
ATOM     11  N   UNL     1       1.230   2.821  19.544  0.00  0.00    +0.000 NA
ATOM     12  N   UNL     1       1.548   3.766  18.668  0.00  0.00    +0.000 NA
ENDBRANCH   6   7
BRANCH   4  13
ATOM     13  C   UNL     1       1.216   9.437  18.472  0.00  0.00    +0.000 C 
ATOM     14  O   UNL     1       0.256   9.615  17.725  0.00  0.00    +0.000 OA
ATOM     15  N   UNL     1       1.524  10.282  19.523  0.00  0.00    +0.000 N 
ATOM     16  H   UNL     1       2.248  10.018  20.176  0.00  0.00    +0.000 HD
BRANCH  15  17
ATOM     17  C   UNL     1       0.726  11.447  19.854  0.00  0.00    +0.000 C 
BRANCH  17  18
ATOM     18  C   UNL     1       0.278  11.480  21.325  0.00  0.00    +0.000 C 
ATOM     19  C   UNL     1      -0.316  10.141  21.789  0.00  0.00    +0.000 C 
ATOM     20  C   UNL     1      -0.875  10.260  23.202  0.00  0.00    +0.000 C 
ATOM     21  O   UNL     1      -1.858  11.292  23.270  0.00  0.00    +0.000 OA
ATOM     22  C   UNL     1      -1.309  12.571  22.961  0.00  0.00    +0.000 C 
ATOM     23  C   UNL     1      -0.763  12.594  21.538  0.00  0.00    +0.000 C 
ENDBRANCH  17  18
ENDBRANCH  15  17
ENDBRANCH   4  13
BRANCH   1  24
ATOM     24  O   UNL     1       4.927   5.179  17.804  0.00  0.00    +0.000 OA
BRANCH  24  26
ATOM     25  C   UNL     1       7.331   5.329  18.080  0.00  0.00    +0.000 C 
ATOM     26  C   UNL     1       6.140   5.631  17.163  0.00  0.00    +0.000 C 
BRANCH  26  27
ATOM     27  C   UNL     1       6.389   5.039  15.788  0.00  0.00    +0.000 A 
ATOM     28  C   UNL     1       5.420   4.191  15.240  0.00  0.00    +0.000 A 
ATOM     29  C   UNL     1       5.550   3.788  13.918  0.00  0.00    +0.000 A 
ATOM     30  C   UNL     1       6.642   4.230  13.184  0.00  0.00    +0.000 A 
ATOM     31  C   UNL     1       7.570   5.045  13.805  0.00  0.00    +0.000 A 
ATOM     32  N   UNL     1       7.469   5.461  15.087  0.00  0.00    +0.000 NA
ENDBRANCH  26  27
ENDBRANCH  24  26
ENDBRANCH   1  24
TORSDOF 7
ENDMDL
MODEL 7
REMARK VINA RESULT:      -8.0      2.131      2.737
REMARK  Name = 
REMARK  9 active torsions:
REMARK  status: ('A' for Active; 'I' for Inactive)
REMARK    1  A    between atoms: C_1  and  C_2
REMARK    2  A    between atoms: C_2  and  O_3
REMARK    3  A    between atoms: C_2  and  C_26
REMARK    4  A    between atoms: O_3  and  C_4
REMARK    5  A    between atoms: C_7  and  C_8
REMARK    6  A    between atoms: N_10  and  C_11
REMARK    7  A    between atoms: C_11  and  C_12
REMARK    8  A    between atoms: C_19  and  C_20
REMARK    9  A    between atoms: N_22  and  C_23
REMARK                            x       y       z     vdW  Elec       q    Type
REMARK                         _______ _______ _______ _____ _____    ______ ____
ROOT
ATOM      1  C   UNL     1       3.560   6.451  17.920  0.00  0.00    +0.000 A 
ATOM      2  C   UNL     1       3.330   7.582  17.124  0.00  0.00    +0.000 A 
ATOM      3  C   UNL     1       2.520   8.632  17.584  0.00  0.00    +0.000 A 
ATOM      4  C   UNL     1       1.923   8.564  18.846  0.00  0.00    +0.000 A 
ATOM      5  C   UNL     1       2.101   7.407  19.617  0.00  0.00    +0.000 A 
ATOM      6  C   UNL     1       2.864   6.322  19.136  0.00  0.00    +0.000 A 
ENDROOT
BRANCH   6   7
ATOM      7  C   UNL     1       2.856   5.110  19.928  0.00  0.00    +0.000 A 
ATOM      8  C   UNL     1       1.909   4.745  20.859  0.00  0.00    +0.000 A 
ATOM      9  N   UNL     1       2.214   3.449  21.131  0.00  0.00    +0.000 N 
ATOM     10  C   UNL     1       1.422   2.494  21.861  0.00  0.00    +0.000 C 
ATOM     11  N   UNL     1       3.351   3.071  20.523  0.00  0.00    +0.000 NA
ATOM     12  N   UNL     1       3.760   4.092  19.777  0.00  0.00    +0.000 NA
ENDBRANCH   6   7
BRANCH   4  13
ATOM     13  C   UNL     1       1.129   9.725  19.342  0.00  0.00    +0.000 C 
ATOM     14  O   UNL     1       0.718   9.743  20.501  0.00  0.00    +0.000 OA
ATOM     15  N   UNL     1       0.900  10.750  18.442  0.00  0.00    +0.000 N 
ATOM     16  H   UNL     1       1.368  10.738  17.547  0.00  0.00    +0.000 HD
BRANCH  15  17
ATOM     17  C   UNL     1       0.170  11.954  18.792  0.00  0.00    +0.000 C 
BRANCH  17  18
ATOM     18  C   UNL     1       1.079  13.173  19.022  0.00  0.00    +0.000 C 
ATOM     19  C   UNL     1       2.391  13.086  18.227  0.00  0.00    +0.000 C 
ATOM     20  C   UNL     1       3.320  14.238  18.593  0.00  0.00    +0.000 C 
ATOM     21  O   UNL     1       3.586  14.244  19.995  0.00  0.00    +0.000 OA
ATOM     22  C   UNL     1       2.400  14.445  20.761  0.00  0.00    +0.000 C 
ATOM     23  C   UNL     1       1.406  13.315  20.520  0.00  0.00    +0.000 C 
ENDBRANCH  17  18
ENDBRANCH  15  17
ENDBRANCH   4  13
BRANCH   1  24
ATOM     24  O   UNL     1       4.438   5.534  17.383  0.00  0.00    +0.000 OA
BRANCH  24  26
ATOM     25  C   UNL     1       6.758   6.090  17.816  0.00  0.00    +0.000 C 
ATOM     26  C   UNL     1       5.635   6.059  16.771  0.00  0.00    +0.000 C 
BRANCH  26  27
ATOM     27  C   UNL     1       6.102   5.304  15.540  0.00  0.00    +0.000 A 
ATOM     28  C   UNL     1       5.238   4.366  14.964  0.00  0.00    +0.000 A 
ATOM     29  C   UNL     1       5.577   3.802  13.742  0.00  0.00    +0.000 A 
ATOM     30  C   UNL     1       6.767   4.177  13.134  0.00  0.00    +0.000 A 
ATOM     31  C   UNL     1       7.579   5.091  13.780  0.00  0.00    +0.000 A 
ATOM     32  N   UNL     1       7.275   5.664  14.965  0.00  0.00    +0.000 NA
ENDBRANCH  26  27
ENDBRANCH  24  26
ENDBRANCH   1  24
TORSDOF 7
ENDMDL
MODEL 8
REMARK VINA RESULT:      -8.0      2.694      9.310
REMARK  Name = 
REMARK  9 active torsions:
REMARK  status: ('A' for Active; 'I' for Inactive)
REMARK    1  A    between atoms: C_1  and  C_2
REMARK    2  A    between atoms: C_2  and  O_3
REMARK    3  A    between atoms: C_2  and  C_26
REMARK    4  A    between atoms: O_3  and  C_4
REMARK    5  A    between atoms: C_7  and  C_8
REMARK    6  A    between atoms: N_10  and  C_11
REMARK    7  A    between atoms: C_11  and  C_12
REMARK    8  A    between atoms: C_19  and  C_20
REMARK    9  A    between atoms: N_22  and  C_23
REMARK                            x       y       z     vdW  Elec       q    Type
REMARK                         _______ _______ _______ _____ _____    ______ ____
ROOT
ATOM      1  C   UNL     1       1.344  10.183  18.891  0.00  0.00    +0.000 A 
ATOM      2  C   UNL     1       2.106   9.632  17.849  0.00  0.00    +0.000 A 
ATOM      3  C   UNL     1       2.554   8.304  17.911  0.00  0.00    +0.000 A 
ATOM      4  C   UNL     1       2.251   7.506  19.018  0.00  0.00    +0.000 A 
ATOM      5  C   UNL     1       1.544   8.073  20.088  0.00  0.00    +0.000 A 
ATOM      6  C   UNL     1       1.143   9.425  20.059  0.00  0.00    +0.000 A 
ENDROOT
BRANCH   6   7
ATOM      7  C   UNL     1       0.565   9.966  21.272  0.00  0.00    +0.000 A 
ATOM      8  C   UNL     1      -0.518  10.814  21.356  0.00  0.00    +0.000 A 
ATOM      9  N   UNL     1      -0.809  10.827  22.683  0.00  0.00    +0.000 N 
ATOM     10  C   UNL     1      -1.983  11.362  23.321  0.00  0.00    +0.000 C 
ATOM     11  N   UNL     1       0.109  10.151  23.396  0.00  0.00    +0.000 NA
ATOM     12  N   UNL     1       0.965   9.617  22.533  0.00  0.00    +0.000 NA
ENDBRANCH   6   7
BRANCH   4  13
ATOM     13  C   UNL     1       2.673   6.076  19.025  0.00  0.00    +0.000 C 
ATOM     14  O   UNL     1       2.575   5.407  20.052  0.00  0.00    +0.000 OA
ATOM     15  N   UNL     1       3.163   5.567  17.835  0.00  0.00    +0.000 N 
ATOM     16  H   UNL     1       3.103   6.126  16.996  0.00  0.00    +0.000 HD
BRANCH  15  17
ATOM     17  C   UNL     1       3.584   4.188  17.685  0.00  0.00    +0.000 C 
BRANCH  17  18
ATOM     18  C   UNL     1       5.052   4.043  17.249  0.00  0.00    +0.000 C 
ATOM     19  C   UNL     1       6.024   4.728  18.222  0.00  0.00    +0.000 C 
ATOM     20  C   UNL     1       7.448   4.684  17.681  0.00  0.00    +0.000 C 
ATOM     21  O   UNL     1       7.517   5.297  16.394  0.00  0.00    +0.000 OA
ATOM     22  C   UNL     1       6.717   4.609  15.434  0.00  0.00    +0.000 C 
ATOM     23  C   UNL     1       5.249   4.634  15.841  0.00  0.00    +0.000 C 
ENDBRANCH  17  18
ENDBRANCH  15  17
ENDBRANCH   4  13
BRANCH   1  24
ATOM     24  O   UNL     1       0.901  11.468  18.667  0.00  0.00    +0.000 OA
BRANCH  24  26
ATOM     25  C   UNL     1       2.500  13.137  17.936  0.00  0.00    +0.000 C 
ATOM     26  C   UNL     1       1.748  12.541  19.132  0.00  0.00    +0.000 C 
BRANCH  26  27
ATOM     27  C   UNL     1       1.023  13.643  19.883  0.00  0.00    +0.000 A 
ATOM     28  C   UNL     1       1.425  13.935  21.191  0.00  0.00    +0.000 A 
ATOM     29  C   UNL     1       0.895  15.052  21.823  0.00  0.00    +0.000 A 
ATOM     30  C   UNL     1      -0.025  15.838  21.141  0.00  0.00    +0.000 A 
ATOM     31  C   UNL     1      -0.390  15.467  19.860  0.00  0.00    +0.000 A 
ATOM     32  N   UNL     1       0.112  14.391  19.215  0.00  0.00    +0.000 NA
ENDBRANCH  26  27
ENDBRANCH  24  26
ENDBRANCH   1  24
TORSDOF 7
ENDMDL
MODEL 9
REMARK VINA RESULT:      -7.9      3.919     10.600
REMARK  Name = 
REMARK  9 active torsions:
REMARK  status: ('A' for Active; 'I' for Inactive)
REMARK    1  A    between atoms: C_1  and  C_2
REMARK    2  A    between atoms: C_2  and  O_3
REMARK    3  A    between atoms: C_2  and  C_26
REMARK    4  A    between atoms: O_3  and  C_4
REMARK    5  A    between atoms: C_7  and  C_8
REMARK    6  A    between atoms: N_10  and  C_11
REMARK    7  A    between atoms: C_11  and  C_12
REMARK    8  A    between atoms: C_19  and  C_20
REMARK    9  A    between atoms: N_22  and  C_23
REMARK                            x       y       z     vdW  Elec       q    Type
REMARK                         _______ _______ _______ _____ _____    ______ ____
ROOT
ATOM      1  C   UNL     1      -1.315  11.702  19.880  0.00  0.00    +0.000 A 
ATOM      2  C   UNL     1      -0.189  11.341  20.634  0.00  0.00    +0.000 A 
ATOM      3  C   UNL     1       0.755  10.435  20.127  0.00  0.00    +0.000 A 
ATOM      4  C   UNL     1       0.584   9.871  18.859  0.00  0.00    +0.000 A 
ATOM      5  C   UNL     1      -0.572  10.182  18.130  0.00  0.00    +0.000 A 
ATOM      6  C   UNL     1      -1.555  11.045  18.659  0.00  0.00    +0.000 A 
ENDROOT
BRANCH   6   7
ATOM      7  C   UNL     1      -2.787  11.178  17.909  0.00  0.00    +0.000 A 
ATOM      8  C   UNL     1      -4.013  11.557  18.409  0.00  0.00    +0.000 A 
ATOM      9  N   UNL     1      -4.760  11.765  17.293  0.00  0.00    +0.000 N 
ATOM     10  C   UNL     1      -6.052  12.393  17.204  0.00  0.00    +0.000 C 
ATOM     11  N   UNL     1      -4.096  11.407  16.181  0.00  0.00    +0.000 NA
ATOM     12  N   UNL     1      -2.874  11.040  16.550  0.00  0.00    +0.000 NA
ENDBRANCH   6   7
BRANCH   4  13
ATOM     13  C   UNL     1       1.640   8.970  18.312  0.00  0.00    +0.000 C 
ATOM     14  O   UNL     1       2.207   9.252  17.258  0.00  0.00    +0.000 OA
ATOM     15  N   UNL     1       1.931   7.837  19.049  0.00  0.00    +0.000 N 
ATOM     16  H   UNL     1       1.524   7.723  19.966  0.00  0.00    +0.000 HD
BRANCH  15  17
ATOM     17  C   UNL     1       2.953   6.886  18.656  0.00  0.00    +0.000 C 
BRANCH  17  18
ATOM     18  C   UNL     1       2.648   5.445  19.102  0.00  0.00    +0.000 C 
ATOM     19  C   UNL     1       1.831   4.668  18.058  0.00  0.00    +0.000 C 
ATOM     20  C   UNL     1       1.431   3.299  18.598  0.00  0.00    +0.000 C 
ATOM     21  O   UNL     1       0.692   3.433  19.811  0.00  0.00    +0.000 OA
ATOM     22  C   UNL     1       1.466   4.045  20.841  0.00  0.00    +0.000 C 
ATOM     23  C   UNL     1       1.882   5.454  20.438  0.00  0.00    +0.000 C 
ENDBRANCH  17  18
ENDBRANCH  15  17
ENDBRANCH   4  13
BRANCH   1  24
ATOM     24  O   UNL     1      -2.118  12.661  20.460  0.00  0.00    +0.000 OA
BRANCH  24  26
ATOM     25  C   UNL     1      -1.397  14.115  22.261  0.00  0.00    +0.000 C 
ATOM     26  C   UNL     1      -2.056  12.779  21.898  0.00  0.00    +0.000 C 
BRANCH  26  27
ATOM     27  C   UNL     1      -3.395  12.660  22.603  0.00  0.00    +0.000 A 
ATOM     28  C   UNL     1      -3.405  12.395  23.977  0.00  0.00    +0.000 A 
ATOM     29  C   UNL     1      -4.609  12.460  24.665  0.00  0.00    +0.000 A 
ATOM     30  C   UNL     1      -5.767  12.777  23.967  0.00  0.00    +0.000 A 
ATOM     31  C   UNL     1      -5.677  13.000  22.605  0.00  0.00    +0.000 A 
ATOM     32  N   UNL     1      -4.521  12.951  21.907  0.00  0.00    +0.000 NA
ENDBRANCH  26  27
ENDBRANCH  24  26
ENDBRANCH   1  24
TORSDOF 7
ENDMDL
