MODEL 1
REMARK VINA RESULT:      -6.9      0.000      0.000
REMARK  Name = 
REMARK  6 active torsions:
REMARK  status: ('A' for Active; 'I' for Inactive)
REMARK    1  A    between atoms: C_1  and  O_2
REMARK    2  A    between atoms: O_2  and  C_3
REMARK    3  A    between atoms: C_9  and  C_10
REMARK    4  A    between atoms: C_10  and  C_11
REMARK    5  A    between atoms: C_11  and  N_12
REMARK    6  A    between atoms: C_13  and  C_14
REMARK                            x       y       z     vdW  Elec       q    Type
REMARK                         _______ _______ _______ _____ _____    ______ ____
ROOT
ATOM      1  C   UNL     1       3.109   3.171  18.050  0.00  0.00    +0.000 A 
ATOM      2  C   UNL     1       3.698   3.083  19.268  0.00  0.00    +0.000 A 
ATOM      3  N   UNL     1       4.983   3.531  19.494  0.00  0.00    +0.000 N 
ATOM      4  C   UNL     1       5.713   4.078  18.475  0.00  0.00    +0.000 A 
ATOM      5  N   UNL     1       6.939   4.530  18.487  0.00  0.00    +0.000 NA
ATOM      6  C   UNL     1       7.165   4.969  17.188  0.00  0.00    +0.000 A 
ATOM      7  C   UNL     1       6.133   4.825  16.328  0.00  0.00    +0.000 A 
ATOM      8  C   UNL     1       5.107   4.215  17.119  0.00  0.00    +0.000 A 
ATOM      9  C   UNL     1       3.855   3.772  16.938  0.00  0.00    +0.000 A 
ATOM     10  H   UNL     1       5.406   3.440  20.408  0.00  0.00    +0.000 HD
ENDROOT
BRANCH   1  12
ATOM     11  C   UNL     1       0.925   2.512  18.737  0.00  0.00    +0.000 C 
ATOM     12  O   UNL     1       1.855   2.750  17.688  0.00  0.00    +0.000 OA
ENDBRANCH   1  12
BRANCH   7  13
ATOM     13  C   UNL     1       6.017   5.160  14.878  0.00  0.00    +0.000 C 
BRANCH  13  14
ATOM     14  C   UNL     1       6.116   3.942  13.952  0.00  0.00    +0.000 C 
BRANCH  14  15
ATOM     15  N   UNL     1       5.055   3.907  12.960  0.00  0.00    +0.000 N 
ATOM     16  C   UNL     1       5.111   3.065  11.875  0.00  0.00    +0.000 C 
ATOM     17  C   UNL     1       3.897   3.109  10.986  0.00  0.00    +0.000 C 
ATOM     18  O   UNL     1       6.058   2.322  11.640  0.00  0.00    +0.000 OA
ATOM     19  H   UNL     1       4.263   4.525  13.078  0.00  0.00    +0.000 HD
ENDBRANCH  14  15
ENDBRANCH  13  14
ENDBRANCH   7  13
TORSDOF 4
ENDMDL
MODEL 2
REMARK VINA RESULT:      -6.8      3.679      5.079
REMARK  Name = 
REMARK  6 active torsions:
REMARK  status: ('A' for Active; 'I' for Inactive)
REMARK    1  A    between atoms: C_1  and  O_2
REMARK    2  A    between atoms: O_2  and  C_3
REMARK    3  A    between atoms: C_9  and  C_10
REMARK    4  A    between atoms: C_10  and  C_11
REMARK    5  A    between atoms: C_11  and  N_12
REMARK    6  A    between atoms: C_13  and  C_14
REMARK                            x       y       z     vdW  Elec       q    Type
REMARK                         _______ _______ _______ _____ _____    ______ ____
ROOT
ATOM      1  C   UNL     1       2.655   7.795  18.331  0.00  0.00    +0.000 A 
ATOM      2  C   UNL     1       2.237   7.386  19.554  0.00  0.00    +0.000 A 
ATOM      3  N   UNL     1       2.621   6.176  20.093  0.00  0.00    +0.000 N 
ATOM      4  C   UNL     1       3.442   5.337  19.391  0.00  0.00    +0.000 A 
ATOM      5  N   UNL     1       3.889   4.154  19.718  0.00  0.00    +0.000 NA
ATOM      6  C   UNL     1       4.679   3.765  18.641  0.00  0.00    +0.000 A 
ATOM      7  C   UNL     1       4.768   4.651  17.625  0.00  0.00    +0.000 A 
ATOM      8  C   UNL     1       3.946   5.745  18.047  0.00  0.00    +0.000 A 
ATOM      9  C   UNL     1       3.555   6.930  17.558  0.00  0.00    +0.000 A 
ATOM     10  H   UNL     1       2.282   5.887  21.000  0.00  0.00    +0.000 HD
ENDROOT
BRANCH   1  12
ATOM     11  C   UNL     1       1.187   9.660  18.131  0.00  0.00    +0.000 C 
ATOM     12  O   UNL     1       2.336   8.957  17.676  0.00  0.00    +0.000 OA
ENDBRANCH   1  12
BRANCH   7  13
ATOM     13  C   UNL     1       5.495   4.573  16.324  0.00  0.00    +0.000 C 
BRANCH  13  14
ATOM     14  C   UNL     1       6.992   4.881  16.433  0.00  0.00    +0.000 C 
BRANCH  14  15
ATOM     15  N   UNL     1       7.265   6.305  16.523  0.00  0.00    +0.000 N 
ATOM     16  C   UNL     1       7.581   6.904  17.719  0.00  0.00    +0.000 C 
ATOM     17  C   UNL     1       7.900   8.372  17.619  0.00  0.00    +0.000 C 
ATOM     18  O   UNL     1       7.619   6.306  18.789  0.00  0.00    +0.000 OA
ATOM     19  H   UNL     1       7.212   6.862  15.679  0.00  0.00    +0.000 HD
ENDBRANCH  14  15
ENDBRANCH  13  14
ENDBRANCH   7  13
TORSDOF 4
ENDMDL
MODEL 3
REMARK VINA RESULT:      -6.7      2.108      5.813
REMARK  Name = 
REMARK  6 active torsions:
REMARK  status: ('A' for Active; 'I' for Inactive)
REMARK    1  A    between atoms: C_1  and  O_2
REMARK    2  A    between atoms: O_2  and  C_3
REMARK    3  A    between atoms: C_9  and  C_10
REMARK    4  A    between atoms: C_10  and  C_11
REMARK    5  A    between atoms: C_11  and  N_12
REMARK    6  A    between atoms: C_13  and  C_14
REMARK                            x       y       z     vdW  Elec       q    Type
REMARK                         _______ _______ _______ _____ _____    ______ ____
ROOT
ATOM      1  C   UNL     1       6.296   4.740  15.255  0.00  0.00    +0.000 A 
ATOM      2  C   UNL     1       7.385   4.455  16.011  0.00  0.00    +0.000 A 
ATOM      3  N   UNL     1       7.327   4.403  17.389  0.00  0.00    +0.000 N 
ATOM      4  C   UNL     1       6.151   4.652  18.040  0.00  0.00    +0.000 A 
ATOM      5  N   UNL     1       5.906   4.675  19.323  0.00  0.00    +0.000 NA
ATOM      6  C   UNL     1       4.551   4.974  19.418  0.00  0.00    +0.000 A 
ATOM      7  C   UNL     1       3.902   5.144  18.246  0.00  0.00    +0.000 A 
ATOM      8  C   UNL     1       4.918   4.953  17.256  0.00  0.00    +0.000 A 
ATOM      9  C   UNL     1       5.012   4.991  15.919  0.00  0.00    +0.000 A 
ATOM     10  H   UNL     1       8.157   4.204  17.930  0.00  0.00    +0.000 HD
ENDROOT
BRANCH   1  12
ATOM     11  C   UNL     1       6.163   3.625  13.154  0.00  0.00    +0.000 C 
ATOM     12  O   UNL     1       6.221   4.840  13.889  0.00  0.00    +0.000 OA
ENDBRANCH   1  12
BRANCH   7  13
ATOM     13  C   UNL     1       2.476   5.485  17.961  0.00  0.00    +0.000 C 
BRANCH  13  14
ATOM     14  C   UNL     1       1.512   4.306  18.133  0.00  0.00    +0.000 C 
BRANCH  14  15
ATOM     15  N   UNL     1       1.261   3.988  19.528  0.00  0.00    +0.000 N 
ATOM     16  C   UNL     1       1.640   2.783  20.072  0.00  0.00    +0.000 C 
ATOM     17  C   UNL     1       1.364   2.648  21.546  0.00  0.00    +0.000 C 
ATOM     18  O   UNL     1       2.171   1.885  19.428  0.00  0.00    +0.000 OA
ATOM     19  H   UNL     1       0.791   4.675  20.103  0.00  0.00    +0.000 HD
ENDBRANCH  14  15
ENDBRANCH  13  14
ENDBRANCH   7  13
TORSDOF 4
ENDMDL
MODEL 4
REMARK VINA RESULT:      -6.7      1.613      5.889
REMARK  Name = 
REMARK  6 active torsions:
REMARK  status: ('A' for Active; 'I' for Inactive)
REMARK    1  A    between atoms: C_1  and  O_2
REMARK    2  A    between atoms: O_2  and  C_3
REMARK    3  A    between atoms: C_9  and  C_10
REMARK    4  A    between atoms: C_10  and  C_11
REMARK    5  A    between atoms: C_11  and  N_12
REMARK    6  A    between atoms: C_13  and  C_14
REMARK                            x       y       z     vdW  Elec       q    Type
REMARK                         _______ _______ _______ _____ _____    ______ ____
ROOT
ATOM      1  C   UNL     1       6.332   3.828  12.992  0.00  0.00    +0.000 A 
ATOM      2  C   UNL     1       7.395   4.668  12.951  0.00  0.00    +0.000 A 
ATOM      3  N   UNL     1       7.786   5.411  14.046  0.00  0.00    +0.000 N 
ATOM      4  C   UNL     1       7.092   5.325  15.221  0.00  0.00    +0.000 A 
ATOM      5  N   UNL     1       7.289   5.960  16.346  0.00  0.00    +0.000 NA
ATOM      6  C   UNL     1       6.297   5.486  17.197  0.00  0.00    +0.000 A 
ATOM      7  C   UNL     1       5.462   4.563  16.673  0.00  0.00    +0.000 A 
ATOM      8  C   UNL     1       5.924   4.403  15.327  0.00  0.00    +0.000 A 
ATOM      9  C   UNL     1       5.577   3.694  14.244  0.00  0.00    +0.000 A 
ATOM     10  H   UNL     1       8.573   6.042  13.985  0.00  0.00    +0.000 HD
ENDROOT
BRANCH   1  12
ATOM     11  C   UNL     1       4.463   3.242  11.636  0.00  0.00    +0.000 C 
ATOM     12  O   UNL     1       5.831   3.053  11.978  0.00  0.00    +0.000 OA
ENDBRANCH   1  12
BRANCH   7  13
ATOM     13  C   UNL     1       4.291   3.855  17.271  0.00  0.00    +0.000 C 
BRANCH  13  14
ATOM     14  C   UNL     1       3.113   4.779  17.601  0.00  0.00    +0.000 C 
BRANCH  14  15
ATOM     15  N   UNL     1       2.534   4.502  18.904  0.00  0.00    +0.000 N 
ATOM     16  C   UNL     1       1.487   3.625  19.056  0.00  0.00    +0.000 C 
ATOM     17  C   UNL     1       1.056   3.405  20.482  0.00  0.00    +0.000 C 
ATOM     18  O   UNL     1       0.942   3.049  18.120  0.00  0.00    +0.000 OA
ATOM     19  H   UNL     1       2.916   4.976  19.713  0.00  0.00    +0.000 HD
ENDBRANCH  14  15
ENDBRANCH  13  14
ENDBRANCH   7  13
TORSDOF 4
ENDMDL
MODEL 5
REMARK VINA RESULT:      -6.7      3.184      4.687
REMARK  Name = 
REMARK  6 active torsions:
REMARK  status: ('A' for Active; 'I' for Inactive)
REMARK    1  A    between atoms: C_1  and  O_2
REMARK    2  A    between atoms: O_2  and  C_3
REMARK    3  A    between atoms: C_9  and  C_10
REMARK    4  A    between atoms: C_10  and  C_11
REMARK    5  A    between atoms: C_11  and  N_12
REMARK    6  A    between atoms: C_13  and  C_14
REMARK                            x       y       z     vdW  Elec       q    Type
REMARK                         _______ _______ _______ _____ _____    ______ ____
ROOT
ATOM      1  C   UNL     1       2.343   6.235  19.741  0.00  0.00    +0.000 A 
ATOM      2  C   UNL     1       1.853   5.311  20.603  0.00  0.00    +0.000 A 
ATOM      3  N   UNL     1       2.034   3.957  20.407  0.00  0.00    +0.000 N 
ATOM      4  C   UNL     1       2.718   3.503  19.313  0.00  0.00    +0.000 A 
ATOM      5  N   UNL     1       2.967   2.275  18.946  0.00  0.00    +0.000 NA
ATOM      6  C   UNL     1       3.696   2.399  17.768  0.00  0.00    +0.000 A 
ATOM      7  C   UNL     1       3.934   3.663  17.354  0.00  0.00    +0.000 A 
ATOM      8  C   UNL     1       3.293   4.478  18.342  0.00  0.00    +0.000 A 
ATOM      9  C   UNL     1       3.100   5.785  18.567  0.00  0.00    +0.000 A 
ATOM     10  H   UNL     1       1.645   3.288  21.057  0.00  0.00    +0.000 HD
ENDROOT
BRANCH   1  12
ATOM     11  C   UNL     1       1.393   8.123  20.840  0.00  0.00    +0.000 C 
ATOM     12  O   UNL     1       2.219   7.599  19.807  0.00  0.00    +0.000 OA
ENDBRANCH   1  12
BRANCH   7  13
ATOM     13  C   UNL     1       4.652   4.175  16.150  0.00  0.00    +0.000 C 
BRANCH  13  14
ATOM     14  C   UNL     1       6.169   3.956  16.194  0.00  0.00    +0.000 C 
BRANCH  14  15
ATOM     15  N   UNL     1       6.763   4.412  17.439  0.00  0.00    +0.000 N 
ATOM     16  C   UNL     1       7.352   5.650  17.545  0.00  0.00    +0.000 C 
ATOM     17  C   UNL     1       7.855   5.988  18.923  0.00  0.00    +0.000 C 
ATOM     18  O   UNL     1       7.456   6.435  16.608  0.00  0.00    +0.000 OA
ATOM     19  H   UNL     1       6.742   3.794  18.240  0.00  0.00    +0.000 HD
ENDBRANCH  14  15
ENDBRANCH  13  14
ENDBRANCH   7  13
TORSDOF 4
ENDMDL
MODEL 6
REMARK VINA RESULT:      -6.6      3.220      6.416
REMARK  Name = 
REMARK  6 active torsions:
REMARK  status: ('A' for Active; 'I' for Inactive)
REMARK    1  A    between atoms: C_1  and  O_2
REMARK    2  A    between atoms: O_2  and  C_3
REMARK    3  A    between atoms: C_9  and  C_10
REMARK    4  A    between atoms: C_10  and  C_11
REMARK    5  A    between atoms: C_11  and  N_12
REMARK    6  A    between atoms: C_13  and  C_14
REMARK                            x       y       z     vdW  Elec       q    Type
REMARK                         _______ _______ _______ _____ _____    ______ ____
ROOT
ATOM      1  C   UNL     1       6.815   5.822  16.579  0.00  0.00    +0.000 A 
ATOM      2  C   UNL     1       7.060   4.549  16.181  0.00  0.00    +0.000 A 
ATOM      3  N   UNL     1       6.103   3.558  16.262  0.00  0.00    +0.000 N 
ATOM      4  C   UNL     1       4.862   3.837  16.766  0.00  0.00    +0.000 A 
ATOM      5  N   UNL     1       3.845   3.038  16.945  0.00  0.00    +0.000 NA
ATOM      6  C   UNL     1       2.849   3.848  17.478  0.00  0.00    +0.000 A 
ATOM      7  C   UNL     1       3.176   5.147  17.651  0.00  0.00    +0.000 A 
ATOM      8  C   UNL     1       4.534   5.225  17.203  0.00  0.00    +0.000 A 
ATOM      9  C   UNL     1       5.488   6.161  17.104  0.00  0.00    +0.000 A 
ATOM     10  H   UNL     1       6.316   2.614  15.973  0.00  0.00    +0.000 HD
ENDROOT
BRANCH   1  12
ATOM     11  C   UNL     1       7.486   7.882  17.569  0.00  0.00    +0.000 C 
ATOM     12  O   UNL     1       7.677   6.888  16.569  0.00  0.00    +0.000 OA
ENDBRANCH   1  12
BRANCH   7  13
ATOM     13  C   UNL     1       2.386   6.287  18.205  0.00  0.00    +0.000 C 
BRANCH  13  14
ATOM     14  C   UNL     1       2.643   6.553  19.692  0.00  0.00    +0.000 C 
BRANCH  14  15
ATOM     15  N   UNL     1       2.935   5.338  20.434  0.00  0.00    +0.000 N 
ATOM     16  C   UNL     1       1.941   4.466  20.811  0.00  0.00    +0.000 C 
ATOM     17  C   UNL     1       2.428   3.227  21.512  0.00  0.00    +0.000 C 
ATOM     18  O   UNL     1       0.750   4.660  20.591  0.00  0.00    +0.000 OA
ATOM     19  H   UNL     1       3.897   5.141  20.679  0.00  0.00    +0.000 HD
ENDBRANCH  14  15
ENDBRANCH  13  14
ENDBRANCH   7  13
TORSDOF 4
ENDMDL
MODEL 7
REMARK VINA RESULT:      -6.6      1.167      1.274
REMARK  Name = 
REMARK  6 active torsions:
REMARK  status: ('A' for Active; 'I' for Inactive)
REMARK    1  A    between atoms: C_1  and  O_2
REMARK    2  A    between atoms: O_2  and  C_3
REMARK    3  A    between atoms: C_9  and  C_10
REMARK    4  A    between atoms: C_10  and  C_11
REMARK    5  A    between atoms: C_11  and  N_12
REMARK    6  A    between atoms: C_13  and  C_14
REMARK                            x       y       z     vdW  Elec       q    Type
REMARK                         _______ _______ _______ _____ _____    ______ ____
ROOT
ATOM      1  C   UNL     1       3.345   3.924  18.573  0.00  0.00    +0.000 A 
ATOM      2  C   UNL     1       4.260   4.128  19.553  0.00  0.00    +0.000 A 
ATOM      3  N   UNL     1       5.587   4.381  19.276  0.00  0.00    +0.000 N 
ATOM      4  C   UNL     1       6.026   4.425  17.981  0.00  0.00    +0.000 A 
ATOM      5  N   UNL     1       7.233   4.623  17.525  0.00  0.00    +0.000 NA
ATOM      6  C   UNL     1       7.101   4.569  16.142  0.00  0.00    +0.000 A 
ATOM      7  C   UNL     1       5.852   4.348  15.678  0.00  0.00    +0.000 A 
ATOM      8  C   UNL     1       5.058   4.225  16.863  0.00  0.00    +0.000 A 
ATOM      9  C   UNL     1       3.776   3.986  17.172  0.00  0.00    +0.000 A 
ATOM     10  H   UNL     1       6.252   4.514  20.025  0.00  0.00    +0.000 HD
ENDROOT
BRANCH   1  12
ATOM     11  C   UNL     1       1.636   2.275  18.753  0.00  0.00    +0.000 C 
ATOM     12  O   UNL     1       2.009   3.647  18.711  0.00  0.00    +0.000 OA
ENDBRANCH   1  12
BRANCH   7  13
ATOM     13  C   UNL     1       5.339   4.211  14.282  0.00  0.00    +0.000 C 
BRANCH  13  14
ATOM     14  C   UNL     1       6.442   4.193  13.217  0.00  0.00    +0.000 C 
BRANCH  14  15
ATOM     15  N   UNL     1       6.598   2.889  12.596  0.00  0.00    +0.000 N 
ATOM     16  C   UNL     1       5.668   2.396  11.712  0.00  0.00    +0.000 C 
ATOM     17  C   UNL     1       6.021   1.061  11.112  0.00  0.00    +0.000 C 
ATOM     18  O   UNL     1       4.635   2.987  11.414  0.00  0.00    +0.000 OA
ATOM     19  H   UNL     1       7.412   2.336  12.831  0.00  0.00    +0.000 HD
ENDBRANCH  14  15
ENDBRANCH  13  14
ENDBRANCH   7  13
TORSDOF 4
ENDMDL
MODEL 8
REMARK VINA RESULT:      -6.6      1.737      1.876
REMARK  Name = 
REMARK  6 active torsions:
REMARK  status: ('A' for Active; 'I' for Inactive)
REMARK    1  A    between atoms: C_1  and  O_2
REMARK    2  A    between atoms: O_2  and  C_3
REMARK    3  A    between atoms: C_9  and  C_10
REMARK    4  A    between atoms: C_10  and  C_11
REMARK    5  A    between atoms: C_11  and  N_12
REMARK    6  A    between atoms: C_13  and  C_14
REMARK                            x       y       z     vdW  Elec       q    Type
REMARK                         _______ _______ _______ _____ _____    ______ ____
ROOT
ATOM      1  C   UNL     1       2.295   3.855  17.865  0.00  0.00    +0.000 A 
ATOM      2  C   UNL     1       2.102   5.061  18.453  0.00  0.00    +0.000 A 
ATOM      3  N   UNL     1       2.974   6.114  18.269  0.00  0.00    +0.000 N 
ATOM      4  C   UNL     1       4.081   5.964  17.481  0.00  0.00    +0.000 A 
ATOM      5  N   UNL     1       5.025   6.825  17.209  0.00  0.00    +0.000 NA
ATOM      6  C   UNL     1       5.890   6.145  16.361  0.00  0.00    +0.000 A 
ATOM      7  C   UNL     1       5.546   4.872  16.065  0.00  0.00    +0.000 A 
ATOM      8  C   UNL     1       4.332   4.663  16.795  0.00  0.00    +0.000 A 
ATOM      9  C   UNL     1       3.461   3.665  16.995  0.00  0.00    +0.000 A 
ATOM     10  H   UNL     1       2.816   6.999  18.732  0.00  0.00    +0.000 HD
ENDROOT
BRANCH   1  12
ATOM     11  C   UNL     1       0.770   2.579  19.176  0.00  0.00    +0.000 C 
ATOM     12  O   UNL     1       1.522   2.728  17.979  0.00  0.00    +0.000 OA
ENDBRANCH   1  12
BRANCH   7  13
ATOM     13  C   UNL     1       6.229   3.849  15.218  0.00  0.00    +0.000 C 
BRANCH  13  14
ATOM     14  C   UNL     1       6.206   4.171  13.720  0.00  0.00    +0.000 C 
BRANCH  14  15
ATOM     15  N   UNL     1       6.481   3.007  12.895  0.00  0.00    +0.000 N 
ATOM     16  C   UNL     1       5.635   2.627  11.879  0.00  0.00    +0.000 C 
ATOM     17  C   UNL     1       6.106   1.441  11.083  0.00  0.00    +0.000 C 
ATOM     18  O   UNL     1       4.583   3.203  11.621  0.00  0.00    +0.000 OA
ATOM     19  H   UNL     1       7.315   2.467  13.083  0.00  0.00    +0.000 HD
ENDBRANCH  14  15
ENDBRANCH  13  14
ENDBRANCH   7  13
TORSDOF 4
ENDMDL
MODEL 9
REMARK VINA RESULT:      -6.5      1.899      6.085
REMARK  Name = 
REMARK  6 active torsions:
REMARK  status: ('A' for Active; 'I' for Inactive)
REMARK    1  A    between atoms: C_1  and  O_2
REMARK    2  A    between atoms: O_2  and  C_3
REMARK    3  A    between atoms: C_9  and  C_10
REMARK    4  A    between atoms: C_10  and  C_11
REMARK    5  A    between atoms: C_11  and  N_12
REMARK    6  A    between atoms: C_13  and  C_14
REMARK                            x       y       z     vdW  Elec       q    Type
REMARK                         _______ _______ _______ _____ _____    ______ ____
ROOT
ATOM      1  C   UNL     1       6.230   4.217  14.141  0.00  0.00    +0.000 A 
ATOM      2  C   UNL     1       7.297   4.991  14.457  0.00  0.00    +0.000 A 
ATOM      3  N   UNL     1       7.369   5.692  15.644  0.00  0.00    +0.000 N 
ATOM      4  C   UNL     1       6.342   5.629  16.545  0.00  0.00    +0.000 A 
ATOM      5  N   UNL     1       6.216   6.233  17.697  0.00  0.00    +0.000 NA
ATOM      6  C   UNL     1       4.987   5.807  18.186  0.00  0.00    +0.000 A 
ATOM      7  C   UNL     1       4.307   4.944  17.400  0.00  0.00    +0.000 A 
ATOM      8  C   UNL     1       5.152   4.778  16.256  0.00  0.00    +0.000 A 
ATOM      9  C   UNL     1       5.120   4.109  15.095  0.00  0.00    +0.000 A 
ATOM     10  H   UNL     1       8.168   6.275  15.848  0.00  0.00    +0.000 HD
ENDROOT
BRANCH   1  12
ATOM     11  C   UNL     1       6.917   3.724  11.914  0.00  0.00    +0.000 C 
ATOM     12  O   UNL     1       6.025   3.489  12.997  0.00  0.00    +0.000 OA
ENDBRANCH   1  12
BRANCH   7  13
ATOM     13  C   UNL     1       2.972   4.300  17.585  0.00  0.00    +0.000 C 
BRANCH  13  14
ATOM     14  C   UNL     1       3.046   2.874  18.141  0.00  0.00    +0.000 C 
BRANCH  14  15
ATOM     15  N   UNL     1       2.852   2.824  19.580  0.00  0.00    +0.000 N 
ATOM     16  C   UNL     1       1.598   2.741  20.136  0.00  0.00    +0.000 C 
ATOM     17  C   UNL     1       1.584   2.631  21.637  0.00  0.00    +0.000 C 
ATOM     18  O   UNL     1       0.562   2.744  19.478  0.00  0.00    +0.000 OA
ATOM     19  H   UNL     1       3.667   2.857  20.179  0.00  0.00    +0.000 HD
ENDBRANCH  14  15
ENDBRANCH  13  14
ENDBRANCH   7  13
TORSDOF 4
ENDMDL
