MODEL 1
REMARK VINA RESULT:      -8.9      0.000      0.000
REMARK  Name = 
REMARK  9 active torsions:
REMARK  status: ('A' for Active; 'I' for Inactive)
REMARK    1  A    between atoms: C_1  and  C_2
REMARK    2  A    between atoms: C_2  and  C_3
REMARK    3  A    between atoms: C_2  and  O_4
REMARK    4  A    between atoms: O_4  and  C_5
REMARK    5  A    between atoms: C_8  and  C_9
REMARK    6  A    between atoms: C_11  and  C_12
REMARK    7  A    between atoms: C_20  and  N_21
REMARK    8  A    between atoms: C_28  and  O_29
REMARK    9  A    between atoms: C_34  and  C_35
REMARK                            x       y       z     vdW  Elec       q    Type
REMARK                         _______ _______ _______ _____ _____    ______ ____
ROOT
ATOM      1  C   UNL     1       0.759   8.636  21.002  0.00  0.00    +0.000 A 
ATOM      2  C   UNL     1       0.631   8.856  22.383  0.00  0.00    +0.000 A 
ATOM      3  C   UNL     1      -0.025   9.994  22.882  0.00  0.00    +0.000 A 
ATOM      4  C   UNL     1      -0.568  10.942  22.012  0.00  0.00    +0.000 A 
ATOM      5  C   UNL     1      -0.427  10.741  20.647  0.00  0.00    +0.000 A 
ATOM      6  C   UNL     1       0.227   9.604  20.146  0.00  0.00    +0.000 A 
ATOM      7  C   UNL     1       0.249   9.651  18.644  0.00  0.00    +0.000 C 
ATOM      8  C   UNL     1      -0.006  11.141  18.371  0.00  0.00    +0.000 C 
ATOM      9  C   UNL     1      -0.847  11.675  19.544  0.00  0.00    +0.000 C 
ENDROOT
BRANCH   9  10
ATOM     10  N   UNL     1      -2.267  11.616  19.266  0.00  0.00    +0.000 N 
ATOM     11  C   UNL     1      -3.108  12.545  19.819  0.00  0.00    +0.000 C 
ATOM     12  O   UNL     1      -2.689  13.379  20.619  0.00  0.00    +0.000 OA
ATOM     13  N   UNL     1      -4.445  12.475  19.462  0.00  0.00    +0.000 N 
ATOM     14  C   UNL     1      -5.050  11.492  18.562  0.00  0.00    +0.000 C 
ATOM     15  C   UNL     1      -6.214  12.078  17.760  0.00  0.00    +0.000 C 
ATOM     16  C   UNL     1      -7.219  12.827  18.635  0.00  0.00    +0.000 C 
ATOM     17  C   UNL     1      -6.522  13.840  19.540  0.00  0.00    +0.000 C 
ATOM     18  C   UNL     1      -5.400  13.174  20.341  0.00  0.00    +0.000 C 
ATOM     19  H   UNL     1      -2.543  11.108  18.446  0.00  0.00    +0.000 HD
BRANCH  17  20
ATOM     20  O   UNL     1      -5.990  14.894  18.735  0.00  0.00    +0.000 OA
ATOM     21  H   UNL     1      -6.754  15.372  18.359  0.00  0.00    +0.000 HD
ENDBRANCH  17  20
ENDBRANCH   9  10
BRANCH   1  24
ATOM     22  C   UNL     1       2.726   6.275  19.319  0.00  0.00    +0.000 A 
ATOM     23  N   UNL     1       2.273   7.505  19.401  0.00  0.00    +0.000 NA
ATOM     24  C   UNL     1       1.446   7.452  20.498  0.00  0.00    +0.000 A 
ATOM     25  N   UNL     1       1.349   6.228  21.046  0.00  0.00    +0.000 NA
ATOM     26  O   UNL     1       2.216   5.448  20.271  0.00  0.00    +0.000 OA
BRANCH  22  30
ATOM     27  C   UNL     1       5.469   4.708  16.408  0.00  0.00    +0.000 A 
ATOM     28  C   UNL     1       4.211   4.108  16.580  0.00  0.00    +0.000 A 
ATOM     29  C   UNL     1       3.282   4.608  17.513  0.00  0.00    +0.000 A 
ATOM     30  C   UNL     1       3.606   5.707  18.310  0.00  0.00    +0.000 A 
ATOM     31  C   UNL     1       4.850   6.309  18.126  0.00  0.00    +0.000 A 
ATOM     32  C   UNL     1       5.758   5.854  17.155  0.00  0.00    +0.000 A 
BRANCH  32  33
ATOM     33  C   UNL     1       6.909   6.676  16.966  0.00  0.00    +0.000 C 
ATOM     34  N   UNL     1       7.877   7.292  16.810  0.00  0.00    +0.000 NA
ENDBRANCH  32  33
BRANCH  27  35
ATOM     35  O   UNL     1       6.252   4.128  15.442  0.00  0.00    +0.000 OA
BRANCH  35  37
ATOM     36  C   UNL     1       7.548   5.207  13.720  0.00  0.00    +0.000 C 
ATOM     37  C   UNL     1       6.186   4.626  14.092  0.00  0.00    +0.000 C 
ATOM     38  C   UNL     1       5.856   3.475  13.141  0.00  0.00    +0.000 C 
ENDBRANCH  35  37
ENDBRANCH  27  35
ENDBRANCH  22  30
ENDBRANCH   1  24
TORSDOF 7
ENDMDL
MODEL 2
REMARK VINA RESULT:      -8.7      2.409      3.054
REMARK  Name = 
REMARK  9 active torsions:
REMARK  status: ('A' for Active; 'I' for Inactive)
REMARK    1  A    between atoms: C_1  and  C_2
REMARK    2  A    between atoms: C_2  and  C_3
REMARK    3  A    between atoms: C_2  and  O_4
REMARK    4  A    between atoms: O_4  and  C_5
REMARK    5  A    between atoms: C_8  and  C_9
REMARK    6  A    between atoms: C_11  and  C_12
REMARK    7  A    between atoms: C_20  and  N_21
REMARK    8  A    between atoms: C_28  and  O_29
REMARK    9  A    between atoms: C_34  and  C_35
REMARK                            x       y       z     vdW  Elec       q    Type
REMARK                         _______ _______ _______ _____ _____    ______ ____
ROOT
ATOM      1  C   UNL     1       0.432   9.689  20.867  0.00  0.00    +0.000 A 
ATOM      2  C   UNL     1       0.482   8.875  22.010  0.00  0.00    +0.000 A 
ATOM      3  C   UNL     1      -0.138   9.264  23.210  0.00  0.00    +0.000 A 
ATOM      4  C   UNL     1      -0.821  10.479  23.296  0.00  0.00    +0.000 A 
ATOM      5  C   UNL     1      -0.857  11.297  22.178  0.00  0.00    +0.000 A 
ATOM      6  C   UNL     1      -0.240  10.910  20.977  0.00  0.00    +0.000 A 
ATOM      7  C   UNL     1      -0.419  11.986  19.944  0.00  0.00    +0.000 C 
ATOM      8  C   UNL     1      -0.754  13.207  20.813  0.00  0.00    +0.000 C 
ATOM      9  C   UNL     1      -1.449  12.678  22.080  0.00  0.00    +0.000 C 
ENDROOT
BRANCH   9  10
ATOM     10  N   UNL     1      -2.891  12.664  21.945  0.00  0.00    +0.000 N 
ATOM     11  C   UNL     1      -3.679  12.879  23.045  0.00  0.00    +0.000 C 
ATOM     12  O   UNL     1      -3.185  12.997  24.163  0.00  0.00    +0.000 OA
ATOM     13  N   UNL     1      -5.049  12.920  22.838  0.00  0.00    +0.000 N 
ATOM     14  C   UNL     1      -5.737  12.738  21.558  0.00  0.00    +0.000 C 
ATOM     15  C   UNL     1      -7.013  13.578  21.461  0.00  0.00    +0.000 C 
ATOM     16  C   UNL     1      -7.916  13.425  22.684  0.00  0.00    +0.000 C 
ATOM     17  C   UNL     1      -7.138  13.636  23.980  0.00  0.00    +0.000 C 
ATOM     18  C   UNL     1      -5.901  12.734  24.026  0.00  0.00    +0.000 C 
ATOM     19  H   UNL     1      -3.256  12.813  21.023  0.00  0.00    +0.000 HD
BRANCH  17  20
ATOM     20  O   UNL     1      -6.747  15.008  24.071  0.00  0.00    +0.000 OA
ATOM     21  H   UNL     1      -6.567  15.185  25.014  0.00  0.00    +0.000 HD
ENDBRANCH  17  20
ENDBRANCH   9  10
BRANCH   1  24
ATOM     22  C   UNL     1       2.223   8.111  18.302  0.00  0.00    +0.000 A 
ATOM     23  N   UNL     1       1.895   8.167  19.573  0.00  0.00    +0.000 NA
ATOM     24  C   UNL     1       1.083   9.275  19.629  0.00  0.00    +0.000 A 
ATOM     25  N   UNL     1       0.950   9.911  18.452  0.00  0.00    +0.000 NA
ATOM     26  O   UNL     1       1.694   9.125  17.564  0.00  0.00    +0.000 OA
BRANCH  22  30
ATOM     27  C   UNL     1       4.763   5.198  16.429  0.00  0.00    +0.000 A 
ATOM     28  C   UNL     1       4.925   6.562  16.134  0.00  0.00    +0.000 A 
ATOM     29  C   UNL     1       4.120   7.543  16.743  0.00  0.00    +0.000 A 
ATOM     30  C   UNL     1       3.120   7.175  17.646  0.00  0.00    +0.000 A 
ATOM     31  C   UNL     1       2.974   5.820  17.947  0.00  0.00    +0.000 A 
ATOM     32  C   UNL     1       3.813   4.842  17.389  0.00  0.00    +0.000 A 
BRANCH  32  33
ATOM     33  C   UNL     1       3.656   3.529  17.926  0.00  0.00    +0.000 C 
ATOM     34  N   UNL     1       3.553   2.441  18.309  0.00  0.00    +0.000 NA
ENDBRANCH  32  33
BRANCH  27  35
ATOM     35  O   UNL     1       5.640   4.366  15.779  0.00  0.00    +0.000 OA
BRANCH  35  37
ATOM     36  C   UNL     1       7.683   4.931  14.630  0.00  0.00    +0.000 C 
ATOM     37  C   UNL     1       6.171   4.764  14.501  0.00  0.00    +0.000 C 
ATOM     38  C   UNL     1       5.875   3.677  13.466  0.00  0.00    +0.000 C 
ENDBRANCH  35  37
ENDBRANCH  27  35
ENDBRANCH  22  30
ENDBRANCH   1  24
TORSDOF 7
ENDMDL
MODEL 3
REMARK VINA RESULT:      -8.4      1.118      1.219
REMARK  Name = 
REMARK  9 active torsions:
REMARK  status: ('A' for Active; 'I' for Inactive)
REMARK    1  A    between atoms: C_1  and  C_2
REMARK    2  A    between atoms: C_2  and  C_3
REMARK    3  A    between atoms: C_2  and  O_4
REMARK    4  A    between atoms: O_4  and  C_5
REMARK    5  A    between atoms: C_8  and  C_9
REMARK    6  A    between atoms: C_11  and  C_12
REMARK    7  A    between atoms: C_20  and  N_21
REMARK    8  A    between atoms: C_28  and  O_29
REMARK    9  A    between atoms: C_34  and  C_35
REMARK                            x       y       z     vdW  Elec       q    Type
REMARK                         _______ _______ _______ _____ _____    ______ ____
ROOT
ATOM      1  C   UNL     1       1.240   8.415  20.582  0.00  0.00    +0.000 A 
ATOM      2  C   UNL     1       1.008   8.405  21.967  0.00  0.00    +0.000 A 
ATOM      3  C   UNL     1       0.245   9.409  22.586  0.00  0.00    +0.000 A 
ATOM      4  C   UNL     1      -0.303  10.451  21.836  0.00  0.00    +0.000 A 
ATOM      5  C   UNL     1      -0.061  10.479  20.471  0.00  0.00    +0.000 A 
ATOM      6  C   UNL     1       0.700   9.476  19.849  0.00  0.00    +0.000 A 
ATOM      7  C   UNL     1       0.816   9.764  18.379  0.00  0.00    +0.000 C 
ATOM      8  C   UNL     1       0.479  11.261  18.322  0.00  0.00    +0.000 C 
ATOM      9  C   UNL     1      -0.471  11.552  19.497  0.00  0.00    +0.000 C 
ENDROOT
BRANCH   9  10
ATOM     10  N   UNL     1      -1.863  11.457  19.108  0.00  0.00    +0.000 N 
ATOM     11  C   UNL     1      -2.796  12.253  19.719  0.00  0.00    +0.000 C 
ATOM     12  O   UNL     1      -2.485  12.986  20.654  0.00  0.00    +0.000 OA
ATOM     13  N   UNL     1      -4.099  12.163  19.256  0.00  0.00    +0.000 N 
ATOM     14  C   UNL     1      -4.579  11.286  18.187  0.00  0.00    +0.000 C 
ATOM     15  C   UNL     1      -5.722  11.917  17.387  0.00  0.00    +0.000 C 
ATOM     16  C   UNL     1      -6.828  12.480  18.279  0.00  0.00    +0.000 C 
ATOM     17  C   UNL     1      -6.258  13.390  19.363  0.00  0.00    +0.000 C 
ATOM     18  C   UNL     1      -5.153  12.679  20.148  0.00  0.00    +0.000 C 
ATOM     19  H   UNL     1      -2.051  11.056  18.208  0.00  0.00    +0.000 HD
BRANCH  17  20
ATOM     20  O   UNL     1      -5.741  14.575  18.752  0.00  0.00    +0.000 OA
ATOM     21  H   UNL     1      -5.682  14.393  17.795  0.00  0.00    +0.000 HD
ENDBRANCH  17  20
ENDBRANCH   9  10
BRANCH   1  24
ATOM     22  C   UNL     1       3.474   6.470  18.710  0.00  0.00    +0.000 A 
ATOM     23  N   UNL     1       2.938   7.645  18.952  0.00  0.00    +0.000 NA
ATOM     24  C   UNL     1       2.037   7.368  19.953  0.00  0.00    +0.000 A 
ATOM     25  N   UNL     1       1.979   6.067  20.286  0.00  0.00    +0.000 NA
ATOM     26  O   UNL     1       2.949   5.472  19.471  0.00  0.00    +0.000 OA
BRANCH  22  30
ATOM     27  C   UNL     1       6.479   5.332  15.860  0.00  0.00    +0.000 A 
ATOM     28  C   UNL     1       5.337   6.030  15.433  0.00  0.00    +0.000 A 
ATOM     29  C   UNL     1       4.342   6.433  16.345  0.00  0.00    +0.000 A 
ATOM     30  C   UNL     1       4.461   6.123  17.701  0.00  0.00    +0.000 A 
ATOM     31  C   UNL     1       5.604   5.444  18.122  0.00  0.00    +0.000 A 
ATOM     32  C   UNL     1       6.629   5.092  17.228  0.00  0.00    +0.000 A 
BRANCH  32  33
ATOM     33  C   UNL     1       7.808   4.561  17.833  0.00  0.00    +0.000 C 
ATOM     34  N   UNL     1       8.749   4.075  18.300  0.00  0.00    +0.000 NA
ENDBRANCH  32  33
BRANCH  27  35
ATOM     35  O   UNL     1       7.372   5.035  14.861  0.00  0.00    +0.000 OA
BRANCH  35  37
ATOM     36  C   UNL     1       8.144   5.640  12.660  0.00  0.00    +0.000 C 
ATOM     37  C   UNL     1       6.957   5.156  13.488  0.00  0.00    +0.000 C 
ATOM     38  C   UNL     1       6.509   3.789  12.969  0.00  0.00    +0.000 C 
ENDBRANCH  35  37
ENDBRANCH  27  35
ENDBRANCH  22  30
ENDBRANCH   1  24
TORSDOF 7
ENDMDL
MODEL 4
REMARK VINA RESULT:      -8.1      1.047      1.220
REMARK  Name = 
REMARK  9 active torsions:
REMARK  status: ('A' for Active; 'I' for Inactive)
REMARK    1  A    between atoms: C_1  and  C_2
REMARK    2  A    between atoms: C_2  and  C_3
REMARK    3  A    between atoms: C_2  and  O_4
REMARK    4  A    between atoms: O_4  and  C_5
REMARK    5  A    between atoms: C_8  and  C_9
REMARK    6  A    between atoms: C_11  and  C_12
REMARK    7  A    between atoms: C_20  and  N_21
REMARK    8  A    between atoms: C_28  and  O_29
REMARK    9  A    between atoms: C_34  and  C_35
REMARK                            x       y       z     vdW  Elec       q    Type
REMARK                         _______ _______ _______ _____ _____    ______ ____
ROOT
ATOM      1  C   UNL     1       0.626   8.901  21.064  0.00  0.00    +0.000 A 
ATOM      2  C   UNL     1       0.375   8.879  22.446  0.00  0.00    +0.000 A 
ATOM      3  C   UNL     1      -0.427   9.859  23.057  0.00  0.00    +0.000 A 
ATOM      4  C   UNL     1      -0.994  10.886  22.301  0.00  0.00    +0.000 A 
ATOM      5  C   UNL     1      -0.733  10.927  20.940  0.00  0.00    +0.000 A 
ATOM      6  C   UNL     1       0.066   9.948  20.326  0.00  0.00    +0.000 A 
ATOM      7  C   UNL     1       0.195  10.244  18.859  0.00  0.00    +0.000 C 
ATOM      8  C   UNL     1      -0.185  11.731  18.801  0.00  0.00    +0.000 C 
ATOM      9  C   UNL     1      -1.160  11.990  19.964  0.00  0.00    +0.000 C 
ENDROOT
BRANCH   9  10
ATOM     10  N   UNL     1      -2.543  11.856  19.554  0.00  0.00    +0.000 N 
ATOM     11  C   UNL     1      -3.464  12.788  19.953  0.00  0.00    +0.000 C 
ATOM     12  O   UNL     1      -3.154  13.692  20.727  0.00  0.00    +0.000 OA
ATOM     13  N   UNL     1      -4.756  12.641  19.474  0.00  0.00    +0.000 N 
ATOM     14  C   UNL     1      -5.236  11.574  18.594  0.00  0.00    +0.000 C 
ATOM     15  C   UNL     1      -6.333  12.057  17.641  0.00  0.00    +0.000 C 
ATOM     16  C   UNL     1      -7.443  12.825  18.357  0.00  0.00    +0.000 C 
ATOM     17  C   UNL     1      -6.873  13.925  19.248  0.00  0.00    +0.000 C 
ATOM     18  C   UNL     1      -5.816  13.362  20.202  0.00  0.00    +0.000 C 
ATOM     19  H   UNL     1      -2.719  11.282  18.751  0.00  0.00    +0.000 HD
BRANCH  17  20
ATOM     20  O   UNL     1      -6.297  14.941  18.424  0.00  0.00    +0.000 OA
ATOM     21  H   UNL     1      -5.329  14.873  18.531  0.00  0.00    +0.000 HD
ENDBRANCH  17  20
ENDBRANCH   9  10
BRANCH   1  24
ATOM     22  C   UNL     1       2.936   7.027  19.212  0.00  0.00    +0.000 A 
ATOM     23  N   UNL     1       2.358   8.183  19.445  0.00  0.00    +0.000 NA
ATOM     24  C   UNL     1       1.462   7.880  20.444  0.00  0.00    +0.000 A 
ATOM     25  N   UNL     1       1.449   6.579  20.783  0.00  0.00    +0.000 NA
ATOM     26  O   UNL     1       2.443   6.015  19.975  0.00  0.00    +0.000 OA
BRANCH  22  30
ATOM     27  C   UNL     1       5.989   5.979  16.378  0.00  0.00    +0.000 A 
ATOM     28  C   UNL     1       4.838   6.660  15.949  0.00  0.00    +0.000 A 
ATOM     29  C   UNL     1       3.827   7.033  16.855  0.00  0.00    +0.000 A 
ATOM     30  C   UNL     1       3.939   6.711  18.208  0.00  0.00    +0.000 A 
ATOM     31  C   UNL     1       5.091   6.048  18.633  0.00  0.00    +0.000 A 
ATOM     32  C   UNL     1       6.131   5.726  17.745  0.00  0.00    +0.000 A 
BRANCH  32  33
ATOM     33  C   UNL     1       7.313   5.210  18.356  0.00  0.00    +0.000 C 
ATOM     34  N   UNL     1       8.237   4.749  18.879  0.00  0.00    +0.000 NA
ENDBRANCH  32  33
BRANCH  27  35
ATOM     35  O   UNL     1       6.897   5.710  15.386  0.00  0.00    +0.000 OA
BRANCH  35  37
ATOM     36  C   UNL     1       5.655   3.654  15.190  0.00  0.00    +0.000 C 
ATOM     37  C   UNL     1       6.933   4.393  14.804  0.00  0.00    +0.000 C 
ATOM     38  C   UNL     1       7.002   4.511  13.281  0.00  0.00    +0.000 C 
ENDBRANCH  35  37
ENDBRANCH  27  35
ENDBRANCH  22  30
ENDBRANCH   1  24
TORSDOF 7
ENDMDL
MODEL 5
REMARK VINA RESULT:      -8.1      2.135      2.941
REMARK  Name = 
REMARK  9 active torsions:
REMARK  status: ('A' for Active; 'I' for Inactive)
REMARK    1  A    between atoms: C_1  and  C_2
REMARK    2  A    between atoms: C_2  and  C_3
REMARK    3  A    between atoms: C_2  and  O_4
REMARK    4  A    between atoms: O_4  and  C_5
REMARK    5  A    between atoms: C_8  and  C_9
REMARK    6  A    between atoms: C_11  and  C_12
REMARK    7  A    between atoms: C_20  and  N_21
REMARK    8  A    between atoms: C_28  and  O_29
REMARK    9  A    between atoms: C_34  and  C_35
REMARK                            x       y       z     vdW  Elec       q    Type
REMARK                         _______ _______ _______ _____ _____    ______ ____
ROOT
ATOM      1  C   UNL     1       0.425  10.764  20.273  0.00  0.00    +0.000 A 
ATOM      2  C   UNL     1       1.149  11.781  20.918  0.00  0.00    +0.000 A 
ATOM      3  C   UNL     1       0.614  13.071  21.072  0.00  0.00    +0.000 A 
ATOM      4  C   UNL     1      -0.657  13.378  20.583  0.00  0.00    +0.000 A 
ATOM      5  C   UNL     1      -1.369  12.385  19.927  0.00  0.00    +0.000 A 
ATOM      6  C   UNL     1      -0.837  11.094  19.773  0.00  0.00    +0.000 A 
ATOM      7  C   UNL     1      -1.807  10.233  19.015  0.00  0.00    +0.000 C 
ATOM      8  C   UNL     1      -2.699  11.282  18.334  0.00  0.00    +0.000 C 
ATOM      9  C   UNL     1      -2.703  12.524  19.244  0.00  0.00    +0.000 C 
ENDROOT
BRANCH   9  10
ATOM     10  N   UNL     1      -3.815  12.515  20.172  0.00  0.00    +0.000 N 
ATOM     11  C   UNL     1      -4.297  13.698  20.668  0.00  0.00    +0.000 C 
ATOM     12  O   UNL     1      -3.745  14.764  20.405  0.00  0.00    +0.000 OA
ATOM     13  N   UNL     1      -5.404  13.627  21.499  0.00  0.00    +0.000 N 
ATOM     14  C   UNL     1      -6.098  12.406  21.913  0.00  0.00    +0.000 C 
ATOM     15  C   UNL     1      -7.601  12.629  22.098  0.00  0.00    +0.000 C 
ATOM     16  C   UNL     1      -7.916  13.851  22.960  0.00  0.00    +0.000 C 
ATOM     17  C   UNL     1      -7.167  15.086  22.468  0.00  0.00    +0.000 C 
ATOM     18  C   UNL     1      -5.667  14.803  22.348  0.00  0.00    +0.000 C 
ATOM     19  H   UNL     1      -4.389  11.693  20.176  0.00  0.00    +0.000 HD
BRANCH  17  20
ATOM     20  O   UNL     1      -7.696  15.477  21.198  0.00  0.00    +0.000 OA
ATOM     21  H   UNL     1      -7.381  16.386  21.032  0.00  0.00    +0.000 HD
ENDBRANCH  17  20
ENDBRANCH   9  10
BRANCH   1  24
ATOM     22  C   UNL     1       2.074   7.841  19.266  0.00  0.00    +0.000 A 
ATOM     23  N   UNL     1       1.691   9.067  18.989  0.00  0.00    +0.000 NA
ATOM     24  C   UNL     1       0.994   9.431  20.117  0.00  0.00    +0.000 A 
ATOM     25  N   UNL     1       0.904   8.455  21.038  0.00  0.00    +0.000 NA
ATOM     26  O   UNL     1       1.639   7.402  20.478  0.00  0.00    +0.000 OA
BRANCH  22  30
ATOM     27  C   UNL     1       4.097   4.967  16.796  0.00  0.00    +0.000 A 
ATOM     28  C   UNL     1       4.499   6.313  16.779  0.00  0.00    +0.000 A 
ATOM     29  C   UNL     1       3.868   7.277  17.589  0.00  0.00    +0.000 A 
ATOM     30  C   UNL     1       2.805   6.914  18.418  0.00  0.00    +0.000 A 
ATOM     31  C   UNL     1       2.419   5.574  18.444  0.00  0.00    +0.000 A 
ATOM     32  C   UNL     1       3.083   4.596  17.683  0.00  0.00    +0.000 A 
BRANCH  32  33
ATOM     33  C   UNL     1       2.690   3.250  17.948  0.00  0.00    +0.000 C 
ATOM     34  N   UNL     1       2.341   2.158  18.109  0.00  0.00    +0.000 NA
ENDBRANCH  32  33
BRANCH  27  35
ATOM     35  O   UNL     1       4.825   4.143  15.976  0.00  0.00    +0.000 OA
BRANCH  35  37
ATOM     36  C   UNL     1       7.215   4.401  16.154  0.00  0.00    +0.000 C 
ATOM     37  C   UNL     1       5.981   4.670  15.297  0.00  0.00    +0.000 C 
ATOM     38  C   UNL     1       6.144   3.966  13.950  0.00  0.00    +0.000 C 
ENDBRANCH  35  37
ENDBRANCH  27  35
ENDBRANCH  22  30
ENDBRANCH   1  24
TORSDOF 7
ENDMDL
MODEL 6
REMARK VINA RESULT:      -8.0      2.229      3.292
REMARK  Name = 
REMARK  9 active torsions:
REMARK  status: ('A' for Active; 'I' for Inactive)
REMARK    1  A    between atoms: C_1  and  C_2
REMARK    2  A    between atoms: C_2  and  C_3
REMARK    3  A    between atoms: C_2  and  O_4
REMARK    4  A    between atoms: O_4  and  C_5
REMARK    5  A    between atoms: C_8  and  C_9
REMARK    6  A    between atoms: C_11  and  C_12
REMARK    7  A    between atoms: C_20  and  N_21
REMARK    8  A    between atoms: C_28  and  O_29
REMARK    9  A    between atoms: C_34  and  C_35
REMARK                            x       y       z     vdW  Elec       q    Type
REMARK                         _______ _______ _______ _____ _____    ______ ____
ROOT
ATOM      1  C   UNL     1       0.852  10.764  18.704  0.00  0.00    +0.000 A 
ATOM      2  C   UNL     1       1.655  11.912  18.602  0.00  0.00    +0.000 A 
ATOM      3  C   UNL     1       1.086  13.187  18.439  0.00  0.00    +0.000 A 
ATOM      4  C   UNL     1      -0.299  13.344  18.369  0.00  0.00    +0.000 A 
ATOM      5  C   UNL     1      -1.097  12.213  18.447  0.00  0.00    +0.000 A 
ATOM      6  C   UNL     1      -0.532  10.938  18.612  0.00  0.00    +0.000 A 
ATOM      7  C   UNL     1      -1.619   9.902  18.648  0.00  0.00    +0.000 C 
ATOM      8  C   UNL     1      -2.791  10.649  17.995  0.00  0.00    +0.000 C 
ATOM      9  C   UNL     1      -2.593  12.145  18.299  0.00  0.00    +0.000 C 
ENDROOT
BRANCH   9  10
ATOM     10  N   UNL     1      -3.297  12.555  19.496  0.00  0.00    +0.000 N 
ATOM     11  C   UNL     1      -4.664  12.472  19.545  0.00  0.00    +0.000 C 
ATOM     12  O   UNL     1      -5.311  12.136  18.556  0.00  0.00    +0.000 OA
ATOM     13  N   UNL     1      -5.273  12.816  20.741  0.00  0.00    +0.000 N 
ATOM     14  C   UNL     1      -4.597  13.278  21.955  0.00  0.00    +0.000 C 
ATOM     15  C   UNL     1      -5.314  12.821  23.228  0.00  0.00    +0.000 C 
ATOM     16  C   UNL     1      -6.814  13.111  23.198  0.00  0.00    +0.000 C 
ATOM     17  C   UNL     1      -7.455  12.597  21.912  0.00  0.00    +0.000 C 
ATOM     18  C   UNL     1      -6.712  13.128  20.682  0.00  0.00    +0.000 C 
ATOM     19  H   UNL     1      -2.761  12.584  20.344  0.00  0.00    +0.000 HD
BRANCH  17  20
ATOM     20  O   UNL     1      -7.432  11.168  21.919  0.00  0.00    +0.000 OA
ATOM     21  H   UNL     1      -7.861  10.877  21.092  0.00  0.00    +0.000 HD
ENDBRANCH  17  20
ENDBRANCH   9  10
BRANCH   1  24
ATOM     22  C   UNL     1       2.569   7.723  18.417  0.00  0.00    +0.000 A 
ATOM     23  N   UNL     1       2.151   8.834  17.854  0.00  0.00    +0.000 NA
ATOM     24  C   UNL     1       1.455   9.446  18.870  0.00  0.00    +0.000 A 
ATOM     25  N   UNL     1       1.401   8.724  20.003  0.00  0.00    +0.000 NA
ATOM     26  O   UNL     1       2.158   7.585  19.707  0.00  0.00    +0.000 OA
BRANCH  22  30
ATOM     27  C   UNL     1       4.639   4.381  16.686  0.00  0.00    +0.000 A 
ATOM     28  C   UNL     1       5.046   5.691  16.384  0.00  0.00    +0.000 A 
ATOM     29  C   UNL     1       4.400   6.808  16.948  0.00  0.00    +0.000 A 
ATOM     30  C   UNL     1       3.316   6.634  17.810  0.00  0.00    +0.000 A 
ATOM     31  C   UNL     1       2.926   5.331  18.120  0.00  0.00    +0.000 A 
ATOM     32  C   UNL     1       3.604   4.212  17.609  0.00  0.00    +0.000 A 
BRANCH  32  33
ATOM     33  C   UNL     1       3.200   2.956  18.153  0.00  0.00    +0.000 C 
ATOM     34  N   UNL     1       2.923   1.912  18.570  0.00  0.00    +0.000 NA
ENDBRANCH  32  33
BRANCH  27  35
ATOM     35  O   UNL     1       5.384   3.398  16.084  0.00  0.00    +0.000 OA
BRANCH  35  37
ATOM     36  C   UNL     1       5.717   4.262  13.859  0.00  0.00    +0.000 C 
ATOM     37  C   UNL     1       6.399   3.770  15.132  0.00  0.00    +0.000 C 
ATOM     38  C   UNL     1       7.251   4.899  15.712  0.00  0.00    +0.000 C 
ENDBRANCH  35  37
ENDBRANCH  27  35
ENDBRANCH  22  30
ENDBRANCH   1  24
TORSDOF 7
ENDMDL
MODEL 7
REMARK VINA RESULT:      -8.0      2.277      3.332
REMARK  Name = 
REMARK  9 active torsions:
REMARK  status: ('A' for Active; 'I' for Inactive)
REMARK    1  A    between atoms: C_1  and  C_2
REMARK    2  A    between atoms: C_2  and  C_3
REMARK    3  A    between atoms: C_2  and  O_4
REMARK    4  A    between atoms: O_4  and  C_5
REMARK    5  A    between atoms: C_8  and  C_9
REMARK    6  A    between atoms: C_11  and  C_12
REMARK    7  A    between atoms: C_20  and  N_21
REMARK    8  A    between atoms: C_28  and  O_29
REMARK    9  A    between atoms: C_34  and  C_35
REMARK                            x       y       z     vdW  Elec       q    Type
REMARK                         _______ _______ _______ _____ _____    ______ ____
ROOT
ATOM      1  C   UNL     1       0.591  11.108  20.161  0.00  0.00    +0.000 A 
ATOM      2  C   UNL     1       1.471  12.140  20.528  0.00  0.00    +0.000 A 
ATOM      3  C   UNL     1       1.029  13.470  20.635  0.00  0.00    +0.000 A 
ATOM      4  C   UNL     1      -0.302  13.801  20.374  0.00  0.00    +0.000 A 
ATOM      5  C   UNL     1      -1.171  12.791  19.991  0.00  0.00    +0.000 A 
ATOM      6  C   UNL     1      -0.732  11.461  19.885  0.00  0.00    +0.000 A 
ATOM      7  C   UNL     1      -1.869  10.586  19.439  0.00  0.00    +0.000 C 
ATOM      8  C   UNL     1      -2.838  11.610  18.831  0.00  0.00    +0.000 C 
ATOM      9  C   UNL     1      -2.609  12.939  19.573  0.00  0.00    +0.000 C 
ENDROOT
BRANCH   9  10
ATOM     10  N   UNL     1      -3.508  13.097  20.698  0.00  0.00    +0.000 N 
ATOM     11  C   UNL     1      -4.847  12.860  20.536  0.00  0.00    +0.000 C 
ATOM     12  O   UNL     1      -5.313  12.599  19.429  0.00  0.00    +0.000 OA
ATOM     13  N   UNL     1      -5.645  12.963  21.664  0.00  0.00    +0.000 N 
ATOM     14  C   UNL     1      -5.197  13.319  23.012  0.00  0.00    +0.000 C 
ATOM     15  C   UNL     1      -6.009  12.612  24.100  0.00  0.00    +0.000 C 
ATOM     16  C   UNL     1      -7.517  12.738  23.888  0.00  0.00    +0.000 C 
ATOM     17  C   UNL     1      -7.915  12.345  22.468  0.00  0.00    +0.000 C 
ATOM     18  C   UNL     1      -7.093  13.122  21.436  0.00  0.00    +0.000 C 
ATOM     19  H   UNL     1      -3.095  13.064  21.611  0.00  0.00    +0.000 HD
BRANCH  17  20
ATOM     20  O   UNL     1      -7.711  10.940  22.300  0.00  0.00    +0.000 OA
ATOM     21  H   UNL     1      -7.570  10.569  23.192  0.00  0.00    +0.000 HD
ENDBRANCH  17  20
ENDBRANCH   9  10
BRANCH   1  24
ATOM     22  C   UNL     1       2.088   8.060  19.296  0.00  0.00    +0.000 A 
ATOM     23  N   UNL     1       1.832   9.312  18.991  0.00  0.00    +0.000 NA
ATOM     24  C   UNL     1       1.064   9.733  20.051  0.00  0.00    +0.000 A 
ATOM     25  N   UNL     1       0.810   8.769  20.954  0.00  0.00    +0.000 NA
ATOM     26  O   UNL     1       1.507   7.660  20.460  0.00  0.00    +0.000 OA
BRANCH  22  30
ATOM     27  C   UNL     1       4.128   5.015  17.058  0.00  0.00    +0.000 A 
ATOM     28  C   UNL     1       4.393   6.370  16.800  0.00  0.00    +0.000 A 
ATOM     29  C   UNL     1       3.754   7.392  17.528  0.00  0.00    +0.000 A 
ATOM     30  C   UNL     1       2.819   7.076  18.514  0.00  0.00    +0.000 A 
ATOM     31  C   UNL     1       2.570   5.729  18.777  0.00  0.00    +0.000 A 
ATOM     32  C   UNL     1       3.248   4.704  18.097  0.00  0.00    +0.000 A 
BRANCH  32  33
ATOM     33  C   UNL     1       3.016   3.387  18.597  0.00  0.00    +0.000 C 
ATOM     34  N   UNL     1       2.793   2.343  19.046  0.00  0.00    +0.000 NA
ENDBRANCH  32  33
BRANCH  27  35
ATOM     35  O   UNL     1       4.849   4.136  16.289  0.00  0.00    +0.000 OA
BRANCH  35  37
ATOM     36  C   UNL     1       7.245   4.377  16.394  0.00  0.00    +0.000 C 
ATOM     37  C   UNL     1       5.992   4.617  15.556  0.00  0.00    +0.000 C 
ATOM     38  C   UNL     1       6.114   3.847  14.241  0.00  0.00    +0.000 C 
ENDBRANCH  35  37
ENDBRANCH  27  35
ENDBRANCH  22  30
ENDBRANCH   1  24
TORSDOF 7
ENDMDL
MODEL 8
REMARK VINA RESULT:      -8.0      1.516      1.985
REMARK  Name = 
REMARK  9 active torsions:
REMARK  status: ('A' for Active; 'I' for Inactive)
REMARK    1  A    between atoms: C_1  and  C_2
REMARK    2  A    between atoms: C_2  and  C_3
REMARK    3  A    between atoms: C_2  and  O_4
REMARK    4  A    between atoms: O_4  and  C_5
REMARK    5  A    between atoms: C_8  and  C_9
REMARK    6  A    between atoms: C_11  and  C_12
REMARK    7  A    between atoms: C_20  and  N_21
REMARK    8  A    between atoms: C_28  and  O_29
REMARK    9  A    between atoms: C_34  and  C_35
REMARK                            x       y       z     vdW  Elec       q    Type
REMARK                         _______ _______ _______ _____ _____    ______ ____
ROOT
ATOM      1  C   UNL     1       0.269   9.260  21.270  0.00  0.00    +0.000 A 
ATOM      2  C   UNL     1       0.081   9.526  22.637  0.00  0.00    +0.000 A 
ATOM      3  C   UNL     1      -0.618  10.667  23.067  0.00  0.00    +0.000 A 
ATOM      4  C   UNL     1      -1.143  11.571  22.142  0.00  0.00    +0.000 A 
ATOM      5  C   UNL     1      -0.944  11.326  20.792  0.00  0.00    +0.000 A 
ATOM      6  C   UNL     1      -0.247  10.185  20.359  0.00  0.00    +0.000 A 
ATOM      7  C   UNL     1      -0.164  10.180  18.859  0.00  0.00    +0.000 C 
ATOM      8  C   UNL     1      -0.437  11.653  18.521  0.00  0.00    +0.000 C 
ATOM      9  C   UNL     1      -1.336  12.210  19.640  0.00  0.00    +0.000 C 
ENDROOT
BRANCH   9  10
ATOM     10  N   UNL     1      -2.743  12.111  19.308  0.00  0.00    +0.000 N 
ATOM     11  C   UNL     1      -3.623  13.043  19.790  0.00  0.00    +0.000 C 
ATOM     12  O   UNL     1      -3.253  13.915  20.573  0.00  0.00    +0.000 OA
ATOM     13  N   UNL     1      -4.943  12.932  19.382  0.00  0.00    +0.000 N 
ATOM     14  C   UNL     1      -5.491  11.902  18.498  0.00  0.00    +0.000 C 
ATOM     15  C   UNL     1      -6.633  12.434  17.627  0.00  0.00    +0.000 C 
ATOM     16  C   UNL     1      -7.686  13.194  18.432  0.00  0.00    +0.000 C 
ATOM     17  C   UNL     1      -7.047  14.255  19.323  0.00  0.00    +0.000 C 
ATOM     18  C   UNL     1      -5.946  13.643  20.195  0.00  0.00    +0.000 C 
ATOM     19  H   UNL     1      -2.975  11.567  18.498  0.00  0.00    +0.000 HD
BRANCH  17  20
ATOM     20  O   UNL     1      -6.503  15.289  18.500  0.00  0.00    +0.000 OA
ATOM     21  H   UNL     1      -5.549  15.103  18.412  0.00  0.00    +0.000 HD
ENDBRANCH  17  20
ENDBRANCH   9  10
BRANCH   1  24
ATOM     22  C   UNL     1       2.232   6.845  19.660  0.00  0.00    +0.000 A 
ATOM     23  N   UNL     1       1.676   8.035  19.641  0.00  0.00    +0.000 NA
ATOM     24  C   UNL     1       0.999   8.074  20.837  0.00  0.00    +0.000 A 
ATOM     25  N   UNL     1       1.089   6.936  21.549  0.00  0.00    +0.000 NA
ATOM     26  O   UNL     1       1.925   6.125  20.773  0.00  0.00    +0.000 OA
BRANCH  22  30
ATOM     27  C   UNL     1       4.504   4.799  16.643  0.00  0.00    +0.000 A 
ATOM     28  C   UNL     1       4.540   6.202  16.718  0.00  0.00    +0.000 A 
ATOM     29  C   UNL     1       3.820   6.902  17.705  0.00  0.00    +0.000 A 
ATOM     30  C   UNL     1       3.031   6.210  18.625  0.00  0.00    +0.000 A 
ATOM     31  C   UNL     1       3.011   4.816  18.558  0.00  0.00    +0.000 A 
ATOM     32  C   UNL     1       3.773   4.109  17.613  0.00  0.00    +0.000 A 
BRANCH  32  33
ATOM     33  C   UNL     1       3.785   2.691  17.781  0.00  0.00    +0.000 C 
ATOM     34  N   UNL     1       3.765   1.537  17.863  0.00  0.00    +0.000 NA
ENDBRANCH  32  33
BRANCH  27  35
ATOM     35  O   UNL     1       5.279   4.260  15.648  0.00  0.00    +0.000 OA
BRANCH  35  37
ATOM     36  C   UNL     1       7.395   5.071  14.827  0.00  0.00    +0.000 C 
ATOM     37  C   UNL     1       6.704   4.164  15.841  0.00  0.00    +0.000 C 
ATOM     38  C   UNL     1       7.058   4.631  17.253  0.00  0.00    +0.000 C 
ENDBRANCH  35  37
ENDBRANCH  27  35
ENDBRANCH  22  30
ENDBRANCH   1  24
TORSDOF 7
ENDMDL
MODEL 9
REMARK VINA RESULT:      -7.9      2.010      2.594
REMARK  Name = 
REMARK  9 active torsions:
REMARK  status: ('A' for Active; 'I' for Inactive)
REMARK    1  A    between atoms: C_1  and  C_2
REMARK    2  A    between atoms: C_2  and  C_3
REMARK    3  A    between atoms: C_2  and  O_4
REMARK    4  A    between atoms: O_4  and  C_5
REMARK    5  A    between atoms: C_8  and  C_9
REMARK    6  A    between atoms: C_11  and  C_12
REMARK    7  A    between atoms: C_20  and  N_21
REMARK    8  A    between atoms: C_28  and  O_29
REMARK    9  A    between atoms: C_34  and  C_35
REMARK                            x       y       z     vdW  Elec       q    Type
REMARK                         _______ _______ _______ _____ _____    ______ ____
ROOT
ATOM      1  C   UNL     1       0.340   9.803  20.793  0.00  0.00    +0.000 A 
ATOM      2  C   UNL     1       0.324   8.990  21.939  0.00  0.00    +0.000 A 
ATOM      3  C   UNL     1      -0.346   9.391  23.107  0.00  0.00    +0.000 A 
ATOM      4  C   UNL     1      -1.013  10.616  23.160  0.00  0.00    +0.000 A 
ATOM      5  C   UNL     1      -0.984  11.433  22.041  0.00  0.00    +0.000 A 
ATOM      6  C   UNL     1      -0.317  11.034  20.870  0.00  0.00    +0.000 A 
ATOM      7  C   UNL     1      -0.431  12.111  19.829  0.00  0.00    +0.000 C 
ATOM      8  C   UNL     1      -0.788  13.338  20.679  0.00  0.00    +0.000 C 
ATOM      9  C   UNL     1      -1.549  12.822  21.914  0.00  0.00    +0.000 C 
ENDROOT
BRANCH   9  10
ATOM     10  N   UNL     1      -2.983  12.830  21.712  0.00  0.00    +0.000 N 
ATOM     11  C   UNL     1      -3.618  14.001  21.393  0.00  0.00    +0.000 C 
ATOM     12  O   UNL     1      -3.004  15.065  21.361  0.00  0.00    +0.000 OA
ATOM     13  N   UNL     1      -4.981  13.930  21.147  0.00  0.00    +0.000 N 
ATOM     14  C   UNL     1      -5.810  12.726  21.211  0.00  0.00    +0.000 C 
ATOM     15  C   UNL     1      -6.951  12.752  20.190  0.00  0.00    +0.000 C 
ATOM     16  C   UNL     1      -7.741  14.059  20.219  0.00  0.00    +0.000 C 
ATOM     17  C   UNL     1      -6.817  15.271  20.140  0.00  0.00    +0.000 C 
ATOM     18  C   UNL     1      -5.730  15.198  21.216  0.00  0.00    +0.000 C 
ATOM     19  H   UNL     1      -3.411  11.948  21.501  0.00  0.00    +0.000 HD
BRANCH  17  20
ATOM     20  O   UNL     1      -6.219  15.317  18.842  0.00  0.00    +0.000 OA
ATOM     21  H   UNL     1      -6.851  15.779  18.260  0.00  0.00    +0.000 HD
ENDBRANCH  17  20
ENDBRANCH   9  10
BRANCH   1  24
ATOM     22  C   UNL     1       2.221   8.190  18.316  0.00  0.00    +0.000 A 
ATOM     23  N   UNL     1       1.834   8.253  19.569  0.00  0.00    +0.000 NA
ATOM     24  C   UNL     1       1.042   9.376  19.588  0.00  0.00    +0.000 A 
ATOM     25  N   UNL     1       0.978  10.015  18.406  0.00  0.00    +0.000 NA
ATOM     26  O   UNL     1       1.749   9.215  17.555  0.00  0.00    +0.000 OA
BRANCH  22  30
ATOM     27  C   UNL     1       4.781   5.231  16.543  0.00  0.00    +0.000 A 
ATOM     28  C   UNL     1       5.070   6.596  16.380  0.00  0.00    +0.000 A 
ATOM     29  C   UNL     1       4.261   7.591  16.963  0.00  0.00    +0.000 A 
ATOM     30  C   UNL     1       3.131   7.237  17.702  0.00  0.00    +0.000 A 
ATOM     31  C   UNL     1       2.857   5.880  17.875  0.00  0.00    +0.000 A 
ATOM     32  C   UNL     1       3.693   4.882  17.347  0.00  0.00    +0.000 A 
BRANCH  32  33
ATOM     33  C   UNL     1       3.380   3.550  17.754  0.00  0.00    +0.000 C 
ATOM     34  N   UNL     1       3.070   2.477  18.061  0.00  0.00    +0.000 NA
ENDBRANCH  32  33
BRANCH  27  35
ATOM     35  O   UNL     1       5.676   4.382  15.943  0.00  0.00    +0.000 OA
BRANCH  35  37
ATOM     36  C   UNL     1       7.680   4.875  14.696  0.00  0.00    +0.000 C 
ATOM     37  C   UNL     1       6.166   4.695  14.625  0.00  0.00    +0.000 C 
ATOM     38  C   UNL     1       5.843   3.540  13.675  0.00  0.00    +0.000 C 
ENDBRANCH  35  37
ENDBRANCH  27  35
ENDBRANCH  22  30
ENDBRANCH   1  24
TORSDOF 7
ENDMDL
