MODEL 1
REMARK VINA RESULT:      -7.6      0.000      0.000
REMARK  Name = 
REMARK  8 active torsions:
REMARK  status: ('A' for Active; 'I' for Inactive)
REMARK    1  A    between atoms: C_1  and  C_2
REMARK    2  A    between atoms: C_2  and  C_3
REMARK    3  A    between atoms: C_6  and  C_7
REMARK    4  A    between atoms: C_10  and  C_12
REMARK    5  A    between atoms: C_12  and  C_13
REMARK    6  A    between atoms: C_13  and  O_14
REMARK    7  A    between atoms: O_14  and  C_15
REMARK    8  A    between atoms: C_15  and  C_16
REMARK                            x       y       z     vdW  Elec       q    Type
REMARK                         _______ _______ _______ _____ _____    ______ ____
ROOT
ATOM      1  C   UNL     1       6.738   5.099  15.867  0.00  0.00    +0.000 C 
ATOM      2  C   UNL     1       5.242   5.215  16.203  0.00  0.00    +0.000 C 
ATOM      3  N   UNL     1       5.072   5.674  17.587  0.00  0.00    +0.000 N 
ATOM      4  C   UNL     1       4.326   5.070  18.581  0.00  0.00    +0.000 C 
ATOM      5  O   UNL     1       4.209   5.589  19.693  0.00  0.00    +0.000 OA
ATOM      6  C   UNL     1       5.810   6.907  17.883  0.00  0.00    +0.000 C 
ATOM      7  C   UNL     1       7.283   6.729  17.503  0.00  0.00    +0.000 C 
ATOM      8  O   UNL     1       7.420   6.348  16.120  0.00  0.00    +0.000 OA
ENDROOT
BRANCH   1  12
ATOM      9  C   UNL     1       6.970   3.924  12.502  0.00  0.00    +0.000 A 
ATOM     10  N   UNL     1       7.789   4.975  12.375  0.00  0.00    +0.000 NA
ATOM     11  N   UNL     1       7.753   5.487  13.615  0.00  0.00    +0.000 N 
ATOM     12  C   UNL     1       6.933   4.768  14.434  0.00  0.00    +0.000 A 
ATOM     13  N   UNL     1       6.410   3.771  13.746  0.00  0.00    +0.000 NA
ATOM     14  H   UNL     1       8.306   6.300  13.857  0.00  0.00    +0.000 HD
BRANCH   9  16
ATOM     15  C   UNL     1       5.408   2.248  11.553  0.00  0.00    +0.000 C 
ATOM     16  C   UNL     1       6.750   2.949  11.406  0.00  0.00    +0.000 C 
ENDBRANCH   9  16
ENDBRANCH   1  12
BRANCH   4  17
ATOM     17  C   UNL     1       3.672   3.731  18.300  0.00  0.00    +0.000 C 
BRANCH  17  18
ATOM     18  C   UNL     1       2.215   3.907  17.892  0.00  0.00    +0.000 C 
BRANCH  18  19
ATOM     19  O   UNL     1       1.420   2.933  18.564  0.00  0.00    +0.000 OA
BRANCH  19  20
ATOM     20  C   UNL     1       1.979   2.518  19.816  0.00  0.00    +0.000 C 
BRANCH  20  21
ATOM     21  C   UNL     1       1.422   3.299  21.011  0.00  0.00    +0.000 C 
ATOM     22  F   UNL     1       0.871   2.511  21.958  0.00  0.00    +0.000 F 
ATOM     23  F   UNL     1       2.399   4.027  21.604  0.00  0.00    +0.000 F 
ATOM     24  F   UNL     1       0.468   4.174  20.606  0.00  0.00    +0.000 F 
ENDBRANCH  20  21
ENDBRANCH  19  20
ENDBRANCH  18  19
ENDBRANCH  17  18
ENDBRANCH   4  17
TORSDOF 7
ENDMDL
MODEL 2
REMARK VINA RESULT:      -7.4      1.030      1.290
REMARK  Name = 
REMARK  8 active torsions:
REMARK  status: ('A' for Active; 'I' for Inactive)
REMARK    1  A    between atoms: C_1  and  C_2
REMARK    2  A    between atoms: C_2  and  C_3
REMARK    3  A    between atoms: C_6  and  C_7
REMARK    4  A    between atoms: C_10  and  C_12
REMARK    5  A    between atoms: C_12  and  C_13
REMARK    6  A    between atoms: C_13  and  O_14
REMARK    7  A    between atoms: O_14  and  C_15
REMARK    8  A    between atoms: C_15  and  C_16
REMARK                            x       y       z     vdW  Elec       q    Type
REMARK                         _______ _______ _______ _____ _____    ______ ____
ROOT
ATOM      1  C   UNL     1       6.417   4.535  16.248  0.00  0.00    +0.000 C 
ATOM      2  C   UNL     1       5.372   5.617  16.569  0.00  0.00    +0.000 C 
ATOM      3  N   UNL     1       5.167   5.702  18.019  0.00  0.00    +0.000 N 
ATOM      4  C   UNL     1       3.967   5.618  18.699  0.00  0.00    +0.000 C 
ATOM      5  O   UNL     1       3.916   5.770  19.921  0.00  0.00    +0.000 OA
ATOM      6  C   UNL     1       6.413   5.888  18.771  0.00  0.00    +0.000 C 
ATOM      7  C   UNL     1       7.414   4.794  18.386  0.00  0.00    +0.000 C 
ATOM      8  O   UNL     1       7.648   4.782  16.964  0.00  0.00    +0.000 OA
ENDROOT
BRANCH   1  12
ATOM      9  C   UNL     1       6.966   4.114  12.744  0.00  0.00    +0.000 A 
ATOM     10  N   UNL     1       7.744   5.189  12.913  0.00  0.00    +0.000 NA
ATOM     11  N   UNL     1       7.588   5.423  14.226  0.00  0.00    +0.000 N 
ATOM     12  C   UNL     1       6.739   4.524  14.800  0.00  0.00    +0.000 A 
ATOM     13  N   UNL     1       6.316   3.684  13.874  0.00  0.00    +0.000 NA
ATOM     14  H   UNL     1       8.084   6.178  14.681  0.00  0.00    +0.000 HD
BRANCH   9  16
ATOM     15  C   UNL     1       5.797   2.320  11.493  0.00  0.00    +0.000 C 
ATOM     16  C   UNL     1       6.876   3.393  11.451  0.00  0.00    +0.000 C 
ENDBRANCH   9  16
ENDBRANCH   1  12
BRANCH   4  17
ATOM     17  C   UNL     1       2.703   5.300  17.924  0.00  0.00    +0.000 C 
BRANCH  17  18
ATOM     18  C   UNL     1       2.429   3.801  17.911  0.00  0.00    +0.000 C 
BRANCH  18  19
ATOM     19  O   UNL     1       1.134   3.557  18.454  0.00  0.00    +0.000 OA
BRANCH  19  20
ATOM     20  C   UNL     1       1.041   3.870  19.849  0.00  0.00    +0.000 C 
BRANCH  20  21
ATOM     21  C   UNL     1       1.673   2.800  20.748  0.00  0.00    +0.000 C 
ATOM     22  F   UNL     1       2.917   3.116  21.165  0.00  0.00    +0.000 F 
ATOM     23  F   UNL     1       0.913   2.594  21.851  0.00  0.00    +0.000 F 
ATOM     24  F   UNL     1       1.753   1.615  20.094  0.00  0.00    +0.000 F 
ENDBRANCH  20  21
ENDBRANCH  19  20
ENDBRANCH  18  19
ENDBRANCH  17  18
ENDBRANCH   4  17
TORSDOF 7
ENDMDL
MODEL 3
REMARK VINA RESULT:      -7.3      1.889      2.134
REMARK  Name = 
REMARK  8 active torsions:
REMARK  status: ('A' for Active; 'I' for Inactive)
REMARK    1  A    between atoms: C_1  and  C_2
REMARK    2  A    between atoms: C_2  and  C_3
REMARK    3  A    between atoms: C_6  and  C_7
REMARK    4  A    between atoms: C_10  and  C_12
REMARK    5  A    between atoms: C_12  and  C_13
REMARK    6  A    between atoms: C_13  and  O_14
REMARK    7  A    between atoms: O_14  and  C_15
REMARK    8  A    between atoms: C_15  and  C_16
REMARK                            x       y       z     vdW  Elec       q    Type
REMARK                         _______ _______ _______ _____ _____    ______ ____
ROOT
ATOM      1  C   UNL     1       6.015   4.617  16.629  0.00  0.00    +0.000 C 
ATOM      2  C   UNL     1       5.062   5.793  16.905  0.00  0.00    +0.000 C 
ATOM      3  N   UNL     1       4.688   5.813  18.324  0.00  0.00    +0.000 N 
ATOM      4  C   UNL     1       3.411   5.829  18.851  0.00  0.00    +0.000 C 
ATOM      5  O   UNL     1       3.225   5.911  20.066  0.00  0.00    +0.000 OA
ATOM      6  C   UNL     1       5.844   5.805  19.228  0.00  0.00    +0.000 C 
ATOM      7  C   UNL     1       6.760   4.627  18.883  0.00  0.00    +0.000 C 
ATOM      8  O   UNL     1       7.167   4.674  17.502  0.00  0.00    +0.000 OA
ENDROOT
BRANCH   1  12
ATOM      9  C   UNL     1       6.947   4.352  13.192  0.00  0.00    +0.000 A 
ATOM     10  N   UNL     1       7.814   5.312  13.532  0.00  0.00    +0.000 NA
ATOM     11  N   UNL     1       7.523   5.481  14.832  0.00  0.00    +0.000 N 
ATOM     12  C   UNL     1       6.512   4.657  15.233  0.00  0.00    +0.000 A 
ATOM     13  N   UNL     1       6.116   3.934  14.202  0.00  0.00    +0.000 NA
ATOM     14  H   UNL     1       8.040   6.141  15.398  0.00  0.00    +0.000 HD
BRANCH   9  16
ATOM     15  C   UNL     1       5.797   2.731  11.708  0.00  0.00    +0.000 C 
ATOM     16  C   UNL     1       6.938   3.728  11.846  0.00  0.00    +0.000 C 
ENDBRANCH   9  16
ENDBRANCH   1  12
BRANCH   4  17
ATOM     17  C   UNL     1       2.226   5.709  17.911  0.00  0.00    +0.000 C 
BRANCH  17  18
ATOM     18  C   UNL     1       1.597   4.325  17.995  0.00  0.00    +0.000 C 
BRANCH  18  19
ATOM     19  O   UNL     1       2.313   3.433  17.143  0.00  0.00    +0.000 OA
BRANCH  19  20
ATOM     20  C   UNL     1       2.316   2.082  17.621  0.00  0.00    +0.000 C 
BRANCH  20  21
ATOM     21  C   UNL     1       3.355   1.837  18.722  0.00  0.00    +0.000 C 
ATOM     22  F   UNL     1       2.857   1.970  19.969  0.00  0.00    +0.000 F 
ATOM     23  F   UNL     1       3.873   0.588  18.622  0.00  0.00    +0.000 F 
ATOM     24  F   UNL     1       4.390   2.705  18.604  0.00  0.00    +0.000 F 
ENDBRANCH  20  21
ENDBRANCH  19  20
ENDBRANCH  18  19
ENDBRANCH  17  18
ENDBRANCH   4  17
TORSDOF 7
ENDMDL
MODEL 4
REMARK VINA RESULT:      -7.2      1.212      1.494
REMARK  Name = 
REMARK  8 active torsions:
REMARK  status: ('A' for Active; 'I' for Inactive)
REMARK    1  A    between atoms: C_1  and  C_2
REMARK    2  A    between atoms: C_2  and  C_3
REMARK    3  A    between atoms: C_6  and  C_7
REMARK    4  A    between atoms: C_10  and  C_12
REMARK    5  A    between atoms: C_12  and  C_13
REMARK    6  A    between atoms: C_13  and  O_14
REMARK    7  A    between atoms: O_14  and  C_15
REMARK    8  A    between atoms: C_15  and  C_16
REMARK                            x       y       z     vdW  Elec       q    Type
REMARK                         _______ _______ _______ _____ _____    ______ ____
ROOT
ATOM      1  C   UNL     1       6.275   4.459  15.391  0.00  0.00    +0.000 C 
ATOM      2  C   UNL     1       4.953   4.485  16.178  0.00  0.00    +0.000 C 
ATOM      3  N   UNL     1       5.171   5.073  17.505  0.00  0.00    +0.000 N 
ATOM      4  C   UNL     1       4.843   4.520  18.727  0.00  0.00    +0.000 C 
ATOM      5  O   UNL     1       5.019   5.143  19.776  0.00  0.00    +0.000 OA
ATOM      6  C   UNL     1       5.820   6.388  17.457  0.00  0.00    +0.000 C 
ATOM      7  C   UNL     1       7.113   6.294  16.641  0.00  0.00    +0.000 C 
ATOM      8  O   UNL     1       6.857   5.780  15.319  0.00  0.00    +0.000 OA
ENDROOT
BRANCH   1  12
ATOM      9  C   UNL     1       5.299   3.311  12.153  0.00  0.00    +0.000 A 
ATOM     10  N   UNL     1       6.622   3.272  11.959  0.00  0.00    +0.000 NA
ATOM     11  N   UNL     1       7.075   3.702  13.147  0.00  0.00    +0.000 N 
ATOM     12  C   UNL     1       6.052   3.994  14.001  0.00  0.00    +0.000 A 
ATOM     13  N   UNL     1       4.906   3.766  13.387  0.00  0.00    +0.000 NA
ATOM     14  H   UNL     1       8.068   3.762  13.333  0.00  0.00    +0.000 HD
BRANCH   9  16
ATOM     15  C   UNL     1       3.571   3.976  10.503  0.00  0.00    +0.000 C 
ATOM     16  C   UNL     1       4.331   2.823  11.141  0.00  0.00    +0.000 C 
ENDBRANCH   9  16
ENDBRANCH   1  12
BRANCH   4  17
ATOM     17  C   UNL     1       4.288   3.109  18.771  0.00  0.00    +0.000 C 
BRANCH  17  18
ATOM     18  C   UNL     1       2.813   3.086  18.393  0.00  0.00    +0.000 C 
BRANCH  18  19
ATOM     19  O   UNL     1       2.133   2.142  19.216  0.00  0.00    +0.000 OA
BRANCH  19  20
ATOM     20  C   UNL     1       1.224   2.754  20.140  0.00  0.00    +0.000 C 
BRANCH  20  21
ATOM     21  C   UNL     1       1.825   2.944  21.538  0.00  0.00    +0.000 C 
ATOM     22  F   UNL     1       2.981   2.272  21.720  0.00  0.00    +0.000 F 
ATOM     23  F   UNL     1       2.073   4.255  21.777  0.00  0.00    +0.000 F 
ATOM     24  F   UNL     1       0.957   2.525  22.491  0.00  0.00    +0.000 F 
ENDBRANCH  20  21
ENDBRANCH  19  20
ENDBRANCH  18  19
ENDBRANCH  17  18
ENDBRANCH   4  17
TORSDOF 7
ENDMDL
MODEL 5
REMARK VINA RESULT:      -7.2      4.377      7.420
REMARK  Name = 
REMARK  8 active torsions:
REMARK  status: ('A' for Active; 'I' for Inactive)
REMARK    1  A    between atoms: C_1  and  C_2
REMARK    2  A    between atoms: C_2  and  C_3
REMARK    3  A    between atoms: C_6  and  C_7
REMARK    4  A    between atoms: C_10  and  C_12
REMARK    5  A    between atoms: C_12  and  C_13
REMARK    6  A    between atoms: C_13  and  O_14
REMARK    7  A    between atoms: O_14  and  C_15
REMARK    8  A    between atoms: C_15  and  C_16
REMARK                            x       y       z     vdW  Elec       q    Type
REMARK                         _______ _______ _______ _____ _____    ______ ____
ROOT
ATOM      1  C   UNL     1       2.657   6.926  19.637  0.00  0.00    +0.000 C 
ATOM      2  C   UNL     1       3.468   6.189  18.558  0.00  0.00    +0.000 C 
ATOM      3  N   UNL     1       3.934   4.897  19.076  0.00  0.00    +0.000 N 
ATOM      4  C   UNL     1       5.233   4.425  19.095  0.00  0.00    +0.000 C 
ATOM      5  O   UNL     1       5.491   3.290  19.500  0.00  0.00    +0.000 OA
ATOM      6  C   UNL     1       2.855   4.070  19.627  0.00  0.00    +0.000 C 
ATOM      7  C   UNL     1       2.076   4.872  20.674  0.00  0.00    +0.000 C 
ATOM      8  O   UNL     1       1.571   6.101  20.117  0.00  0.00    +0.000 OA
ENDROOT
BRANCH   1  12
ATOM      9  C   UNL     1       0.950   9.916  18.686  0.00  0.00    +0.000 A 
ATOM     10  N   UNL     1       1.692   9.782  17.581  0.00  0.00    +0.000 NA
ATOM     11  N   UNL     1       2.382   8.665  17.862  0.00  0.00    +0.000 N 
ATOM     12  C   UNL     1       2.063   8.171  19.093  0.00  0.00    +0.000 A 
ATOM     13  N   UNL     1       1.160   8.958  19.647  0.00  0.00    +0.000 NA
ATOM     14  H   UNL     1       3.032   8.275  17.192  0.00  0.00    +0.000 HD
BRANCH   9  16
ATOM     15  C   UNL     1      -1.448  10.472  18.379  0.00  0.00    +0.000 C 
ATOM     16  C   UNL     1      -0.082  10.972  18.829  0.00  0.00    +0.000 C 
ENDBRANCH   9  16
ENDBRANCH   1  12
BRANCH   4  17
ATOM     17  C   UNL     1       6.354   5.338  18.640  0.00  0.00    +0.000 C 
BRANCH  17  18
ATOM     18  C   UNL     1       7.310   4.609  17.704  0.00  0.00    +0.000 C 
BRANCH  18  19
ATOM     19  O   UNL     1       7.394   5.321  16.472  0.00  0.00    +0.000 OA
BRANCH  19  20
ATOM     20  C   UNL     1       6.979   4.541  15.343  0.00  0.00    +0.000 C 
BRANCH  20  21
ATOM     21  C   UNL     1       5.505   4.749  14.978  0.00  0.00    +0.000 C 
ATOM     22  F   UNL     1       5.187   4.294  13.748  0.00  0.00    +0.000 F 
ATOM     23  F   UNL     1       4.699   4.119  15.867  0.00  0.00    +0.000 F 
ATOM     24  F   UNL     1       5.184   6.066  15.019  0.00  0.00    +0.000 F 
ENDBRANCH  20  21
ENDBRANCH  19  20
ENDBRANCH  18  19
ENDBRANCH  17  18
ENDBRANCH   4  17
TORSDOF 7
ENDMDL
MODEL 6
REMARK VINA RESULT:      -7.1      0.964      1.117
REMARK  Name = 
REMARK  8 active torsions:
REMARK  status: ('A' for Active; 'I' for Inactive)
REMARK    1  A    between atoms: C_1  and  C_2
REMARK    2  A    between atoms: C_2  and  C_3
REMARK    3  A    between atoms: C_6  and  C_7
REMARK    4  A    between atoms: C_10  and  C_12
REMARK    5  A    between atoms: C_12  and  C_13
REMARK    6  A    between atoms: C_13  and  O_14
REMARK    7  A    between atoms: O_14  and  C_15
REMARK    8  A    between atoms: C_15  and  C_16
REMARK                            x       y       z     vdW  Elec       q    Type
REMARK                         _______ _______ _______ _____ _____    ______ ____
ROOT
ATOM      1  C   UNL     1       6.277   4.288  15.845  0.00  0.00    +0.000 C 
ATOM      2  C   UNL     1       4.993   5.047  16.221  0.00  0.00    +0.000 C 
ATOM      3  N   UNL     1       5.019   5.403  17.644  0.00  0.00    +0.000 N 
ATOM      4  C   UNL     1       4.054   5.121  18.593  0.00  0.00    +0.000 C 
ATOM      5  O   UNL     1       4.161   5.531  19.750  0.00  0.00    +0.000 OA
ATOM      6  C   UNL     1       6.232   6.126  18.039  0.00  0.00    +0.000 C 
ATOM      7  C   UNL     1       7.469   5.327  17.615  0.00  0.00    +0.000 C 
ATOM      8  O   UNL     1       7.450   5.055  16.200  0.00  0.00    +0.000 OA
ENDROOT
BRANCH   1  12
ATOM      9  C   UNL     1       6.119   3.347  12.403  0.00  0.00    +0.000 A 
ATOM     10  N   UNL     1       7.099   4.251  12.290  0.00  0.00    +0.000 NA
ATOM     11  N   UNL     1       7.220   4.667  13.561  0.00  0.00    +0.000 N 
ATOM     12  C   UNL     1       6.334   4.038  14.384  0.00  0.00    +0.000 A 
ATOM     13  N   UNL     1       5.609   3.198  13.668  0.00  0.00    +0.000 NA
ATOM     14  H   UNL     1       7.918   5.354  13.818  0.00  0.00    +0.000 HD
BRANCH   9  16
ATOM     15  C   UNL     1       6.605   1.323  11.054  0.00  0.00    +0.000 C 
ATOM     16  C   UNL     1       5.675   2.510  11.262  0.00  0.00    +0.000 C 
ENDBRANCH   9  16
ENDBRANCH   1  12
BRANCH   4  17
ATOM     17  C   UNL     1       2.865   4.264  18.201  0.00  0.00    +0.000 C 
BRANCH  17  18
ATOM     18  C   UNL     1       3.152   2.787  18.436  0.00  0.00    +0.000 C 
BRANCH  18  19
ATOM     19  O   UNL     1       2.031   2.189  19.081  0.00  0.00    +0.000 OA
BRANCH  19  20
ATOM     20  C   UNL     1       1.366   3.076  19.989  0.00  0.00    +0.000 C 
BRANCH  20  21
ATOM     21  C   UNL     1       1.923   3.005  21.415  0.00  0.00    +0.000 C 
ATOM     22  F   UNL     1       1.060   2.464  22.301  0.00  0.00    +0.000 F 
ATOM     23  F   UNL     1       3.058   2.265  21.449  0.00  0.00    +0.000 F 
ATOM     24  F   UNL     1       2.244   4.243  21.865  0.00  0.00    +0.000 F 
ENDBRANCH  20  21
ENDBRANCH  19  20
ENDBRANCH  18  19
ENDBRANCH  17  18
ENDBRANCH   4  17
TORSDOF 7
ENDMDL
MODEL 7
REMARK VINA RESULT:      -7.1      1.060      1.479
REMARK  Name = 
REMARK  8 active torsions:
REMARK  status: ('A' for Active; 'I' for Inactive)
REMARK    1  A    between atoms: C_1  and  C_2
REMARK    2  A    between atoms: C_2  and  C_3
REMARK    3  A    between atoms: C_6  and  C_7
REMARK    4  A    between atoms: C_10  and  C_12
REMARK    5  A    between atoms: C_12  and  C_13
REMARK    6  A    between atoms: C_13  and  O_14
REMARK    7  A    between atoms: O_14  and  C_15
REMARK    8  A    between atoms: C_15  and  C_16
REMARK                            x       y       z     vdW  Elec       q    Type
REMARK                         _______ _______ _______ _____ _____    ______ ____
ROOT
ATOM      1  C   UNL     1       6.269   4.399  15.321  0.00  0.00    +0.000 C 
ATOM      2  C   UNL     1       4.936   4.708  16.025  0.00  0.00    +0.000 C 
ATOM      3  N   UNL     1       5.191   5.280  17.352  0.00  0.00    +0.000 N 
ATOM      4  C   UNL     1       4.690   4.838  18.562  0.00  0.00    +0.000 C 
ATOM      5  O   UNL     1       4.927   5.444  19.608  0.00  0.00    +0.000 OA
ATOM      6  C   UNL     1       6.089   6.440  17.321  0.00  0.00    +0.000 C 
ATOM      7  C   UNL     1       7.382   6.070  16.588  0.00  0.00    +0.000 C 
ATOM      8  O   UNL     1       7.104   5.578  15.262  0.00  0.00    +0.000 OA
ENDROOT
BRANCH   1  12
ATOM      9  C   UNL     1       5.275   3.268  12.083  0.00  0.00    +0.000 A 
ATOM     10  N   UNL     1       6.595   3.270  11.867  0.00  0.00    +0.000 NA
ATOM     11  N   UNL     1       7.055   3.697  13.055  0.00  0.00    +0.000 N 
ATOM     12  C   UNL     1       6.037   3.947  13.928  0.00  0.00    +0.000 A 
ATOM     13  N   UNL     1       4.889   3.695  13.329  0.00  0.00    +0.000 NA
ATOM     14  H   UNL     1       8.048   3.782  13.226  0.00  0.00    +0.000 HD
BRANCH   9  16
ATOM     15  C   UNL     1       3.525   3.909  10.446  0.00  0.00    +0.000 C 
ATOM     16  C   UNL     1       4.306   2.766  11.079  0.00  0.00    +0.000 C 
ENDBRANCH   9  16
ENDBRANCH   1  12
BRANCH   4  17
ATOM     17  C   UNL     1       3.866   3.565  18.596  0.00  0.00    +0.000 C 
BRANCH  17  18
ATOM     18  C   UNL     1       2.402   3.851  18.288  0.00  0.00    +0.000 C 
BRANCH  18  19
ATOM     19  O   UNL     1       1.613   2.730  18.681  0.00  0.00    +0.000 OA
BRANCH  19  20
ATOM     20  C   UNL     1       1.929   2.254  19.995  0.00  0.00    +0.000 C 
BRANCH  20  21
ATOM     21  C   UNL     1       1.445   3.192  21.106  0.00  0.00    +0.000 C 
ATOM     22  F   UNL     1       0.505   4.069  20.696  0.00  0.00    +0.000 F 
ATOM     23  F   UNL     1       0.919   2.483  22.135  0.00  0.00    +0.000 F 
ATOM     24  F   UNL     1       2.479   3.910  21.609  0.00  0.00    +0.000 F 
ENDBRANCH  20  21
ENDBRANCH  19  20
ENDBRANCH  18  19
ENDBRANCH  17  18
ENDBRANCH   4  17
TORSDOF 7
ENDMDL
MODEL 8
REMARK VINA RESULT:      -7.1      0.923      1.341
REMARK  Name = 
REMARK  8 active torsions:
REMARK  status: ('A' for Active; 'I' for Inactive)
REMARK    1  A    between atoms: C_1  and  C_2
REMARK    2  A    between atoms: C_2  and  C_3
REMARK    3  A    between atoms: C_6  and  C_7
REMARK    4  A    between atoms: C_10  and  C_12
REMARK    5  A    between atoms: C_12  and  C_13
REMARK    6  A    between atoms: C_13  and  O_14
REMARK    7  A    between atoms: O_14  and  C_15
REMARK    8  A    between atoms: C_15  and  C_16
REMARK                            x       y       z     vdW  Elec       q    Type
REMARK                         _______ _______ _______ _____ _____    ______ ____
ROOT
ATOM      1  C   UNL     1       6.610   4.892  15.831  0.00  0.00    +0.000 C 
ATOM      2  C   UNL     1       5.133   5.061  16.228  0.00  0.00    +0.000 C 
ATOM      3  N   UNL     1       5.038   5.572  17.601  0.00  0.00    +0.000 N 
ATOM      4  C   UNL     1       4.320   5.023  18.647  0.00  0.00    +0.000 C 
ATOM      5  O   UNL     1       4.267   5.583  19.744  0.00  0.00    +0.000 OA
ATOM      6  C   UNL     1       5.820   6.793  17.821  0.00  0.00    +0.000 C 
ATOM      7  C   UNL     1       7.270   6.561  17.384  0.00  0.00    +0.000 C 
ATOM      8  O   UNL     1       7.335   6.129  16.011  0.00  0.00    +0.000 OA
ENDROOT
BRANCH   1  12
ATOM      9  C   UNL     1       6.657   3.599  12.503  0.00  0.00    +0.000 A 
ATOM     10  N   UNL     1       7.509   4.611  12.307  0.00  0.00    +0.000 NA
ATOM     11  N   UNL     1       7.545   5.165  13.529  0.00  0.00    +0.000 N 
ATOM     12  C   UNL     1       6.732   4.507  14.405  0.00  0.00    +0.000 A 
ATOM     13  N   UNL     1       6.143   3.509  13.772  0.00  0.00    +0.000 NA
ATOM     14  H   UNL     1       8.138   5.962  13.721  0.00  0.00    +0.000 HD
BRANCH   9  16
ATOM     15  C   UNL     1       7.629   2.076  10.803  0.00  0.00    +0.000 C 
ATOM     16  C   UNL     1       6.354   2.599  11.450  0.00  0.00    +0.000 C 
ENDBRANCH   9  16
ENDBRANCH   1  12
BRANCH   4  17
ATOM     17  C   UNL     1       3.619   3.695  18.442  0.00  0.00    +0.000 C 
BRANCH  17  18
ATOM     18  C   UNL     1       4.287   2.590  19.251  0.00  0.00    +0.000 C 
BRANCH  18  19
ATOM     19  O   UNL     1       3.299   1.915  20.026  0.00  0.00    +0.000 OA
BRANCH  19  20
ATOM     20  C   UNL     1       2.909   2.643  21.197  0.00  0.00    +0.000 C 
BRANCH  20  21
ATOM     21  C   UNL     1       1.431   3.049  21.187  0.00  0.00    +0.000 C 
ATOM     22  F   UNL     1       1.242   4.381  21.079  0.00  0.00    +0.000 F 
ATOM     23  F   UNL     1       0.780   2.460  20.155  0.00  0.00    +0.000 F 
ATOM     24  F   UNL     1       0.817   2.643  22.326  0.00  0.00    +0.000 F 
ENDBRANCH  20  21
ENDBRANCH  19  20
ENDBRANCH  18  19
ENDBRANCH  17  18
ENDBRANCH   4  17
TORSDOF 7
ENDMDL
MODEL 9
REMARK VINA RESULT:      -7.1      0.962      1.136
REMARK  Name = 
REMARK  8 active torsions:
REMARK  status: ('A' for Active; 'I' for Inactive)
REMARK    1  A    between atoms: C_1  and  C_2
REMARK    2  A    between atoms: C_2  and  C_3
REMARK    3  A    between atoms: C_6  and  C_7
REMARK    4  A    between atoms: C_10  and  C_12
REMARK    5  A    between atoms: C_12  and  C_13
REMARK    6  A    between atoms: C_13  and  O_14
REMARK    7  A    between atoms: O_14  and  C_15
REMARK    8  A    between atoms: C_15  and  C_16
REMARK                            x       y       z     vdW  Elec       q    Type
REMARK                         _______ _______ _______ _____ _____    ______ ____
ROOT
ATOM      1  C   UNL     1       6.513   4.845  15.613  0.00  0.00    +0.000 C 
ATOM      2  C   UNL     1       5.101   5.112  16.161  0.00  0.00    +0.000 C 
ATOM      3  N   UNL     1       5.185   5.674  17.514  0.00  0.00    +0.000 N 
ATOM      4  C   UNL     1       4.561   5.203  18.653  0.00  0.00    +0.000 C 
ATOM      5  O   UNL     1       4.659   5.802  19.726  0.00  0.00    +0.000 OA
ATOM      6  C   UNL     1       6.051   6.855  17.599  0.00  0.00    +0.000 C 
ATOM      7  C   UNL     1       7.429   6.527  17.016  0.00  0.00    +0.000 C 
ATOM      8  O   UNL     1       7.319   6.045  15.662  0.00  0.00    +0.000 OA
ENDROOT
BRANCH   1  12
ATOM      9  C   UNL     1       6.026   3.525  12.331  0.00  0.00    +0.000 A 
ATOM     10  N   UNL     1       7.155   4.197  12.080  0.00  0.00    +0.000 NA
ATOM     11  N   UNL     1       7.410   4.740  13.282  0.00  0.00    +0.000 N 
ATOM     12  C   UNL     1       6.456   4.405  14.198  0.00  0.00    +0.000 A 
ATOM     13  N   UNL     1       5.553   3.640  13.614  0.00  0.00    +0.000 NA
ATOM     14  H   UNL     1       8.237   5.303  13.432  0.00  0.00    +0.000 HD
BRANCH   9  16
ATOM     15  C   UNL     1       3.935   3.067  11.078  0.00  0.00    +0.000 C 
ATOM     16  C   UNL     1       5.379   2.652  11.320  0.00  0.00    +0.000 C 
ENDBRANCH   9  16
ENDBRANCH   1  12
BRANCH   4  17
ATOM     17  C   UNL     1       3.772   3.910  18.580  0.00  0.00    +0.000 C 
BRANCH  17  18
ATOM     18  C   UNL     1       4.346   2.862  19.524  0.00  0.00    +0.000 C 
BRANCH  18  19
ATOM     19  O   UNL     1       3.350   1.878  19.792  0.00  0.00    +0.000 OA
BRANCH  19  20
ATOM     20  C   UNL     1       2.036   2.432  19.937  0.00  0.00    +0.000 C 
BRANCH  20  21
ATOM     21  C   UNL     1       1.768   2.982  21.343  0.00  0.00    +0.000 C 
ATOM     22  F   UNL     1       0.662   2.465  21.918  0.00  0.00    +0.000 F 
ATOM     23  F   UNL     1       2.814   2.724  22.165  0.00  0.00    +0.000 F 
ATOM     24  F   UNL     1       1.615   4.329  21.307  0.00  0.00    +0.000 F 
ENDBRANCH  20  21
ENDBRANCH  19  20
ENDBRANCH  18  19
ENDBRANCH  17  18
ENDBRANCH   4  17
TORSDOF 7
ENDMDL
