MODEL 1
REMARK VINA RESULT:      -7.4      0.000      0.000
REMARK  Name = 
REMARK  9 active torsions:
REMARK  status: ('A' for Active; 'I' for Inactive)
REMARK    1  A    between atoms: C_1  and  C_2
REMARK    2  A    between atoms: C_2  and  N_3
REMARK    3  A    between atoms: N_3  and  C_4
REMARK    4  A    between atoms: N_3  and  C_5
REMARK    5  A    between atoms: C_5  and  C_6
REMARK    6  A    between atoms: N_12  and  C_13
REMARK    7  A    between atoms: N_18  and  C_19
REMARK    8  A    between atoms: C_19  and  C_20
REMARK    9  A    between atoms: C_19  and  C_21
REMARK                            x       y       z     vdW  Elec       q    Type
REMARK                         _______ _______ _______ _____ _____    ______ ____
ROOT
ATOM      1  C   UNL     1      -0.562  11.549  22.251  0.00  0.00    +0.000 C 
ATOM      2  C   UNL     1      -0.884  10.372  23.181  0.00  0.00    +0.000 C 
ATOM      3  C   UNL     1       0.218   9.353  22.904  0.00  0.00    +0.000 C 
ATOM      4  N   UNL     1       0.528   9.552  21.501  0.00  0.00    +0.000 N 
ATOM      5  C   UNL     1       1.166   8.731  20.592  0.00  0.00    +0.000 C 
ATOM      6  O   UNL     1       1.426   9.161  19.469  0.00  0.00    +0.000 OA
ATOM      7  N   UNL     1       1.444   7.450  21.026  0.00  0.00    +0.000 N 
ATOM      8  C   UNL     1       0.245  10.919  21.109  0.00  0.00    +0.000 C 
ATOM      9  H   UNL     1       0.984   7.161  21.874  0.00  0.00    +0.000 HD
ENDROOT
BRANCH   7  10
ATOM     10  C   UNL     1       2.061   6.422  20.263  0.00  0.00    +0.000 A 
ATOM     11  C   UNL     1       1.931   5.034  20.612  0.00  0.00    +0.000 A 
ATOM     12  C   UNL     1       2.588   3.968  19.948  0.00  0.00    +0.000 A 
ATOM     13  C   UNL     1       3.399   4.377  18.885  0.00  0.00    +0.000 A 
ATOM     14  N   UNL     1       4.187   3.655  18.071  0.00  0.00    +0.000 NA
ATOM     15  N   UNL     1       4.767   4.561  17.253  0.00  0.00    +0.000 N 
ATOM     16  C   UNL     1       4.345   5.849  17.464  0.00  0.00    +0.000 A 
ATOM     17  C   UNL     1       3.480   5.766  18.524  0.00  0.00    +0.000 A 
ATOM     18  C   UNL     1       2.826   6.837  19.141  0.00  0.00    +0.000 A 
BRANCH  15  19
ATOM     19  C   UNL     1       5.763   4.127  16.276  0.00  0.00    +0.000 C 
ATOM     20  C   UNL     1       5.336   4.447  14.842  0.00  0.00    +0.000 C 
ATOM     21  C   UNL     1       7.143   4.710  16.576  0.00  0.00    +0.000 C 
ENDBRANCH  15  19
ENDBRANCH   7  10
BRANCH   1  22
ATOM     22  C   UNL     1      -1.800  12.283  21.699  0.00  0.00    +0.000 C 
BRANCH  22  23
ATOM     23  N   UNL     1      -1.747  12.682  20.274  0.00  0.00    +0.000 NA
ATOM     24  C   UNL     1      -1.478  14.129  20.207  0.00  0.00    +0.000 C 
BRANCH  23  26
ATOM     25  C   UNL     1      -2.800  11.581  18.264  0.00  0.00    +0.000 C 
ATOM     26  C   UNL     1      -2.998  12.347  19.569  0.00  0.00    +0.000 C 
ENDBRANCH  23  26
ENDBRANCH  22  23
ENDBRANCH   1  22
TORSDOF 5
ENDMDL
MODEL 2
REMARK VINA RESULT:      -7.4      2.331      9.141
REMARK  Name = 
REMARK  9 active torsions:
REMARK  status: ('A' for Active; 'I' for Inactive)
REMARK    1  A    between atoms: C_1  and  C_2
REMARK    2  A    between atoms: C_2  and  N_3
REMARK    3  A    between atoms: N_3  and  C_4
REMARK    4  A    between atoms: N_3  and  C_5
REMARK    5  A    between atoms: C_5  and  C_6
REMARK    6  A    between atoms: N_12  and  C_13
REMARK    7  A    between atoms: N_18  and  C_19
REMARK    8  A    between atoms: C_19  and  C_20
REMARK    9  A    between atoms: C_19  and  C_21
REMARK                            x       y       z     vdW  Elec       q    Type
REMARK                         _______ _______ _______ _____ _____    ______ ____
ROOT
ATOM      1  C   UNL     1       4.749   5.201  18.125  0.00  0.00    +0.000 C 
ATOM      2  C   UNL     1       4.607   5.894  16.763  0.00  0.00    +0.000 C 
ATOM      3  C   UNL     1       4.078   7.286  17.097  0.00  0.00    +0.000 C 
ATOM      4  N   UNL     1       3.262   7.073  18.277  0.00  0.00    +0.000 N 
ATOM      5  C   UNL     1       2.265   7.846  18.839  0.00  0.00    +0.000 C 
ATOM      6  O   UNL     1       1.784   7.518  19.923  0.00  0.00    +0.000 OA
ATOM      7  N   UNL     1       1.862   8.941  18.100  0.00  0.00    +0.000 N 
ATOM      8  C   UNL     1       3.747   5.930  19.028  0.00  0.00    +0.000 C 
ATOM      9  H   UNL     1       2.173   8.967  17.143  0.00  0.00    +0.000 HD
ENDROOT
BRANCH   7  10
ATOM     10  C   UNL     1       0.837   9.859  18.454  0.00  0.00    +0.000 A 
ATOM     11  C   UNL     1       1.037  10.877  19.448  0.00  0.00    +0.000 A 
ATOM     12  C   UNL     1       0.035  11.767  19.909  0.00  0.00    +0.000 A 
ATOM     13  C   UNL     1      -1.211  11.580  19.301  0.00  0.00    +0.000 A 
ATOM     14  N   UNL     1      -2.379  12.206  19.515  0.00  0.00    +0.000 NA
ATOM     15  N   UNL     1      -3.255  11.605  18.681  0.00  0.00    +0.000 N 
ATOM     16  C   UNL     1      -2.691  10.641  17.884  0.00  0.00    +0.000 A 
ATOM     17  C   UNL     1      -1.379  10.587  18.275  0.00  0.00    +0.000 A 
ATOM     18  C   UNL     1      -0.406   9.713  17.781  0.00  0.00    +0.000 A 
BRANCH  15  19
ATOM     19  C   UNL     1      -4.666  11.987  18.707  0.00  0.00    +0.000 C 
ATOM     20  C   UNL     1      -5.582  10.824  18.322  0.00  0.00    +0.000 C 
ATOM     21  C   UNL     1      -5.069  12.573  20.059  0.00  0.00    +0.000 C 
ENDBRANCH  15  19
ENDBRANCH   7  10
BRANCH   1  22
ATOM     22  C   UNL     1       4.457   3.687  18.103  0.00  0.00    +0.000 C 
BRANCH  22  23
ATOM     23  N   UNL     1       3.311   3.227  18.922  0.00  0.00    +0.000 NA
ATOM     24  C   UNL     1       3.819   2.305  19.953  0.00  0.00    +0.000 C 
BRANCH  23  26
ATOM     25  C   UNL     1       0.935   2.394  18.791  0.00  0.00    +0.000 C 
ATOM     26  C   UNL     1       2.281   2.574  18.094  0.00  0.00    +0.000 C 
ENDBRANCH  23  26
ENDBRANCH  22  23
ENDBRANCH   1  22
TORSDOF 5
ENDMDL
MODEL 3
REMARK VINA RESULT:      -7.3      7.497     10.915
REMARK  Name = 
REMARK  9 active torsions:
REMARK  status: ('A' for Active; 'I' for Inactive)
REMARK    1  A    between atoms: C_1  and  C_2
REMARK    2  A    between atoms: C_2  and  N_3
REMARK    3  A    between atoms: N_3  and  C_4
REMARK    4  A    between atoms: N_3  and  C_5
REMARK    5  A    between atoms: C_5  and  C_6
REMARK    6  A    between atoms: N_12  and  C_13
REMARK    7  A    between atoms: N_18  and  C_19
REMARK    8  A    between atoms: C_19  and  C_20
REMARK    9  A    between atoms: C_19  and  C_21
REMARK                            x       y       z     vdW  Elec       q    Type
REMARK                         _______ _______ _______ _____ _____    ______ ____
ROOT
ATOM      1  C   UNL     1       6.929   5.407  17.125  0.00  0.00    +0.000 C 
ATOM      2  C   UNL     1       7.922   5.047  18.238  0.00  0.00    +0.000 C 
ATOM      3  C   UNL     1       8.046   6.322  19.067  0.00  0.00    +0.000 C 
ATOM      4  N   UNL     1       7.870   7.385  18.095  0.00  0.00    +0.000 N 
ATOM      5  C   UNL     1       8.212   8.723  18.147  0.00  0.00    +0.000 C 
ATOM      6  O   UNL     1       7.855   9.472  17.238  0.00  0.00    +0.000 OA
ATOM      7  N   UNL     1       8.968   9.111  19.235  0.00  0.00    +0.000 N 
ATOM      8  C   UNL     1       7.046   6.931  16.992  0.00  0.00    +0.000 C 
ATOM      9  H   UNL     1       9.375   8.368  19.778  0.00  0.00    +0.000 HD
ENDROOT
BRANCH   7  10
ATOM     10  C   UNL     1       9.464  10.419  19.486  0.00  0.00    +0.000 A 
ATOM     11  C   UNL     1       9.349  11.041  20.777  0.00  0.00    +0.000 A 
ATOM     12  C   UNL     1       9.742  12.369  21.073  0.00  0.00    +0.000 A 
ATOM     13  C   UNL     1      10.276  13.059  19.979  0.00  0.00    +0.000 A 
ATOM     14  N   UNL     1      10.709  14.326  19.885  0.00  0.00    +0.000 NA
ATOM     15  N   UNL     1      11.083  14.472  18.595  0.00  0.00    +0.000 N 
ATOM     16  C   UNL     1      10.962  13.326  17.850  0.00  0.00    +0.000 A 
ATOM     17  C   UNL     1      10.424  12.404  18.708  0.00  0.00    +0.000 A 
ATOM     18  C   UNL     1      10.071  11.090  18.391  0.00  0.00    +0.000 A 
BRANCH  15  19
ATOM     19  C   UNL     1      11.538  15.774  18.111  0.00  0.00    +0.000 C 
ATOM     20  C   UNL     1      11.052  16.058  16.688  0.00  0.00    +0.000 C 
ATOM     21  C   UNL     1      11.136  16.903  19.059  0.00  0.00    +0.000 C 
ENDBRANCH  15  19
ENDBRANCH   7  10
BRANCH   1  22
ATOM     22  C   UNL     1       7.211   4.722  15.773  0.00  0.00    +0.000 C 
BRANCH  22  23
ATOM     23  N   UNL     1       6.110   4.743  14.783  0.00  0.00    +0.000 NA
ATOM     24  C   UNL     1       4.878   4.286  15.449  0.00  0.00    +0.000 C 
BRANCH  23  26
ATOM     25  C   UNL     1       5.219   3.614  12.712  0.00  0.00    +0.000 C 
ATOM     26  C   UNL     1       6.418   3.902  13.612  0.00  0.00    +0.000 C 
ENDBRANCH  23  26
ENDBRANCH  22  23
ENDBRANCH   1  22
TORSDOF 5
ENDMDL
MODEL 4
REMARK VINA RESULT:      -7.2      1.245      1.820
REMARK  Name = 
REMARK  9 active torsions:
REMARK  status: ('A' for Active; 'I' for Inactive)
REMARK    1  A    between atoms: C_1  and  C_2
REMARK    2  A    between atoms: C_2  and  N_3
REMARK    3  A    between atoms: N_3  and  C_4
REMARK    4  A    between atoms: N_3  and  C_5
REMARK    5  A    between atoms: C_5  and  C_6
REMARK    6  A    between atoms: N_12  and  C_13
REMARK    7  A    between atoms: N_18  and  C_19
REMARK    8  A    between atoms: C_19  and  C_20
REMARK    9  A    between atoms: C_19  and  C_21
REMARK                            x       y       z     vdW  Elec       q    Type
REMARK                         _______ _______ _______ _____ _____    ______ ____
ROOT
ATOM      1  C   UNL     1      -0.106  11.331  21.727  0.00  0.00    +0.000 C 
ATOM      2  C   UNL     1      -0.083  10.170  22.731  0.00  0.00    +0.000 C 
ATOM      3  C   UNL     1       1.019   9.246  22.221  0.00  0.00    +0.000 C 
ATOM      4  N   UNL     1       0.970   9.411  20.781  0.00  0.00    +0.000 N 
ATOM      5  C   UNL     1       1.455   8.613  19.763  0.00  0.00    +0.000 C 
ATOM      6  O   UNL     1       1.400   9.017  18.602  0.00  0.00    +0.000 OA
ATOM      7  N   UNL     1       1.953   7.383  20.145  0.00  0.00    +0.000 N 
ATOM      8  C   UNL     1       0.468  10.728  20.439  0.00  0.00    +0.000 C 
ATOM      9  H   UNL     1       1.736   7.091  21.083  0.00  0.00    +0.000 HD
ENDROOT
BRANCH   7  10
ATOM     10  C   UNL     1       2.472   6.384  19.278  0.00  0.00    +0.000 A 
ATOM     11  C   UNL     1       2.085   5.005  19.388  0.00  0.00    +0.000 A 
ATOM     12  C   UNL     1       2.626   3.947  18.617  0.00  0.00    +0.000 A 
ATOM     13  C   UNL     1       3.600   4.357  17.700  0.00  0.00    +0.000 A 
ATOM     14  N   UNL     1       4.342   3.634  16.846  0.00  0.00    +0.000 NA
ATOM     15  N   UNL     1       5.143   4.532  16.232  0.00  0.00    +0.000 N 
ATOM     16  C   UNL     1       4.915   5.830  16.612  0.00  0.00    +0.000 A 
ATOM     17  C   UNL     1       3.942   5.748  17.573  0.00  0.00    +0.000 A 
ATOM     18  C   UNL     1       3.408   6.816  18.300  0.00  0.00    +0.000 A 
BRANCH  15  19
ATOM     19  C   UNL     1       6.153   4.075  15.279  0.00  0.00    +0.000 C 
ATOM     20  C   UNL     1       5.608   4.017  13.851  0.00  0.00    +0.000 C 
ATOM     21  C   UNL     1       7.420   4.927  15.343  0.00  0.00    +0.000 C 
ENDBRANCH  15  19
ENDBRANCH   7  10
BRANCH   1  22
ATOM     22  C   UNL     1      -1.506  11.923  21.471  0.00  0.00    +0.000 C 
BRANCH  22  23
ATOM     23  N   UNL     1      -1.622  13.397  21.552  0.00  0.00    +0.000 NA
ATOM     24  C   UNL     1      -1.404  13.955  20.206  0.00  0.00    +0.000 C 
BRANCH  23  26
ATOM     25  C   UNL     1      -1.277  14.362  23.857  0.00  0.00    +0.000 C 
ATOM     26  C   UNL     1      -0.662  13.963  22.518  0.00  0.00    +0.000 C 
ENDBRANCH  23  26
ENDBRANCH  22  23
ENDBRANCH   1  22
TORSDOF 5
ENDMDL
MODEL 5
REMARK VINA RESULT:      -7.2      1.303      1.837
REMARK  Name = 
REMARK  9 active torsions:
REMARK  status: ('A' for Active; 'I' for Inactive)
REMARK    1  A    between atoms: C_1  and  C_2
REMARK    2  A    between atoms: C_2  and  N_3
REMARK    3  A    between atoms: N_3  and  C_4
REMARK    4  A    between atoms: N_3  and  C_5
REMARK    5  A    between atoms: C_5  and  C_6
REMARK    6  A    between atoms: N_12  and  C_13
REMARK    7  A    between atoms: N_18  and  C_19
REMARK    8  A    between atoms: C_19  and  C_20
REMARK    9  A    between atoms: C_19  and  C_21
REMARK                            x       y       z     vdW  Elec       q    Type
REMARK                         _______ _______ _______ _____ _____    ______ ____
ROOT
ATOM      1  C   UNL     1      -0.543  11.282  22.380  0.00  0.00    +0.000 C 
ATOM      2  C   UNL     1      -0.451  10.028  23.259  0.00  0.00    +0.000 C 
ATOM      3  C   UNL     1       0.705   9.228  22.665  0.00  0.00    +0.000 C 
ATOM      4  N   UNL     1       0.649   9.538  21.249  0.00  0.00    +0.000 N 
ATOM      5  C   UNL     1       1.183   8.881  20.158  0.00  0.00    +0.000 C 
ATOM      6  O   UNL     1       1.105   9.399  19.044  0.00  0.00    +0.000 OA
ATOM      7  N   UNL     1       1.752   7.649  20.414  0.00  0.00    +0.000 N 
ATOM      8  C   UNL     1       0.069  10.852  21.041  0.00  0.00    +0.000 C 
ATOM      9  H   UNL     1       1.551   7.249  21.315  0.00  0.00    +0.000 HD
ENDROOT
BRANCH   7  10
ATOM     10  C   UNL     1       2.332   6.778  19.453  0.00  0.00    +0.000 A 
ATOM     11  C   UNL     1       2.067   5.366  19.449  0.00  0.00    +0.000 A 
ATOM     12  C   UNL     1       2.677   4.430  18.577  0.00  0.00    +0.000 A 
ATOM     13  C   UNL     1       3.588   5.002  17.681  0.00  0.00    +0.000 A 
ATOM     14  N   UNL     1       4.366   4.422  16.753  0.00  0.00    +0.000 NA
ATOM     15  N   UNL     1       5.070   5.437  16.205  0.00  0.00    +0.000 N 
ATOM     16  C   UNL     1       4.742   6.672  16.703  0.00  0.00    +0.000 A 
ATOM     17  C   UNL     1       3.805   6.423  17.672  0.00  0.00    +0.000 A 
ATOM     18  C   UNL     1       3.201   7.373  18.500  0.00  0.00    +0.000 A 
BRANCH  15  19
ATOM     19  C   UNL     1       6.090   5.154  15.197  0.00  0.00    +0.000 C 
ATOM     20  C   UNL     1       7.394   4.657  15.826  0.00  0.00    +0.000 C 
ATOM     21  C   UNL     1       5.587   4.172  14.141  0.00  0.00    +0.000 C 
ENDBRANCH  15  19
ENDBRANCH   7  10
BRANCH   1  22
ATOM     22  C   UNL     1      -1.975  11.814  22.174  0.00  0.00    +0.000 C 
BRANCH  22  23
ATOM     23  N   UNL     1      -2.396  12.927  23.055  0.00  0.00    +0.000 NA
ATOM     24  C   UNL     1      -3.496  12.451  23.913  0.00  0.00    +0.000 C 
BRANCH  23  26
ATOM     25  C   UNL     1      -2.524  14.007  20.780  0.00  0.00    +0.000 C 
ATOM     26  C   UNL     1      -2.811  14.108  22.276  0.00  0.00    +0.000 C 
ENDBRANCH  23  26
ENDBRANCH  22  23
ENDBRANCH   1  22
TORSDOF 5
ENDMDL
MODEL 6
REMARK VINA RESULT:      -7.2      1.305      2.073
REMARK  Name = 
REMARK  9 active torsions:
REMARK  status: ('A' for Active; 'I' for Inactive)
REMARK    1  A    between atoms: C_1  and  C_2
REMARK    2  A    between atoms: C_2  and  N_3
REMARK    3  A    between atoms: N_3  and  C_4
REMARK    4  A    between atoms: N_3  and  C_5
REMARK    5  A    between atoms: C_5  and  C_6
REMARK    6  A    between atoms: N_12  and  C_13
REMARK    7  A    between atoms: N_18  and  C_19
REMARK    8  A    between atoms: C_19  and  C_20
REMARK    9  A    between atoms: C_19  and  C_21
REMARK                            x       y       z     vdW  Elec       q    Type
REMARK                         _______ _______ _______ _____ _____    ______ ____
ROOT
ATOM      1  C   UNL     1      -0.488  11.370  22.359  0.00  0.00    +0.000 C 
ATOM      2  C   UNL     1      -0.389  10.132  23.260  0.00  0.00    +0.000 C 
ATOM      3  C   UNL     1       0.761   9.321  22.670  0.00  0.00    +0.000 C 
ATOM      4  N   UNL     1       0.692   9.605  21.249  0.00  0.00    +0.000 N 
ATOM      5  C   UNL     1       1.215   8.927  20.165  0.00  0.00    +0.000 C 
ATOM      6  O   UNL     1       1.127   9.424  19.043  0.00  0.00    +0.000 OA
ATOM      7  N   UNL     1       1.787   7.700  20.439  0.00  0.00    +0.000 N 
ATOM      8  C   UNL     1       0.111  10.914  21.023  0.00  0.00    +0.000 C 
ATOM      9  H   UNL     1       1.594   7.316  21.350  0.00  0.00    +0.000 HD
ENDROOT
BRANCH   7  10
ATOM     10  C   UNL     1       2.357   6.811  19.489  0.00  0.00    +0.000 A 
ATOM     11  C   UNL     1       2.120   5.395  19.535  0.00  0.00    +0.000 A 
ATOM     12  C   UNL     1       2.724   4.444  18.674  0.00  0.00    +0.000 A 
ATOM     13  C   UNL     1       3.598   5.005  17.737  0.00  0.00    +0.000 A 
ATOM     14  N   UNL     1       4.362   4.412  16.805  0.00  0.00    +0.000 NA
ATOM     15  N   UNL     1       5.031   5.423  16.207  0.00  0.00    +0.000 N 
ATOM     16  C   UNL     1       4.692   6.666  16.677  0.00  0.00    +0.000 A 
ATOM     17  C   UNL     1       3.787   6.429  17.678  0.00  0.00    +0.000 A 
ATOM     18  C   UNL     1       3.187   7.393  18.494  0.00  0.00    +0.000 A 
BRANCH  15  19
ATOM     19  C   UNL     1       6.028   5.129  15.180  0.00  0.00    +0.000 C 
ATOM     20  C   UNL     1       7.342   4.631  15.785  0.00  0.00    +0.000 C 
ATOM     21  C   UNL     1       5.498   4.141  14.142  0.00  0.00    +0.000 C 
ENDBRANCH  15  19
ENDBRANCH   7  10
BRANCH   1  22
ATOM     22  C   UNL     1      -1.922  11.898  22.158  0.00  0.00    +0.000 C 
BRANCH  22  23
ATOM     23  N   UNL     1      -2.128  13.347  22.387  0.00  0.00    +0.000 NA
ATOM     24  C   UNL     1      -1.947  14.050  21.105  0.00  0.00    +0.000 C 
BRANCH  23  26
ATOM     25  C   UNL     1      -1.847  14.823  24.412  0.00  0.00    +0.000 C 
ATOM     26  C   UNL     1      -1.202  13.871  23.408  0.00  0.00    +0.000 C 
ENDBRANCH  23  26
ENDBRANCH  22  23
ENDBRANCH   1  22
TORSDOF 5
ENDMDL
MODEL 7
REMARK VINA RESULT:      -7.1      1.884      9.213
REMARK  Name = 
REMARK  9 active torsions:
REMARK  status: ('A' for Active; 'I' for Inactive)
REMARK    1  A    between atoms: C_1  and  C_2
REMARK    2  A    between atoms: C_2  and  N_3
REMARK    3  A    between atoms: N_3  and  C_4
REMARK    4  A    between atoms: N_3  and  C_5
REMARK    5  A    between atoms: C_5  and  C_6
REMARK    6  A    between atoms: N_12  and  C_13
REMARK    7  A    between atoms: N_18  and  C_19
REMARK    8  A    between atoms: C_19  and  C_20
REMARK    9  A    between atoms: C_19  and  C_21
REMARK                            x       y       z     vdW  Elec       q    Type
REMARK                         _______ _______ _______ _____ _____    ______ ____
ROOT
ATOM      1  C   UNL     1       4.483   3.783  17.736  0.00  0.00    +0.000 C 
ATOM      2  C   UNL     1       4.874   3.967  19.209  0.00  0.00    +0.000 C 
ATOM      3  C   UNL     1       3.720   4.761  19.814  0.00  0.00    +0.000 C 
ATOM      4  N   UNL     1       3.261   5.594  18.719  0.00  0.00    +0.000 N 
ATOM      5  C   UNL     1       2.503   6.749  18.717  0.00  0.00    +0.000 C 
ATOM      6  O   UNL     1       2.132   7.226  17.646  0.00  0.00    +0.000 OA
ATOM      7  N   UNL     1       2.240   7.300  19.956  0.00  0.00    +0.000 N 
ATOM      8  C   UNL     1       3.537   4.955  17.446  0.00  0.00    +0.000 C 
ATOM      9  H   UNL     1       2.783   6.941  20.724  0.00  0.00    +0.000 HD
ENDROOT
BRANCH   7  10
ATOM     10  C   UNL     1       1.513   8.495  20.204  0.00  0.00    +0.000 A 
ATOM     11  C   UNL     1       1.544   9.607  19.293  0.00  0.00    +0.000 A 
ATOM     12  C   UNL     1       0.915  10.856  19.519  0.00  0.00    +0.000 A 
ATOM     13  C   UNL     1       0.231  10.933  20.737  0.00  0.00    +0.000 A 
ATOM     14  N   UNL     1      -0.437  11.959  21.290  0.00  0.00    +0.000 NA
ATOM     15  N   UNL     1      -0.866  11.493  22.483  0.00  0.00    +0.000 N 
ATOM     16  C   UNL     1      -0.551  10.177  22.711  0.00  0.00    +0.000 A 
ATOM     17  C   UNL     1       0.174   9.795  21.613  0.00  0.00    +0.000 A 
ATOM     18  C   UNL     1       0.761   8.543  21.408  0.00  0.00    +0.000 A 
BRANCH  15  19
ATOM     19  C   UNL     1      -1.572  12.385  23.401  0.00  0.00    +0.000 C 
ATOM     20  C   UNL     1      -1.274  13.857  23.111  0.00  0.00    +0.000 C 
ATOM     21  C   UNL     1      -3.078  12.125  23.399  0.00  0.00    +0.000 C 
ENDBRANCH  15  19
ENDBRANCH   7  10
BRANCH   1  22
ATOM     22  C   UNL     1       5.673   3.792  16.755  0.00  0.00    +0.000 C 
BRANCH  22  23
ATOM     23  N   UNL     1       6.046   5.107  16.187  0.00  0.00    +0.000 NA
ATOM     24  C   UNL     1       6.387   4.918  14.765  0.00  0.00    +0.000 C 
BRANCH  23  26
ATOM     25  C   UNL     1       6.933   7.158  17.354  0.00  0.00    +0.000 C 
ATOM     26  C   UNL     1       7.172   5.715  16.920  0.00  0.00    +0.000 C 
ENDBRANCH  23  26
ENDBRANCH  22  23
ENDBRANCH   1  22
TORSDOF 5
ENDMDL
MODEL 8
REMARK VINA RESULT:      -7.0      2.408      9.146
REMARK  Name = 
REMARK  9 active torsions:
REMARK  status: ('A' for Active; 'I' for Inactive)
REMARK    1  A    between atoms: C_1  and  C_2
REMARK    2  A    between atoms: C_2  and  N_3
REMARK    3  A    between atoms: N_3  and  C_4
REMARK    4  A    between atoms: N_3  and  C_5
REMARK    5  A    between atoms: C_5  and  C_6
REMARK    6  A    between atoms: N_12  and  C_13
REMARK    7  A    between atoms: N_18  and  C_19
REMARK    8  A    between atoms: C_19  and  C_20
REMARK    9  A    between atoms: C_19  and  C_21
REMARK                            x       y       z     vdW  Elec       q    Type
REMARK                         _______ _______ _______ _____ _____    ______ ____
ROOT
ATOM      1  C   UNL     1       4.119   5.069  18.466  0.00  0.00    +0.000 C 
ATOM      2  C   UNL     1       3.538   5.195  19.880  0.00  0.00    +0.000 C 
ATOM      3  C   UNL     1       2.345   6.133  19.721  0.00  0.00    +0.000 C 
ATOM      4  N   UNL     1       2.746   7.023  18.648  0.00  0.00    +0.000 N 
ATOM      5  C   UNL     1       2.273   8.268  18.283  0.00  0.00    +0.000 C 
ATOM      6  O   UNL     1       2.691   8.794  17.252  0.00  0.00    +0.000 OA
ATOM      7  N   UNL     1       1.361   8.845  19.145  0.00  0.00    +0.000 N 
ATOM      8  C   UNL     1       3.679   6.357  17.760  0.00  0.00    +0.000 C 
ATOM      9  H   UNL     1       1.277   8.414  20.051  0.00  0.00    +0.000 HD
ENDROOT
BRANCH   7  10
ATOM     10  C   UNL     1       0.763  10.126  18.998  0.00  0.00    +0.000 A 
ATOM     11  C   UNL     1      -0.563  10.290  18.470  0.00  0.00    +0.000 A 
ATOM     12  C   UNL     1      -1.185  11.538  18.217  0.00  0.00    +0.000 A 
ATOM     13  C   UNL     1      -0.387  12.642  18.536  0.00  0.00    +0.000 A 
ATOM     14  N   UNL     1      -0.632  13.955  18.394  0.00  0.00    +0.000 NA
ATOM     15  N   UNL     1       0.491  14.568  18.826  0.00  0.00    +0.000 N 
ATOM     16  C   UNL     1       1.447  13.706  19.300  0.00  0.00    +0.000 A 
ATOM     17  C   UNL     1       0.919  12.457  19.106  0.00  0.00    +0.000 A 
ATOM     18  C   UNL     1       1.549  11.242  19.391  0.00  0.00    +0.000 A 
BRANCH  15  19
ATOM     19  C   UNL     1       0.607  16.023  18.737  0.00  0.00    +0.000 C 
ATOM     20  C   UNL     1      -0.707  16.723  19.091  0.00  0.00    +0.000 C 
ATOM     21  C   UNL     1       1.755  16.554  19.594  0.00  0.00    +0.000 C 
ENDBRANCH  15  19
ENDBRANCH   7  10
BRANCH   1  22
ATOM     22  C   UNL     1       5.654   4.923  18.418  0.00  0.00    +0.000 C 
BRANCH  22  23
ATOM     23  N   UNL     1       6.364   5.762  17.426  0.00  0.00    +0.000 NA
ATOM     24  C   UNL     1       6.844   4.891  16.339  0.00  0.00    +0.000 C 
BRANCH  23  26
ATOM     25  C   UNL     1       7.661   7.923  17.519  0.00  0.00    +0.000 C 
ATOM     26  C   UNL     1       7.482   6.500  18.042  0.00  0.00    +0.000 C 
ENDBRANCH  23  26
ENDBRANCH  22  23
ENDBRANCH   1  22
TORSDOF 5
ENDMDL
MODEL 9
REMARK VINA RESULT:      -7.0      2.231      9.174
REMARK  Name = 
REMARK  9 active torsions:
REMARK  status: ('A' for Active; 'I' for Inactive)
REMARK    1  A    between atoms: C_1  and  C_2
REMARK    2  A    between atoms: C_2  and  N_3
REMARK    3  A    between atoms: N_3  and  C_4
REMARK    4  A    between atoms: N_3  and  C_5
REMARK    5  A    between atoms: C_5  and  C_6
REMARK    6  A    between atoms: N_12  and  C_13
REMARK    7  A    between atoms: N_18  and  C_19
REMARK    8  A    between atoms: C_19  and  C_20
REMARK    9  A    between atoms: C_19  and  C_21
REMARK                            x       y       z     vdW  Elec       q    Type
REMARK                         _______ _______ _______ _____ _____    ______ ____
ROOT
ATOM      1  C   UNL     1       4.155   5.477  18.969  0.00  0.00    +0.000 C 
ATOM      2  C   UNL     1       3.893   5.925  17.525  0.00  0.00    +0.000 C 
ATOM      3  C   UNL     1       3.367   7.351  17.658  0.00  0.00    +0.000 C 
ATOM      4  N   UNL     1       2.651   7.341  18.919  0.00  0.00    +0.000 N 
ATOM      5  C   UNL     1       1.687   8.195  19.418  0.00  0.00    +0.000 C 
ATOM      6  O   UNL     1       1.299   8.056  20.578  0.00  0.00    +0.000 OA
ATOM      7  N   UNL     1       1.208   9.145  18.538  0.00  0.00    +0.000 N 
ATOM      8  C   UNL     1       3.214   6.347  19.812  0.00  0.00    +0.000 C 
ATOM      9  H   UNL     1       1.442   9.008  17.569  0.00  0.00    +0.000 HD
ENDROOT
BRANCH   7  10
ATOM     10  C   UNL     1       0.197  10.106  18.811  0.00  0.00    +0.000 A 
ATOM     11  C   UNL     1       0.382  11.150  19.781  0.00  0.00    +0.000 A 
ATOM     12  C   UNL     1      -0.611  12.085  20.164  0.00  0.00    +0.000 A 
ATOM     13  C   UNL     1      -1.831  11.918  19.500  0.00  0.00    +0.000 A 
ATOM     14  N   UNL     1      -2.988  12.586  19.636  0.00  0.00    +0.000 NA
ATOM     15  N   UNL     1      -3.842  11.985  18.779  0.00  0.00    +0.000 N 
ATOM     16  C   UNL     1      -3.271  10.978  18.043  0.00  0.00    +0.000 A 
ATOM     17  C   UNL     1      -1.982  10.896  18.500  0.00  0.00    +0.000 A 
ATOM     18  C   UNL     1      -1.015   9.976  18.083  0.00  0.00    +0.000 A 
BRANCH  15  19
ATOM     19  C   UNL     1      -5.238  12.412  18.723  0.00  0.00    +0.000 C 
ATOM     20  C   UNL     1      -5.825  12.268  17.317  0.00  0.00    +0.000 C 
ATOM     21  C   UNL     1      -6.099  11.676  19.750  0.00  0.00    +0.000 C 
ENDBRANCH  15  19
ENDBRANCH   7  10
BRANCH   1  22
ATOM     22  C   UNL     1       3.888   3.981  19.231  0.00  0.00    +0.000 C 
BRANCH  22  23
ATOM     23  N   UNL     1       2.538   3.630  19.727  0.00  0.00    +0.000 NA
ATOM     24  C   UNL     1       2.688   2.782  20.922  0.00  0.00    +0.000 C 
BRANCH  23  26
ATOM     25  C   UNL     1       2.571   2.197  17.652  0.00  0.00    +0.000 C 
ATOM     26  C   UNL     1       1.741   2.945  18.693  0.00  0.00    +0.000 C 
ENDBRANCH  23  26
ENDBRANCH  22  23
ENDBRANCH   1  22
TORSDOF 5
ENDMDL
