MODEL 1
REMARK VINA RESULT:      -8.0      0.000      0.000
REMARK  Name = 
REMARK  6 active torsions:
REMARK  status: ('A' for Active; 'I' for Inactive)
REMARK    1  A    between atoms: C_1  and  C_2
REMARK    2  A    between atoms: C_2  and  N_3
REMARK    3  A    between atoms: C_7  and  C_8
REMARK    4  A    between atoms: C_17  and  N_18
REMARK    5  A    between atoms: C_19  and  C_21
REMARK    6  A    between atoms: C_26  and  C_27
REMARK                            x       y       z     vdW  Elec       q    Type
REMARK                         _______ _______ _______ _____ _____    ______ ____
ROOT
ATOM      1  C   UNL     1       5.327   6.690  16.445  0.00  0.00    +0.000 C 
ATOM      2  C   UNL     1       6.379   5.601  16.721  0.00  0.00    +0.000 C 
ATOM      3  C   UNL     1       7.237   5.271  15.482  0.00  0.00    +0.000 C 
ATOM      4  C   UNL     1       6.405   4.342  14.619  0.00  0.00    +0.000 C 
ATOM      5  C   UNL     1       5.429   3.644  15.568  0.00  0.00    +0.000 C 
ATOM      6  C   UNL     1       5.695   4.212  16.971  0.00  0.00    +0.000 C 
ENDROOT
BRANCH   2   7
ATOM      7  N   UNL     1       7.215   5.966  17.891  0.00  0.00    +0.000 N 
ATOM      8  C   UNL     1       7.765   7.254  17.971  0.00  0.00    +0.000 A 
ATOM      9  C   UNL     1       8.519   7.627  19.086  0.00  0.00    +0.000 A 
ATOM     10  N   UNL     1       9.009   8.880  19.294  0.00  0.00    +0.000 NA
ATOM     11  C   UNL     1       8.713   9.797  18.332  0.00  0.00    +0.000 A 
ATOM     12  C   UNL     1       7.999   9.424  17.207  0.00  0.00    +0.000 A 
ATOM     13  N   UNL     1       7.518   8.172  17.016  0.00  0.00    +0.000 NA
ATOM     14  H   UNL     1       7.940   5.277  18.074  0.00  0.00    +0.000 HD
BRANCH  11  15
ATOM     15  C   UNL     1       9.100  11.253  18.472  0.00  0.00    +0.000 C 
ATOM     16  F   UNL     1       8.364  12.111  17.715  0.00  0.00    +0.000 F 
ATOM     17  F   UNL     1       8.999  11.702  19.755  0.00  0.00    +0.000 F 
ATOM     18  F   UNL     1      10.403  11.473  18.117  0.00  0.00    +0.000 F 
ENDBRANCH  11  15
ENDBRANCH   2   7
BRANCH   6  19
ATOM     19  N   UNL     1       4.485   4.199  17.785  0.00  0.00    +0.000 N 
ATOM     20  C   UNL     1       4.607   4.264  19.165  0.00  0.00    +0.000 C 
ATOM     21  O   UNL     1       5.648   4.607  19.712  0.00  0.00    +0.000 OA
ATOM     22  H   UNL     1       3.635   3.807  17.399  0.00  0.00    +0.000 HD
BRANCH  20  23
ATOM     23  C   UNL     1       3.400   3.922  19.979  0.00  0.00    +0.000 A 
ATOM     24  C   UNL     1       3.316   2.653  20.572  0.00  0.00    +0.000 A 
ATOM     25  C   UNL     1       2.109   2.214  21.116  0.00  0.00    +0.000 A 
ATOM     26  C   UNL     1       0.981   3.032  21.067  0.00  0.00    +0.000 A 
ATOM     27  C   UNL     1       1.074   4.318  20.530  0.00  0.00    +0.000 A 
ATOM     28  C   UNL     1       2.290   4.799  20.004  0.00  0.00    +0.000 A 
BRANCH  28  29
ATOM     29  C   UNL     1       2.385   6.158  19.466  0.00  0.00    +0.000 A 
ATOM     30  N   UNL     1       2.475   6.281  18.124  0.00  0.00    +0.000 NA
ATOM     31  C   UNL     1       2.192   7.498  17.628  0.00  0.00    +0.000 A 
ATOM     32  C   UNL     1       1.879   8.582  18.413  0.00  0.00    +0.000 A 
ATOM     33  C   UNL     1       1.933   8.368  19.772  0.00  0.00    +0.000 A 
ATOM     34  N   UNL     1       2.202   7.175  20.330  0.00  0.00    +0.000 NA
ENDBRANCH  28  29
ENDBRANCH  20  23
ENDBRANCH   6  19
TORSDOF 5
ENDMDL
MODEL 2
REMARK VINA RESULT:      -8.0      5.090      8.055
REMARK  Name = 
REMARK  6 active torsions:
REMARK  status: ('A' for Active; 'I' for Inactive)
REMARK    1  A    between atoms: C_1  and  C_2
REMARK    2  A    between atoms: C_2  and  N_3
REMARK    3  A    between atoms: C_7  and  C_8
REMARK    4  A    between atoms: C_17  and  N_18
REMARK    5  A    between atoms: C_19  and  C_21
REMARK    6  A    between atoms: C_26  and  C_27
REMARK                            x       y       z     vdW  Elec       q    Type
REMARK                         _______ _______ _______ _____ _____    ______ ____
ROOT
ATOM      1  C   UNL     1      -0.253   9.625  18.166  0.00  0.00    +0.000 C 
ATOM      2  C   UNL     1       0.936   9.919  19.099  0.00  0.00    +0.000 C 
ATOM      3  C   UNL     1       1.408  11.386  19.022  0.00  0.00    +0.000 C 
ATOM      4  C   UNL     1       2.272  11.495  17.780  0.00  0.00    +0.000 C 
ATOM      5  C   UNL     1       2.818  10.090  17.520  0.00  0.00    +0.000 C 
ATOM      6  C   UNL     1       2.229   9.179  18.609  0.00  0.00    +0.000 C 
ENDROOT
BRANCH   2   7
ATOM      7  N   UNL     1       0.621   9.511  20.490  0.00  0.00    +0.000 N 
ATOM      8  C   UNL     1      -0.207  10.325  21.277  0.00  0.00    +0.000 A 
ATOM      9  C   UNL     1      -0.546   9.934  22.574  0.00  0.00    +0.000 A 
ATOM     10  N   UNL     1      -1.419  10.608  23.373  0.00  0.00    +0.000 NA
ATOM     11  C   UNL     1      -1.977  11.723  22.828  0.00  0.00    +0.000 A 
ATOM     12  C   UNL     1      -1.616  12.136  21.558  0.00  0.00    +0.000 A 
ATOM     13  N   UNL     1      -0.747  11.453  20.776  0.00  0.00    +0.000 NA
ATOM     14  H   UNL     1       1.458   9.271  21.017  0.00  0.00    +0.000 HD
BRANCH  11  15
ATOM     15  C   UNL     1      -3.040  12.519  23.553  0.00  0.00    +0.000 C 
ATOM     16  F   UNL     1      -3.755  11.810  24.469  0.00  0.00    +0.000 F 
ATOM     17  F   UNL     1      -2.528  13.590  24.223  0.00  0.00    +0.000 F 
ATOM     18  F   UNL     1      -3.964  13.044  22.691  0.00  0.00    +0.000 F 
ENDBRANCH  11  15
ENDBRANCH   2   7
BRANCH   6  19
ATOM     19  N   UNL     1       2.075   7.811  18.127  0.00  0.00    +0.000 N 
ATOM     20  C   UNL     1       2.404   6.762  18.974  0.00  0.00    +0.000 C 
ATOM     21  O   UNL     1       2.551   6.921  20.180  0.00  0.00    +0.000 OA
ATOM     22  H   UNL     1       2.073   7.636  17.130  0.00  0.00    +0.000 HD
BRANCH  20  23
ATOM     23  C   UNL     1       2.552   5.405  18.363  0.00  0.00    +0.000 A 
ATOM     24  C   UNL     1       1.408   4.614  18.179  0.00  0.00    +0.000 A 
ATOM     25  C   UNL     1       1.538   3.263  17.854  0.00  0.00    +0.000 A 
ATOM     26  C   UNL     1       2.804   2.694  17.719  0.00  0.00    +0.000 A 
ATOM     27  C   UNL     1       3.944   3.492  17.844  0.00  0.00    +0.000 A 
ATOM     28  C   UNL     1       3.840   4.866  18.139  0.00  0.00    +0.000 A 
BRANCH  28  29
ATOM     29  C   UNL     1       5.041   5.699  18.243  0.00  0.00    +0.000 A 
ATOM     30  N   UNL     1       5.960   5.337  19.165  0.00  0.00    +0.000 NA
ATOM     31  C   UNL     1       7.186   5.863  19.004  0.00  0.00    +0.000 A 
ATOM     32  C   UNL     1       7.504   6.757  18.010  0.00  0.00    +0.000 A 
ATOM     33  C   UNL     1       6.458   7.144  17.202  0.00  0.00    +0.000 A 
ATOM     34  N   UNL     1       5.212   6.650  17.305  0.00  0.00    +0.000 NA
ENDBRANCH  28  29
ENDBRANCH  20  23
ENDBRANCH   6  19
TORSDOF 5
ENDMDL
MODEL 3
REMARK VINA RESULT:      -7.6      5.657      9.026
REMARK  Name = 
REMARK  6 active torsions:
REMARK  status: ('A' for Active; 'I' for Inactive)
REMARK    1  A    between atoms: C_1  and  C_2
REMARK    2  A    between atoms: C_2  and  N_3
REMARK    3  A    between atoms: C_7  and  C_8
REMARK    4  A    between atoms: C_17  and  N_18
REMARK    5  A    between atoms: C_19  and  C_21
REMARK    6  A    between atoms: C_26  and  C_27
REMARK                            x       y       z     vdW  Elec       q    Type
REMARK                         _______ _______ _______ _____ _____    ______ ____
ROOT
ATOM      1  C   UNL     1       1.707  11.272  19.024  0.00  0.00    +0.000 C 
ATOM      2  C   UNL     1       0.538  10.308  19.300  0.00  0.00    +0.000 C 
ATOM      3  C   UNL     1      -0.363  10.779  20.460  0.00  0.00    +0.000 C 
ATOM      4  C   UNL     1       0.348  10.389  21.742  0.00  0.00    +0.000 C 
ATOM      5  C   UNL     1       1.246   9.204  21.383  0.00  0.00    +0.000 C 
ATOM      6  C   UNL     1       1.059   8.947  19.879  0.00  0.00    +0.000 C 
ENDROOT
BRANCH   2   7
ATOM      7  N   UNL     1      -0.239  10.061  18.061  0.00  0.00    +0.000 N 
ATOM      8  C   UNL     1      -1.569  10.499  17.981  0.00  0.00    +0.000 A 
ATOM      9  C   UNL     1      -2.300  10.310  16.806  0.00  0.00    +0.000 A 
ATOM     10  N   UNL     1      -3.560  10.785  16.604  0.00  0.00    +0.000 NA
ATOM     11  C   UNL     1      -4.097  11.491  17.638  0.00  0.00    +0.000 A 
ATOM     12  C   UNL     1      -3.392  11.648  18.818  0.00  0.00    +0.000 A 
ATOM     13  N   UNL     1      -2.139  11.169  19.001  0.00  0.00    +0.000 NA
ATOM     14  H   UNL     1      -0.184   9.090  17.762  0.00  0.00    +0.000 HD
BRANCH  11  15
ATOM     15  C   UNL     1      -5.445  12.168  17.525  0.00  0.00    +0.000 C 
ATOM     16  F   UNL     1      -6.509  11.320  17.534  0.00  0.00    +0.000 F 
ATOM     17  F   UNL     1      -5.669  13.063  18.529  0.00  0.00    +0.000 F 
ATOM     18  F   UNL     1      -5.560  12.891  16.369  0.00  0.00    +0.000 F 
ENDBRANCH  11  15
ENDBRANCH   2   7
BRANCH   6  19
ATOM     19  N   UNL     1       2.268   8.386  19.285  0.00  0.00    +0.000 N 
ATOM     20  C   UNL     1       2.153   7.616  18.138  0.00  0.00    +0.000 C 
ATOM     21  O   UNL     1       1.137   7.615  17.453  0.00  0.00    +0.000 OA
ATOM     22  H   UNL     1       3.090   8.262  19.863  0.00  0.00    +0.000 HD
BRANCH  20  23
ATOM     23  C   UNL     1       3.337   6.793  17.741  0.00  0.00    +0.000 A 
ATOM     24  C   UNL     1       4.314   7.362  16.911  0.00  0.00    +0.000 A 
ATOM     25  C   UNL     1       5.286   6.555  16.321  0.00  0.00    +0.000 A 
ATOM     26  C   UNL     1       5.286   5.179  16.547  0.00  0.00    +0.000 A 
ATOM     27  C   UNL     1       4.350   4.616  17.419  0.00  0.00    +0.000 A 
ATOM     28  C   UNL     1       3.378   5.413  18.054  0.00  0.00    +0.000 A 
BRANCH  28  29
ATOM     29  C   UNL     1       2.417   4.818  18.986  0.00  0.00    +0.000 A 
ATOM     30  N   UNL     1       1.560   3.904  18.482  0.00  0.00    +0.000 NA
ATOM     31  C   UNL     1       0.954   3.112  19.382  0.00  0.00    +0.000 A 
ATOM     32  C   UNL     1       1.131   3.234  20.740  0.00  0.00    +0.000 A 
ATOM     33  C   UNL     1       1.934   4.277  21.143  0.00  0.00    +0.000 A 
ATOM     34  N   UNL     1       2.575   5.098  20.294  0.00  0.00    +0.000 NA
ENDBRANCH  28  29
ENDBRANCH  20  23
ENDBRANCH   6  19
TORSDOF 5
ENDMDL
MODEL 4
REMARK VINA RESULT:      -7.5      4.935      7.762
REMARK  Name = 
REMARK  6 active torsions:
REMARK  status: ('A' for Active; 'I' for Inactive)
REMARK    1  A    between atoms: C_1  and  C_2
REMARK    2  A    between atoms: C_2  and  N_3
REMARK    3  A    between atoms: C_7  and  C_8
REMARK    4  A    between atoms: C_17  and  N_18
REMARK    5  A    between atoms: C_19  and  C_21
REMARK    6  A    between atoms: C_26  and  C_27
REMARK                            x       y       z     vdW  Elec       q    Type
REMARK                         _______ _______ _______ _____ _____    ______ ____
ROOT
ATOM      1  C   UNL     1      -0.251   9.230  18.319  0.00  0.00    +0.000 C 
ATOM      2  C   UNL     1       1.008   9.483  19.169  0.00  0.00    +0.000 C 
ATOM      3  C   UNL     1       1.620  10.879  18.930  0.00  0.00    +0.000 C 
ATOM      4  C   UNL     1       2.425  10.782  17.648  0.00  0.00    +0.000 C 
ATOM      5  C   UNL     1       2.813   9.310  17.503  0.00  0.00    +0.000 C 
ATOM      6  C   UNL     1       2.194   8.569  18.699  0.00  0.00    +0.000 C 
ENDROOT
BRANCH   2   7
ATOM      7  N   UNL     1       0.726   9.240  20.605  0.00  0.00    +0.000 N 
ATOM      8  C   UNL     1      -0.079  10.145  21.312  0.00  0.00    +0.000 A 
ATOM      9  C   UNL     1      -0.387   9.908  22.654  0.00  0.00    +0.000 A 
ATOM     10  N   UNL     1      -1.236  10.677  23.391  0.00  0.00    +0.000 NA
ATOM     11  C   UNL     1      -1.802  11.727  22.735  0.00  0.00    +0.000 A 
ATOM     12  C   UNL     1      -1.470  11.988  21.417  0.00  0.00    +0.000 A 
ATOM     13  N   UNL     1      -0.624  11.212  20.698  0.00  0.00    +0.000 NA
ATOM     14  H   UNL     1       1.574   9.055  21.136  0.00  0.00    +0.000 HD
BRANCH  11  15
ATOM     15  C   UNL     1      -2.842  12.609  23.390  0.00  0.00    +0.000 C 
ATOM     16  F   UNL     1      -3.696  13.220  22.524  0.00  0.00    +0.000 F 
ATOM     17  F   UNL     1      -3.625  11.930  24.275  0.00  0.00    +0.000 F 
ATOM     18  F   UNL     1      -2.272  13.618  24.117  0.00  0.00    +0.000 F 
ENDBRANCH  11  15
ENDBRANCH   2   7
BRANCH   6  19
ATOM     19  N   UNL     1       1.878   7.187  18.359  0.00  0.00    +0.000 N 
ATOM     20  C   UNL     1       2.458   6.167  19.099  0.00  0.00    +0.000 C 
ATOM     21  O   UNL     1       2.993   6.371  20.182  0.00  0.00    +0.000 OA
ATOM     22  H   UNL     1       1.548   6.971  17.427  0.00  0.00    +0.000 HD
BRANCH  20  23
ATOM     23  C   UNL     1       2.386   4.783  18.538  0.00  0.00    +0.000 A 
ATOM     24  C   UNL     1       1.230   4.019  18.758  0.00  0.00    +0.000 A 
ATOM     25  C   UNL     1       1.231   2.653  18.473  0.00  0.00    +0.000 A 
ATOM     26  C   UNL     1       2.381   2.042  17.976  0.00  0.00    +0.000 A 
ATOM     27  C   UNL     1       3.516   2.810  17.701  0.00  0.00    +0.000 A 
ATOM     28  C   UNL     1       3.531   4.197  17.948  0.00  0.00    +0.000 A 
BRANCH  28  29
ATOM     29  C   UNL     1       4.716   4.998  17.633  0.00  0.00    +0.000 A 
ATOM     30  N   UNL     1       4.584   5.936  16.670  0.00  0.00    +0.000 NA
ATOM     31  C   UNL     1       5.531   6.889  16.649  0.00  0.00    +0.000 A 
ATOM     32  C   UNL     1       6.608   6.908  17.502  0.00  0.00    +0.000 A 
ATOM     33  C   UNL     1       6.702   5.837  18.363  0.00  0.00    +0.000 A 
ATOM     34  N   UNL     1       5.786   4.857  18.440  0.00  0.00    +0.000 NA
ENDBRANCH  28  29
ENDBRANCH  20  23
ENDBRANCH   6  19
TORSDOF 5
ENDMDL
MODEL 5
REMARK VINA RESULT:      -7.4      5.279      8.161
REMARK  Name = 
REMARK  6 active torsions:
REMARK  status: ('A' for Active; 'I' for Inactive)
REMARK    1  A    between atoms: C_1  and  C_2
REMARK    2  A    between atoms: C_2  and  N_3
REMARK    3  A    between atoms: C_7  and  C_8
REMARK    4  A    between atoms: C_17  and  N_18
REMARK    5  A    between atoms: C_19  and  C_21
REMARK    6  A    between atoms: C_26  and  C_27
REMARK                            x       y       z     vdW  Elec       q    Type
REMARK                         _______ _______ _______ _____ _____    ______ ____
ROOT
ATOM      1  C   UNL     1      -0.504   9.471  18.625  0.00  0.00    +0.000 C 
ATOM      2  C   UNL     1       0.725   9.885  19.454  0.00  0.00    +0.000 C 
ATOM      3  C   UNL     1       1.289  11.260  19.041  0.00  0.00    +0.000 C 
ATOM      4  C   UNL     1       2.125  11.026  17.798  0.00  0.00    +0.000 C 
ATOM      5  C   UNL     1       2.572   9.564  17.858  0.00  0.00    +0.000 C 
ATOM      6  C   UNL     1       1.955   8.965  19.132  0.00  0.00    +0.000 C 
ENDROOT
BRANCH   2   7
ATOM      7  N   UNL     1       0.421   9.824  20.905  0.00  0.00    +0.000 N 
ATOM      8  C   UNL     1      -0.522  10.709  21.449  0.00  0.00    +0.000 A 
ATOM      9  C   UNL     1      -0.849  10.636  22.806  0.00  0.00    +0.000 A 
ATOM     10  N   UNL     1      -1.819  11.385  23.399  0.00  0.00    +0.000 NA
ATOM     11  C   UNL     1      -2.490  12.239  22.579  0.00  0.00    +0.000 A 
ATOM     12  C   UNL     1      -2.144  12.343  21.243  0.00  0.00    +0.000 A 
ATOM     13  N   UNL     1      -1.177  11.589  20.668  0.00  0.00    +0.000 NA
ATOM     14  H   UNL     1       1.264   9.837  21.474  0.00  0.00    +0.000 HD
BRANCH  11  15
ATOM     15  C   UNL     1      -3.661  13.062  23.070  0.00  0.00    +0.000 C 
ATOM     16  F   UNL     1      -3.816  13.079  24.422  0.00  0.00    +0.000 F 
ATOM     17  F   UNL     1      -3.585  14.367  22.683  0.00  0.00    +0.000 F 
ATOM     18  F   UNL     1      -4.851  12.609  22.569  0.00  0.00    +0.000 F 
ENDBRANCH  11  15
ENDBRANCH   2   7
BRANCH   6  19
ATOM     19  N   UNL     1       1.699   7.538  18.974  0.00  0.00    +0.000 N 
ATOM     20  C   UNL     1       1.921   6.696  20.054  0.00  0.00    +0.000 C 
ATOM     21  O   UNL     1       2.052   7.121  21.196  0.00  0.00    +0.000 OA
ATOM     22  H   UNL     1       1.706   7.135  18.045  0.00  0.00    +0.000 HD
BRANCH  20  23
ATOM     23  C   UNL     1       1.971   5.226  19.782  0.00  0.00    +0.000 A 
ATOM     24  C   UNL     1       0.922   4.414  20.239  0.00  0.00    +0.000 A 
ATOM     25  C   UNL     1       1.058   3.025  20.228  0.00  0.00    +0.000 A 
ATOM     26  C   UNL     1       2.238   2.441  19.769  0.00  0.00    +0.000 A 
ATOM     27  C   UNL     1       3.262   3.244  19.259  0.00  0.00    +0.000 A 
ATOM     28  C   UNL     1       3.136   4.647  19.227  0.00  0.00    +0.000 A 
BRANCH  28  29
ATOM     29  C   UNL     1       4.204   5.479  18.667  0.00  0.00    +0.000 A 
ATOM     30  N   UNL     1       5.417   5.399  19.257  0.00  0.00    +0.000 NA
ATOM     31  C   UNL     1       6.450   5.861  18.533  0.00  0.00    +0.000 A 
ATOM     32  C   UNL     1       6.310   6.433  17.291  0.00  0.00    +0.000 A 
ATOM     33  C   UNL     1       5.016   6.570  16.842  0.00  0.00    +0.000 A 
ATOM     34  N   UNL     1       3.941   6.122  17.514  0.00  0.00    +0.000 NA
ENDBRANCH  28  29
ENDBRANCH  20  23
ENDBRANCH   6  19
TORSDOF 5
ENDMDL
MODEL 6
REMARK VINA RESULT:      -7.3      3.535      7.072
REMARK  Name = 
REMARK  6 active torsions:
REMARK  status: ('A' for Active; 'I' for Inactive)
REMARK    1  A    between atoms: C_1  and  C_2
REMARK    2  A    between atoms: C_2  and  N_3
REMARK    3  A    between atoms: C_7  and  C_8
REMARK    4  A    between atoms: C_17  and  N_18
REMARK    5  A    between atoms: C_19  and  C_21
REMARK    6  A    between atoms: C_26  and  C_27
REMARK                            x       y       z     vdW  Elec       q    Type
REMARK                         _______ _______ _______ _____ _____    ______ ____
ROOT
ATOM      1  C   UNL     1       4.670   4.391  19.508  0.00  0.00    +0.000 C 
ATOM      2  C   UNL     1       3.257   4.576  18.925  0.00  0.00    +0.000 C 
ATOM      3  C   UNL     1       2.155   3.988  19.831  0.00  0.00    +0.000 C 
ATOM      4  C   UNL     1       2.138   2.493  19.572  0.00  0.00    +0.000 C 
ATOM      5  C   UNL     1       2.700   2.302  18.162  0.00  0.00    +0.000 C 
ATOM      6  C   UNL     1       3.064   3.700  17.638  0.00  0.00    +0.000 C 
ENDROOT
BRANCH   2   7
ATOM      7  N   UNL     1       3.008   6.002  18.603  0.00  0.00    +0.000 N 
ATOM      8  C   UNL     1       2.226   6.778  19.471  0.00  0.00    +0.000 A 
ATOM      9  C   UNL     1       2.016   8.133  19.203  0.00  0.00    +0.000 A 
ATOM     10  N   UNL     1       1.355   8.984  20.035  0.00  0.00    +0.000 NA
ATOM     11  C   UNL     1       0.895   8.437  21.194  0.00  0.00    +0.000 A 
ATOM     12  C   UNL     1       1.067   7.088  21.447  0.00  0.00    +0.000 A 
ATOM     13  N   UNL     1       1.727   6.255  20.608  0.00  0.00    +0.000 NA
ATOM     14  H   UNL     1       2.678   6.127  17.648  0.00  0.00    +0.000 HD
BRANCH  11  15
ATOM     15  C   UNL     1       0.232   9.277  22.264  0.00  0.00    +0.000 C 
ATOM     16  F   UNL     1       0.968   9.438  23.397  0.00  0.00    +0.000 F 
ATOM     17  F   UNL     1      -0.073  10.534  21.831  0.00  0.00    +0.000 F 
ATOM     18  F   UNL     1      -0.959   8.740  22.671  0.00  0.00    +0.000 F 
ENDBRANCH  11  15
ENDBRANCH   2   7
BRANCH   6  19
ATOM     19  N   UNL     1       4.177   3.638  16.698  0.00  0.00    +0.000 N 
ATOM     20  C   UNL     1       4.547   4.792  16.023  0.00  0.00    +0.000 C 
ATOM     21  O   UNL     1       4.172   5.903  16.378  0.00  0.00    +0.000 OA
ATOM     22  H   UNL     1       4.432   2.746  16.292  0.00  0.00    +0.000 HD
BRANCH  20  23
ATOM     23  C   UNL     1       5.454   4.639  14.843  0.00  0.00    +0.000 A 
ATOM     24  C   UNL     1       4.919   4.181  13.629  0.00  0.00    +0.000 A 
ATOM     25  C   UNL     1       5.769   3.788  12.595  0.00  0.00    +0.000 A 
ATOM     26  C   UNL     1       7.152   3.841  12.767  0.00  0.00    +0.000 A 
ATOM     27  C   UNL     1       7.688   4.350  13.953  0.00  0.00    +0.000 A 
ATOM     28  C   UNL     1       6.852   4.785  15.000  0.00  0.00    +0.000 A 
BRANCH  28  29
ATOM     29  C   UNL     1       7.423   5.341  16.229  0.00  0.00    +0.000 A 
ATOM     30  N   UNL     1       7.363   6.683  16.381  0.00  0.00    +0.000 NA
ATOM     31  C   UNL     1       7.541   7.138  17.632  0.00  0.00    +0.000 A 
ATOM     32  C   UNL     1       7.820   6.322  18.703  0.00  0.00    +0.000 A 
ATOM     33  C   UNL     1       7.975   4.986  18.408  0.00  0.00    +0.000 A 
ATOM     34  N   UNL     1       7.803   4.467  17.180  0.00  0.00    +0.000 NA
ENDBRANCH  28  29
ENDBRANCH  20  23
ENDBRANCH   6  19
TORSDOF 5
ENDMDL
MODEL 7
REMARK VINA RESULT:      -7.2      6.639     10.426
REMARK  Name = 
REMARK  6 active torsions:
REMARK  status: ('A' for Active; 'I' for Inactive)
REMARK    1  A    between atoms: C_1  and  C_2
REMARK    2  A    between atoms: C_2  and  N_3
REMARK    3  A    between atoms: C_7  and  C_8
REMARK    4  A    between atoms: C_17  and  N_18
REMARK    5  A    between atoms: C_19  and  C_21
REMARK    6  A    between atoms: C_26  and  C_27
REMARK                            x       y       z     vdW  Elec       q    Type
REMARK                         _______ _______ _______ _____ _____    ______ ____
ROOT
ATOM      1  C   UNL     1      -1.412  11.761  18.504  0.00  0.00    +0.000 C 
ATOM      2  C   UNL     1      -0.084  11.417  19.203  0.00  0.00    +0.000 C 
ATOM      3  C   UNL     1      -0.286  10.629  20.514  0.00  0.00    +0.000 C 
ATOM      4  C   UNL     1      -0.658  11.647  21.575  0.00  0.00    +0.000 C 
ATOM      5  C   UNL     1      -0.070  12.979  21.106  0.00  0.00    +0.000 C 
ATOM      6  C   UNL     1       0.610  12.711  19.754  0.00  0.00    +0.000 C 
ENDROOT
BRANCH   2   7
ATOM      7  N   UNL     1       0.831  10.715  18.270  0.00  0.00    +0.000 N 
ATOM      8  C   UNL     1       1.441   9.518  18.673  0.00  0.00    +0.000 A 
ATOM      9  C   UNL     1       2.273   8.824  17.791  0.00  0.00    +0.000 A 
ATOM     10  N   UNL     1       2.829   7.610  18.058  0.00  0.00    +0.000 NA
ATOM     11  C   UNL     1       2.519   7.074  19.271  0.00  0.00    +0.000 A 
ATOM     12  C   UNL     1       1.727   7.774  20.163  0.00  0.00    +0.000 A 
ATOM     13  N   UNL     1       1.182   8.981  19.880  0.00  0.00    +0.000 NA
ATOM     14  H   UNL     1       1.535  11.339  17.883  0.00  0.00    +0.000 HD
BRANCH  11  15
ATOM     15  C   UNL     1       2.977   5.688  19.670  0.00  0.00    +0.000 C 
ATOM     16  F   UNL     1       2.429   5.219  20.824  0.00  0.00    +0.000 F 
ATOM     17  F   UNL     1       2.707   4.751  18.717  0.00  0.00    +0.000 F 
ATOM     18  F   UNL     1       4.331   5.630  19.855  0.00  0.00    +0.000 F 
ENDBRANCH  11  15
ENDBRANCH   2   7
BRANCH   6  19
ATOM     19  N   UNL     1       0.585  13.897  18.905  0.00  0.00    +0.000 N 
ATOM     20  C   UNL     1       1.214  15.050  19.349  0.00  0.00    +0.000 C 
ATOM     21  O   UNL     1       2.015  15.040  20.277  0.00  0.00    +0.000 OA
ATOM     22  H   UNL     1      -0.144  13.989  18.208  0.00  0.00    +0.000 HD
BRANCH  20  23
ATOM     23  C   UNL     1       0.900  16.325  18.632  0.00  0.00    +0.000 A 
ATOM     24  C   UNL     1      -0.432  16.760  18.570  0.00  0.00    +0.000 A 
ATOM     25  C   UNL     1      -0.790  17.794  17.704  0.00  0.00    +0.000 A 
ATOM     26  C   UNL     1       0.173  18.392  16.893  0.00  0.00    +0.000 A 
ATOM     27  C   UNL     1       1.511  18.001  16.994  0.00  0.00    +0.000 A 
ATOM     28  C   UNL     1       1.904  16.983  17.884  0.00  0.00    +0.000 A 
BRANCH  28  29
ATOM     29  C   UNL     1       3.313  16.598  18.001  0.00  0.00    +0.000 A 
ATOM     30  N   UNL     1       4.060  17.273  18.902  0.00  0.00    +0.000 NA
ATOM     31  C   UNL     1       5.213  16.684  19.262  0.00  0.00    +0.000 A 
ATOM     32  C   UNL     1       5.659  15.499  18.728  0.00  0.00    +0.000 A 
ATOM     33  C   UNL     1       4.873  14.962  17.734  0.00  0.00    +0.000 A 
ATOM     34  N   UNL     1       3.706  15.496  17.334  0.00  0.00    +0.000 NA
ENDBRANCH  28  29
ENDBRANCH  20  23
ENDBRANCH   6  19
TORSDOF 5
ENDMDL
MODEL 8
REMARK VINA RESULT:      -7.1      6.989     10.033
REMARK  Name = 
REMARK  6 active torsions:
REMARK  status: ('A' for Active; 'I' for Inactive)
REMARK    1  A    between atoms: C_1  and  C_2
REMARK    2  A    between atoms: C_2  and  N_3
REMARK    3  A    between atoms: C_7  and  C_8
REMARK    4  A    between atoms: C_17  and  N_18
REMARK    5  A    between atoms: C_19  and  C_21
REMARK    6  A    between atoms: C_26  and  C_27
REMARK                            x       y       z     vdW  Elec       q    Type
REMARK                         _______ _______ _______ _____ _____    ______ ____
ROOT
ATOM      1  C   UNL     1       0.160  12.329  18.712  0.00  0.00    +0.000 C 
ATOM      2  C   UNL     1      -0.762  11.144  19.052  0.00  0.00    +0.000 C 
ATOM      3  C   UNL     1      -1.274  10.406  17.798  0.00  0.00    +0.000 C 
ATOM      4  C   UNL     1      -2.426  11.231  17.255  0.00  0.00    +0.000 C 
ATOM      5  C   UNL     1      -2.984  12.013  18.445  0.00  0.00    +0.000 C 
ATOM      6  C   UNL     1      -2.118  11.645  19.661  0.00  0.00    +0.000 C 
ENDROOT
BRANCH   2   7
ATOM      7  N   UNL     1      -0.096  10.221  20.004  0.00  0.00    +0.000 N 
ATOM      8  C   UNL     1       0.764   9.228  19.514  0.00  0.00    +0.000 A 
ATOM      9  C   UNL     1       1.430   8.378  20.400  0.00  0.00    +0.000 A 
ATOM     10  N   UNL     1       2.355   7.452  20.024  0.00  0.00    +0.000 NA
ATOM     11  C   UNL     1       2.621   7.393  18.689  0.00  0.00    +0.000 A 
ATOM     12  C   UNL     1       1.936   8.205  17.803  0.00  0.00    +0.000 A 
ATOM     13  N   UNL     1       1.019   9.122  18.196  0.00  0.00    +0.000 NA
ATOM     14  H   UNL     1      -0.755   9.804  20.658  0.00  0.00    +0.000 HD
BRANCH  11  15
ATOM     15  C   UNL     1       3.696   6.487  18.130  0.00  0.00    +0.000 C 
ATOM     16  F   UNL     1       3.233   5.447  17.385  0.00  0.00    +0.000 F 
ATOM     17  F   UNL     1       4.583   7.153  17.338  0.00  0.00    +0.000 F 
ATOM     18  F   UNL     1       4.454   5.921  19.119  0.00  0.00    +0.000 F 
ENDBRANCH  11  15
ENDBRANCH   2   7
BRANCH   6  19
ATOM     19  N   UNL     1      -2.056  12.745  20.617  0.00  0.00    +0.000 N 
ATOM     20  C   UNL     1      -2.028  12.452  21.972  0.00  0.00    +0.000 C 
ATOM     21  O   UNL     1      -1.776  11.328  22.390  0.00  0.00    +0.000 OA
ATOM     22  H   UNL     1      -2.374  13.664  20.333  0.00  0.00    +0.000 HD
BRANCH  20  23
ATOM     23  C   UNL     1      -2.294  13.574  22.924  0.00  0.00    +0.000 A 
ATOM     24  C   UNL     1      -1.229  14.100  23.671  0.00  0.00    +0.000 A 
ATOM     25  C   UNL     1      -1.482  14.961  24.739  0.00  0.00    +0.000 A 
ATOM     26  C   UNL     1      -2.794  15.294  25.073  0.00  0.00    +0.000 A 
ATOM     27  C   UNL     1      -3.854  14.819  24.297  0.00  0.00    +0.000 A 
ATOM     28  C   UNL     1      -3.624  13.976  23.192  0.00  0.00    +0.000 A 
BRANCH  28  29
ATOM     29  C   UNL     1      -4.740  13.503  22.369  0.00  0.00    +0.000 A 
ATOM     30  N   UNL     1      -5.606  12.643  22.947  0.00  0.00    +0.000 NA
ATOM     31  C   UNL     1      -6.795  12.511  22.334  0.00  0.00    +0.000 A 
ATOM     32  C   UNL     1      -7.120  13.153  21.164  0.00  0.00    +0.000 A 
ATOM     33  C   UNL     1      -6.116  13.911  20.603  0.00  0.00    +0.000 A 
ATOM     34  N   UNL     1      -4.910  14.090  21.169  0.00  0.00    +0.000 NA
ENDBRANCH  28  29
ENDBRANCH  20  23
ENDBRANCH   6  19
TORSDOF 5
ENDMDL
MODEL 9
REMARK VINA RESULT:      -7.0      9.092     11.897
REMARK  Name = 
REMARK  6 active torsions:
REMARK  status: ('A' for Active; 'I' for Inactive)
REMARK    1  A    between atoms: C_1  and  C_2
REMARK    2  A    between atoms: C_2  and  N_3
REMARK    3  A    between atoms: C_7  and  C_8
REMARK    4  A    between atoms: C_17  and  N_18
REMARK    5  A    between atoms: C_19  and  C_21
REMARK    6  A    between atoms: C_26  and  C_27
REMARK                            x       y       z     vdW  Elec       q    Type
REMARK                         _______ _______ _______ _____ _____    ______ ____
ROOT
ATOM      1  C   UNL     1      -4.980  10.170  17.988  0.00  0.00    +0.000 C 
ATOM      2  C   UNL     1      -4.307  11.347  17.259  0.00  0.00    +0.000 C 
ATOM      3  C   UNL     1      -4.238  11.143  15.732  0.00  0.00    +0.000 C 
ATOM      4  C   UNL     1      -3.060  10.223  15.473  0.00  0.00    +0.000 C 
ATOM      5  C   UNL     1      -2.111  10.408  16.658  0.00  0.00    +0.000 C 
ATOM      6  C   UNL     1      -2.778  11.419  17.605  0.00  0.00    +0.000 C 
ENDROOT
BRANCH   2   7
ATOM      7  N   UNL     1      -4.963  12.628  17.619  0.00  0.00    +0.000 N 
ATOM      8  C   UNL     1      -5.494  12.793  18.906  0.00  0.00    +0.000 A 
ATOM      9  C   UNL     1      -6.078  14.009  19.273  0.00  0.00    +0.000 A 
ATOM     10  N   UNL     1      -6.531  14.293  20.525  0.00  0.00    +0.000 NA
ATOM     11  C   UNL     1      -6.376  13.303  21.447  0.00  0.00    +0.000 A 
ATOM     12  C   UNL     1      -5.834  12.084  21.080  0.00  0.00    +0.000 A 
ATOM     13  N   UNL     1      -5.387  11.819  19.829  0.00  0.00    +0.000 NA
ATOM     14  H   UNL     1      -5.655  12.910  16.929  0.00  0.00    +0.000 HD
BRANCH  11  15
ATOM     15  C   UNL     1      -6.737  13.506  22.903  0.00  0.00    +0.000 C 
ATOM     16  F   UNL     1      -5.812  13.042  23.787  0.00  0.00    +0.000 F 
ATOM     17  F   UNL     1      -6.934  14.818  23.216  0.00  0.00    +0.000 F 
ATOM     18  F   UNL     1      -7.907  12.879  23.232  0.00  0.00    +0.000 F 
ENDBRANCH  11  15
ENDBRANCH   2   7
BRANCH   6  19
ATOM     19  N   UNL     1      -2.394  11.178  18.991  0.00  0.00    +0.000 N 
ATOM     20  C   UNL     1      -1.065  11.335  19.354  0.00  0.00    +0.000 C 
ATOM     21  O   UNL     1      -0.261  11.926  18.642  0.00  0.00    +0.000 OA
ATOM     22  H   UNL     1      -2.980  10.589  19.571  0.00  0.00    +0.000 HD
BRANCH  20  23
ATOM     23  C   UNL     1      -0.640  10.773  20.673  0.00  0.00    +0.000 A 
ATOM     24  C   UNL     1      -0.168   9.453  20.731  0.00  0.00    +0.000 A 
ATOM     25  C   UNL     1      -0.008   8.822  21.964  0.00  0.00    +0.000 A 
ATOM     26  C   UNL     1      -0.322   9.497  23.143  0.00  0.00    +0.000 A 
ATOM     27  C   UNL     1      -0.737  10.831  23.093  0.00  0.00    +0.000 A 
ATOM     28  C   UNL     1      -0.875  11.502  21.863  0.00  0.00    +0.000 A 
BRANCH  28  29
ATOM     29  C   UNL     1      -1.286  12.908  21.822  0.00  0.00    +0.000 A 
ATOM     30  N   UNL     1      -0.303  13.833  21.781  0.00  0.00    +0.000 NA
ATOM     31  C   UNL     1      -0.671  15.061  21.376  0.00  0.00    +0.000 A 
ATOM     32  C   UNL     1      -1.967  15.400  21.069  0.00  0.00    +0.000 A 
ATOM     33  C   UNL     1      -2.903  14.408  21.260  0.00  0.00    +0.000 A 
ATOM     34  N   UNL     1      -2.599  13.160  21.655  0.00  0.00    +0.000 NA
ENDBRANCH  28  29
ENDBRANCH  20  23
ENDBRANCH   6  19
TORSDOF 5
ENDMDL
