MODEL 1
REMARK VINA RESULT:      -7.0      0.000      0.000
REMARK  Name = 
REMARK  2 active torsions:
REMARK  status: ('A' for Active; 'I' for Inactive)
REMARK    1  A    between atoms: C_5  and  C_6
REMARK    2  A    between atoms: C_6  and  C_7
REMARK                            x       y       z     vdW  Elec       q    Type
REMARK                         _______ _______ _______ _____ _____    ______ ____
ROOT
ATOM      1  N   UNL     1       8.439   6.910  19.173  0.00  0.00    +0.000 N 
ATOM      2  C   UNL     1       7.504   6.005  18.827  0.00  0.00    +0.000 A 
ATOM      3  N   UNL     1       6.858   5.238  19.674  0.00  0.00    +0.000 NA
ATOM      4  N   UNL     1       5.940   4.412  19.052  0.00  0.00    +0.000 NA
ATOM      5  C   UNL     1       5.929   4.585  17.747  0.00  0.00    +0.000 A 
ATOM      6  S   UNL     1       7.058   5.756  17.188  0.00  0.00    +0.000 S 
ATOM      7  H   UNL     1       8.816   6.824  20.113  0.00  0.00    +0.000 HD
ATOM      8  H   UNL     1       9.112   7.200  18.476  0.00  0.00    +0.000 HD
ENDROOT
BRANCH   5   9
ATOM      9  C   UNL     1       5.010   3.879  16.799  0.00  0.00    +0.000 C 
BRANCH   9  10
ATOM     10  C   UNL     1       3.686   3.499  17.428  0.00  0.00    +0.000 A 
ATOM     11  C   UNL     1       2.668   4.457  17.567  0.00  0.00    +0.000 A 
ATOM     12  C   UNL     1       1.467   4.125  18.196  0.00  0.00    +0.000 A 
ATOM     13  C   UNL     1       1.285   2.838  18.688  0.00  0.00    +0.000 A 
ATOM     14  F   UNL     1       0.140   2.525  19.311  0.00  0.00    +0.000 F 
ATOM     15  C   UNL     1       2.274   1.873  18.551  0.00  0.00    +0.000 A 
ATOM     16  C   UNL     1       3.475   2.201  17.920  0.00  0.00    +0.000 A 
ENDBRANCH   9  10
ENDBRANCH   5   9
TORSDOF 2
ENDMDL
MODEL 2
REMARK VINA RESULT:      -6.9      0.299      1.328
REMARK  Name = 
REMARK  2 active torsions:
REMARK  status: ('A' for Active; 'I' for Inactive)
REMARK    1  A    between atoms: C_5  and  C_6
REMARK    2  A    between atoms: C_6  and  C_7
REMARK                            x       y       z     vdW  Elec       q    Type
REMARK                         _______ _______ _______ _____ _____    ______ ____
ROOT
ATOM      1  N   UNL     1       8.349   7.263  18.715  0.00  0.00    +0.000 N 
ATOM      2  C   UNL     1       7.527   6.228  18.461  0.00  0.00    +0.000 A 
ATOM      3  N   UNL     1       7.165   5.327  19.346  0.00  0.00    +0.000 NA
ATOM      4  N   UNL     1       6.300   4.384  18.822  0.00  0.00    +0.000 NA
ATOM      5  C   UNL     1       6.040   4.607  17.551  0.00  0.00    +0.000 A 
ATOM      6  S   UNL     1       6.855   5.976  16.901  0.00  0.00    +0.000 S 
ATOM      7  H   UNL     1       8.889   7.203  19.574  0.00  0.00    +0.000 HD
ATOM      8  H   UNL     1       8.839   7.692  17.940  0.00  0.00    +0.000 HD
ENDROOT
BRANCH   5   9
ATOM      9  C   UNL     1       5.098   3.796  16.716  0.00  0.00    +0.000 C 
BRANCH   9  10
ATOM     10  C   UNL     1       3.794   3.490  17.421  0.00  0.00    +0.000 A 
ATOM     11  C   UNL     1       3.545   2.201  17.920  0.00  0.00    +0.000 A 
ATOM     12  C   UNL     1       2.321   1.900  18.522  0.00  0.00    +0.000 A 
ATOM     13  C   UNL     1       1.347   2.887  18.622  0.00  0.00    +0.000 A 
ATOM     14  F   UNL     1       0.166   2.592  19.181  0.00  0.00    +0.000 F 
ATOM     15  C   UNL     1       1.578   4.171  18.146  0.00  0.00    +0.000 A 
ATOM     16  C   UNL     1       2.801   4.475  17.546  0.00  0.00    +0.000 A 
ENDBRANCH   9  10
ENDBRANCH   5   9
TORSDOF 2
ENDMDL
MODEL 3
REMARK VINA RESULT:      -6.8      2.416      2.885
REMARK  Name = 
REMARK  2 active torsions:
REMARK  status: ('A' for Active; 'I' for Inactive)
REMARK    1  A    between atoms: C_5  and  C_6
REMARK    2  A    between atoms: C_6  and  C_7
REMARK                            x       y       z     vdW  Elec       q    Type
REMARK                         _______ _______ _______ _____ _____    ______ ____
ROOT
ATOM      1  N   UNL     1       7.833   4.500  16.410  0.00  0.00    +0.000 N 
ATOM      2  C   UNL     1       6.727   5.264  16.480  0.00  0.00    +0.000 A 
ATOM      3  N   UNL     1       6.205   5.917  15.468  0.00  0.00    +0.000 NA
ATOM      4  N   UNL     1       5.059   6.610  15.814  0.00  0.00    +0.000 NA
ATOM      5  C   UNL     1       4.757   6.456  17.087  0.00  0.00    +0.000 A 
ATOM      6  S   UNL     1       5.868   5.469  17.953  0.00  0.00    +0.000 S 
ATOM      7  H   UNL     1       8.410   4.627  15.583  0.00  0.00    +0.000 HD
ATOM      8  H   UNL     1       8.351   4.321  17.260  0.00  0.00    +0.000 HD
ENDROOT
BRANCH   5   9
ATOM      9  C   UNL     1       3.548   7.034  17.754  0.00  0.00    +0.000 C 
BRANCH   9  10
ATOM     10  C   UNL     1       2.712   5.994  18.469  0.00  0.00    +0.000 A 
ATOM     11  C   UNL     1       2.493   6.091  19.853  0.00  0.00    +0.000 A 
ATOM     12  C   UNL     1       1.768   5.104  20.524  0.00  0.00    +0.000 A 
ATOM     13  C   UNL     1       1.264   4.021  19.813  0.00  0.00    +0.000 A 
ATOM     14  F   UNL     1       0.587   3.064  20.461  0.00  0.00    +0.000 F 
ATOM     15  C   UNL     1       1.459   3.913  18.442  0.00  0.00    +0.000 A 
ATOM     16  C   UNL     1       2.181   4.898  17.768  0.00  0.00    +0.000 A 
ENDBRANCH   9  10
ENDBRANCH   5   9
TORSDOF 2
ENDMDL
MODEL 4
REMARK VINA RESULT:      -6.7      1.966      2.378
REMARK  Name = 
REMARK  2 active torsions:
REMARK  status: ('A' for Active; 'I' for Inactive)
REMARK    1  A    between atoms: C_5  and  C_6
REMARK    2  A    between atoms: C_6  and  C_7
REMARK                            x       y       z     vdW  Elec       q    Type
REMARK                         _______ _______ _______ _____ _____    ______ ____
ROOT
ATOM      1  N   UNL     1       7.620   5.339  14.786  0.00  0.00    +0.000 N 
ATOM      2  C   UNL     1       7.127   5.150  16.024  0.00  0.00    +0.000 A 
ATOM      3  N   UNL     1       7.739   4.488  16.979  0.00  0.00    +0.000 NA
ATOM      4  N   UNL     1       7.017   4.462  18.157  0.00  0.00    +0.000 NA
ATOM      5  C   UNL     1       5.874   5.108  18.048  0.00  0.00    +0.000 A 
ATOM      6  S   UNL     1       5.595   5.774  16.486  0.00  0.00    +0.000 S 
ATOM      7  H   UNL     1       8.398   4.742  14.520  0.00  0.00    +0.000 HD
ATOM      8  H   UNL     1       6.973   5.544  14.035  0.00  0.00    +0.000 HD
ENDROOT
BRANCH   5   9
ATOM      9  C   UNL     1       4.894   5.305  19.162  0.00  0.00    +0.000 C 
BRANCH   9  10
ATOM     10  C   UNL     1       3.675   4.415  19.043  0.00  0.00    +0.000 A 
ATOM     11  C   UNL     1       3.659   3.356  18.120  0.00  0.00    +0.000 A 
ATOM     12  C   UNL     1       2.517   2.568  17.968  0.00  0.00    +0.000 A 
ATOM     13  C   UNL     1       1.391   2.839  18.737  0.00  0.00    +0.000 A 
ATOM     14  F   UNL     1       0.289   2.095  18.577  0.00  0.00    +0.000 F 
ATOM     15  C   UNL     1       1.390   3.873  19.664  0.00  0.00    +0.000 A 
ATOM     16  C   UNL     1       2.531   4.662  19.820  0.00  0.00    +0.000 A 
ENDBRANCH   9  10
ENDBRANCH   5   9
TORSDOF 2
ENDMDL
MODEL 5
REMARK VINA RESULT:      -6.7      1.214      1.778
REMARK  Name = 
REMARK  2 active torsions:
REMARK  status: ('A' for Active; 'I' for Inactive)
REMARK    1  A    between atoms: C_5  and  C_6
REMARK    2  A    between atoms: C_6  and  C_7
REMARK                            x       y       z     vdW  Elec       q    Type
REMARK                         _______ _______ _______ _____ _____    ______ ____
ROOT
ATOM      1  N   UNL     1       8.221   5.530  19.854  0.00  0.00    +0.000 N 
ATOM      2  C   UNL     1       7.504   5.141  18.783  0.00  0.00    +0.000 A 
ATOM      3  N   UNL     1       8.015   4.636  17.684  0.00  0.00    +0.000 NA
ATOM      4  N   UNL     1       7.050   4.306  16.750  0.00  0.00    +0.000 NA
ATOM      5  C   UNL     1       5.836   4.579  17.180  0.00  0.00    +0.000 A 
ATOM      6  S   UNL     1       5.792   5.280  18.751  0.00  0.00    +0.000 S 
ATOM      7  H   UNL     1       9.219   5.645  19.702  0.00  0.00    +0.000 HD
ATOM      8  H   UNL     1       7.813   6.201  20.491  0.00  0.00    +0.000 HD
ENDROOT
BRANCH   5   9
ATOM      9  C   UNL     1       4.576   4.289  16.425  0.00  0.00    +0.000 C 
BRANCH   9  10
ATOM     10  C   UNL     1       3.453   3.795  17.312  0.00  0.00    +0.000 A 
ATOM     11  C   UNL     1       3.446   2.468  17.772  0.00  0.00    +0.000 A 
ATOM     12  C   UNL     1       2.385   1.994  18.544  0.00  0.00    +0.000 A 
ATOM     13  C   UNL     1       1.330   2.845  18.855  0.00  0.00    +0.000 A 
ATOM     14  F   UNL     1       0.302   2.383  19.579  0.00  0.00    +0.000 F 
ATOM     15  C   UNL     1       1.324   4.163  18.421  0.00  0.00    +0.000 A 
ATOM     16  C   UNL     1       2.384   4.642  17.650  0.00  0.00    +0.000 A 
ENDBRANCH   9  10
ENDBRANCH   5   9
TORSDOF 2
ENDMDL
MODEL 6
REMARK VINA RESULT:      -6.7      2.436      2.981
REMARK  Name = 
REMARK  2 active torsions:
REMARK  status: ('A' for Active; 'I' for Inactive)
REMARK    1  A    between atoms: C_5  and  C_6
REMARK    2  A    between atoms: C_6  and  C_7
REMARK                            x       y       z     vdW  Elec       q    Type
REMARK                         _______ _______ _______ _____ _____    ______ ____
ROOT
ATOM      1  N   UNL     1       7.816   4.626  16.330  0.00  0.00    +0.000 N 
ATOM      2  C   UNL     1       6.694   5.362  16.441  0.00  0.00    +0.000 A 
ATOM      3  N   UNL     1       6.138   6.028  15.456  0.00  0.00    +0.000 NA
ATOM      4  N   UNL     1       4.983   6.684  15.842  0.00  0.00    +0.000 NA
ATOM      5  C   UNL     1       4.710   6.490  17.115  0.00  0.00    +0.000 A 
ATOM      6  S   UNL     1       5.860   5.508  17.935  0.00  0.00    +0.000 S 
ATOM      7  H   UNL     1       8.374   4.788  15.496  0.00  0.00    +0.000 HD
ATOM      8  H   UNL     1       8.355   4.438  17.166  0.00  0.00    +0.000 HD
ENDROOT
BRANCH   5   9
ATOM      9  C   UNL     1       3.501   7.022  17.820  0.00  0.00    +0.000 C 
BRANCH   9  10
ATOM     10  C   UNL     1       2.713   5.948  18.539  0.00  0.00    +0.000 A 
ATOM     11  C   UNL     1       2.206   4.847  17.828  0.00  0.00    +0.000 A 
ATOM     12  C   UNL     1       1.433   3.883  18.477  0.00  0.00    +0.000 A 
ATOM     13  C   UNL     1       1.165   4.020  19.834  0.00  0.00    +0.000 A 
ATOM     14  F   UNL     1       0.405   3.105  20.451  0.00  0.00    +0.000 F 
ATOM     15  C   UNL     1       1.666   5.093  20.557  0.00  0.00    +0.000 A 
ATOM     16  C   UNL     1       2.442   6.058  19.913  0.00  0.00    +0.000 A 
ENDBRANCH   9  10
ENDBRANCH   5   9
TORSDOF 2
ENDMDL
MODEL 7
REMARK VINA RESULT:      -6.6      2.131      2.353
REMARK  Name = 
REMARK  2 active torsions:
REMARK  status: ('A' for Active; 'I' for Inactive)
REMARK    1  A    between atoms: C_5  and  C_6
REMARK    2  A    between atoms: C_6  and  C_7
REMARK                            x       y       z     vdW  Elec       q    Type
REMARK                         _______ _______ _______ _____ _____    ______ ____
ROOT
ATOM      1  N   UNL     1       7.300   5.230  14.577  0.00  0.00    +0.000 N 
ATOM      2  C   UNL     1       7.054   5.069  15.891  0.00  0.00    +0.000 A 
ATOM      3  N   UNL     1       7.872   4.489  16.739  0.00  0.00    +0.000 NA
ATOM      4  N   UNL     1       7.378   4.474  18.030  0.00  0.00    +0.000 NA
ATOM      5  C   UNL     1       6.194   5.044  18.111  0.00  0.00    +0.000 A 
ATOM      6  S   UNL     1       5.592   5.620  16.605  0.00  0.00    +0.000 S 
ATOM      7  H   UNL     1       8.056   4.670  14.194  0.00  0.00    +0.000 HD
ATOM      8  H   UNL     1       6.516   5.362  13.952  0.00  0.00    +0.000 HD
ENDROOT
BRANCH   5   9
ATOM      9  C   UNL     1       5.420   5.232  19.378  0.00  0.00    +0.000 C 
BRANCH   9  10
ATOM     10  C   UNL     1       4.060   4.567  19.347  0.00  0.00    +0.000 A 
ATOM     11  C   UNL     1       2.925   5.257  19.803  0.00  0.00    +0.000 A 
ATOM     12  C   UNL     1       1.679   4.627  19.827  0.00  0.00    +0.000 A 
ATOM     13  C   UNL     1       1.569   3.310  19.398  0.00  0.00    +0.000 A 
ATOM     14  F   UNL     1       0.376   2.700  19.440  0.00  0.00    +0.000 F 
ATOM     15  C   UNL     1       2.677   2.615  18.932  0.00  0.00    +0.000 A 
ATOM     16  C   UNL     1       3.923   3.241  18.904  0.00  0.00    +0.000 A 
ENDBRANCH   9  10
ENDBRANCH   5   9
TORSDOF 2
ENDMDL
MODEL 8
REMARK VINA RESULT:      -6.6      1.350      1.949
REMARK  Name = 
REMARK  2 active torsions:
REMARK  status: ('A' for Active; 'I' for Inactive)
REMARK    1  A    between atoms: C_5  and  C_6
REMARK    2  A    between atoms: C_6  and  C_7
REMARK                            x       y       z     vdW  Elec       q    Type
REMARK                         _______ _______ _______ _____ _____    ______ ____
ROOT
ATOM      1  N   UNL     1       8.346   7.037  18.932  0.00  0.00    +0.000 N 
ATOM      2  C   UNL     1       7.556   6.423  18.032  0.00  0.00    +0.000 A 
ATOM      3  N   UNL     1       7.458   6.765  16.768  0.00  0.00    +0.000 NA
ATOM      4  N   UNL     1       6.587   5.955  16.063  0.00  0.00    +0.000 NA
ATOM      5  C   UNL     1       6.052   5.025  16.827  0.00  0.00    +0.000 A 
ATOM      6  S   UNL     1       6.562   5.092  18.468  0.00  0.00    +0.000 S 
ATOM      7  H   UNL     1       8.704   7.948  18.662  0.00  0.00    +0.000 HD
ATOM      8  H   UNL     1       8.117   6.950  19.914  0.00  0.00    +0.000 HD
ENDROOT
BRANCH   5   9
ATOM      9  C   UNL     1       5.111   3.963  16.349  0.00  0.00    +0.000 C 
BRANCH   9  10
ATOM     10  C   UNL     1       3.922   3.768  17.265  0.00  0.00    +0.000 A 
ATOM     11  C   UNL     1       3.653   2.505  17.816  0.00  0.00    +0.000 A 
ATOM     12  C   UNL     1       2.526   2.309  18.617  0.00  0.00    +0.000 A 
ATOM     13  C   UNL     1       1.669   3.374  18.865  0.00  0.00    +0.000 A 
ATOM     14  F   UNL     1       0.577   3.181  19.617  0.00  0.00    +0.000 F 
ATOM     15  C   UNL     1       1.923   4.634  18.339  0.00  0.00    +0.000 A 
ATOM     16  C   UNL     1       3.049   4.834  17.540  0.00  0.00    +0.000 A 
ENDBRANCH   9  10
ENDBRANCH   5   9
TORSDOF 2
ENDMDL
MODEL 9
REMARK VINA RESULT:      -6.6      2.181      2.628
REMARK  Name = 
REMARK  2 active torsions:
REMARK  status: ('A' for Active; 'I' for Inactive)
REMARK    1  A    between atoms: C_5  and  C_6
REMARK    2  A    between atoms: C_6  and  C_7
REMARK                            x       y       z     vdW  Elec       q    Type
REMARK                         _______ _______ _______ _____ _____    ______ ____
ROOT
ATOM      1  N   UNL     1       7.772   4.355  17.166  0.00  0.00    +0.000 N 
ATOM      2  C   UNL     1       6.606   5.009  17.327  0.00  0.00    +0.000 A 
ATOM      3  N   UNL     1       6.480   6.316  17.351  0.00  0.00    +0.000 NA
ATOM      4  N   UNL     1       5.168   6.721  17.513  0.00  0.00    +0.000 NA
ATOM      5  C   UNL     1       4.345   5.698  17.609  0.00  0.00    +0.000 A 
ATOM      6  S   UNL     1       5.123   4.166  17.530  0.00  0.00    +0.000 S 
ATOM      7  H   UNL     1       8.614   4.907  17.299  0.00  0.00    +0.000 HD
ATOM      8  H   UNL     1       7.839   3.400  17.493  0.00  0.00    +0.000 HD
ENDROOT
BRANCH   5   9
ATOM      9  C   UNL     1       2.857   5.807  17.737  0.00  0.00    +0.000 C 
BRANCH   9  10
ATOM     10  C   UNL     1       2.295   4.957  18.857  0.00  0.00    +0.000 A 
ATOM     11  C   UNL     1       2.637   5.230  20.192  0.00  0.00    +0.000 A 
ATOM     12  C   UNL     1       2.165   4.415  21.222  0.00  0.00    +0.000 A 
ATOM     13  C   UNL     1       1.354   3.328  20.918  0.00  0.00    +0.000 A 
ATOM     14  F   UNL     1       0.918   2.534  21.906  0.00  0.00    +0.000 F 
ATOM     15  C   UNL     1       0.994   3.048  19.607  0.00  0.00    +0.000 A 
ATOM     16  C   UNL     1       1.463   3.862  18.574  0.00  0.00    +0.000 A 
ENDBRANCH   9  10
ENDBRANCH   5   9
TORSDOF 2
ENDMDL
