MODEL 1
REMARK VINA RESULT:      -7.3      0.000      0.000
REMARK  Name = 
REMARK  11 active torsions:
REMARK  status: ('A' for Active; 'I' for Inactive)
REMARK    1  A    between atoms: C_2  and  C_3
REMARK    2  A    between atoms: C_3  and  N_4
REMARK    3  A    between atoms: C_5  and  C_7
REMARK    4  A    between atoms: C_9  and  N_10
REMARK    5  A    between atoms: N_15  and  C_16
REMARK    6  A    between atoms: C_16  and  C_17
REMARK    7  A    between atoms: C_16  and  C_19
REMARK    8  A    between atoms: C_17  and  C_18
REMARK    9  A    between atoms: C_19  and  C_20
REMARK   10  A    between atoms: C_25  and  O_26
REMARK   11  A    between atoms: C_27  and  O_28
REMARK                            x       y       z     vdW  Elec       q    Type
REMARK                         _______ _______ _______ _____ _____    ______ ____
ROOT
ATOM      1  C   UNL     1       4.814   4.503  18.806  0.00  0.00    +0.000 C 
ATOM      2  O   UNL     1       4.482   5.838  19.224  0.00  0.00    +0.000 OA
ATOM      3  C   UNL     1       3.058   5.895  19.464  0.00  0.00    +0.000 C 
ATOM      4  C   UNL     1       2.432   4.640  18.860  0.00  0.00    +0.000 C 
ATOM      5  C   UNL     1       3.570   3.644  18.979  0.00  0.00    +0.000 C 
ENDROOT
BRANCH   3   6
ATOM      6  N   UNL     1       2.507   7.141  18.973  0.00  0.00    +0.000 N 
ATOM      7  C   UNL     1       2.776   7.693  17.746  0.00  0.00    +0.000 A 
ATOM      8  N   UNL     1       2.278   8.906  17.627  0.00  0.00    +0.000 NA
ATOM      9  C   UNL     1       1.651   9.146  18.838  0.00  0.00    +0.000 A 
ATOM     10  C   UNL     1       0.993  10.284  19.350  0.00  0.00    +0.000 A 
ATOM     11  N   UNL     1       0.883  11.451  18.606  0.00  0.00    +0.000 N 
ATOM     12  N   UNL     1       0.486  10.198  20.609  0.00  0.00    +0.000 NA
ATOM     13  C   UNL     1       0.651   9.050  21.301  0.00  0.00    +0.000 A 
ATOM     14  N   UNL     1       1.285   7.926  20.923  0.00  0.00    +0.000 NA
ATOM     15  C   UNL     1       1.763   8.046  19.671  0.00  0.00    +0.000 A 
ATOM     16  H   UNL     1       1.462  11.437  17.771  0.00  0.00    +0.000 HD
BRANCH  11  17
ATOM     17  C   UNL     1       0.693  12.731  19.277  0.00  0.00    +0.000 C 
BRANCH  17  18
ATOM     18  C   UNL     1       1.997  13.556  19.315  0.00  0.00    +0.000 C 
ATOM     19  C   UNL     1       2.996  13.260  18.206  0.00  0.00    +0.000 C 
ENDBRANCH  17  18
BRANCH  17  20
ATOM     20  C   UNL     1      -0.359  13.537  18.483  0.00  0.00    +0.000 C 
ATOM     21  C   UNL     1      -0.317  15.033  18.765  0.00  0.00    +0.000 C 
ENDBRANCH  17  20
ENDBRANCH  11  17
ENDBRANCH   3   6
BRANCH   1  23
ATOM     22  N   UNL     1       6.708   4.865  17.239  0.00  0.00    +0.000 N 
ATOM     23  C   UNL     1       5.403   4.444  17.383  0.00  0.00    +0.000 C 
ATOM     24  O   UNL     1       4.778   4.026  16.416  0.00  0.00    +0.000 OA
ATOM     25  H   UNL     1       7.096   4.705  16.317  0.00  0.00    +0.000 HD
BRANCH  22  26
ATOM     26  C   UNL     1       7.605   5.111  18.342  0.00  0.00    +0.000 C 
BRANCH  26  28
ATOM     27  C   UNL     1       7.559   7.467  17.531  0.00  0.00    +0.000 C 
ATOM     28  C   UNL     1       7.863   6.569  18.478  0.00  0.00    +0.000 C 
ENDBRANCH  26  28
ENDBRANCH  22  26
ENDBRANCH   1  23
BRANCH   4  29
ATOM     29  O   UNL     1       1.289   4.203  19.602  0.00  0.00    +0.000 OA
ATOM     30  H   UNL     1       0.544   4.171  18.963  0.00  0.00    +0.000 HD
ENDBRANCH   4  29
BRANCH   5  31
ATOM     31  O   UNL     1       3.527   3.064  20.306  0.00  0.00    +0.000 OA
ATOM     32  H   UNL     1       2.702   2.555  20.407  0.00  0.00    +0.000 HD
ENDBRANCH   5  31
TORSDOF 9
ENDMDL
MODEL 2
REMARK VINA RESULT:      -7.2      3.555      8.267
REMARK  Name = 
REMARK  11 active torsions:
REMARK  status: ('A' for Active; 'I' for Inactive)
REMARK    1  A    between atoms: C_2  and  C_3
REMARK    2  A    between atoms: C_3  and  N_4
REMARK    3  A    between atoms: C_5  and  C_7
REMARK    4  A    between atoms: C_9  and  N_10
REMARK    5  A    between atoms: N_15  and  C_16
REMARK    6  A    between atoms: C_16  and  C_17
REMARK    7  A    between atoms: C_16  and  C_19
REMARK    8  A    between atoms: C_17  and  C_18
REMARK    9  A    between atoms: C_19  and  C_20
REMARK   10  A    between atoms: C_25  and  O_26
REMARK   11  A    between atoms: C_27  and  O_28
REMARK                            x       y       z     vdW  Elec       q    Type
REMARK                         _______ _______ _______ _____ _____    ______ ____
ROOT
ATOM      1  C   UNL     1      -1.198  11.465  19.394  0.00  0.00    +0.000 C 
ATOM      2  O   UNL     1      -0.791  10.134  19.035  0.00  0.00    +0.000 OA
ATOM      3  C   UNL     1       0.262   9.726  19.938  0.00  0.00    +0.000 C 
ATOM      4  C   UNL     1       0.752  10.968  20.678  0.00  0.00    +0.000 C 
ATOM      5  C   UNL     1      -0.500  11.825  20.699  0.00  0.00    +0.000 C 
ENDROOT
BRANCH   3   6
ATOM      6  N   UNL     1       1.292   9.000  19.224  0.00  0.00    +0.000 N 
ATOM      7  C   UNL     1       1.784   9.340  17.989  0.00  0.00    +0.000 A 
ATOM      8  N   UNL     1       2.589   8.418  17.505  0.00  0.00    +0.000 NA
ATOM      9  C   UNL     1       2.623   7.436  18.481  0.00  0.00    +0.000 A 
ATOM     10  C   UNL     1       3.251   6.174  18.528  0.00  0.00    +0.000 A 
ATOM     11  N   UNL     1       4.006   5.702  17.461  0.00  0.00    +0.000 N 
ATOM     12  N   UNL     1       3.072   5.429  19.651  0.00  0.00    +0.000 NA
ATOM     13  C   UNL     1       2.300   5.921  20.644  0.00  0.00    +0.000 A 
ATOM     14  N   UNL     1       1.635   7.089  20.688  0.00  0.00    +0.000 NA
ATOM     15  C   UNL     1       1.843   7.800  19.566  0.00  0.00    +0.000 A 
ATOM     16  H   UNL     1       3.900   6.272  16.627  0.00  0.00    +0.000 HD
BRANCH  11  17
ATOM     17  C   UNL     1       4.204   4.269  17.284  0.00  0.00    +0.000 C 
BRANCH  17  18
ATOM     18  C   UNL     1       2.880   3.546  16.954  0.00  0.00    +0.000 C 
ATOM     19  C   UNL     1       2.593   2.294  17.770  0.00  0.00    +0.000 C 
ENDBRANCH  17  18
BRANCH  17  20
ATOM     20  C   UNL     1       5.168   4.062  16.095  0.00  0.00    +0.000 C 
ATOM     21  C   UNL     1       6.352   5.019  16.098  0.00  0.00    +0.000 C 
ENDBRANCH  17  20
ENDBRANCH  11  17
ENDBRANCH   3   6
BRANCH   1  23
ATOM     22  N   UNL     1      -1.640  12.286  17.091  0.00  0.00    +0.000 N 
ATOM     23  C   UNL     1      -0.960  12.494  18.271  0.00  0.00    +0.000 C 
ATOM     24  O   UNL     1      -0.231  13.470  18.401  0.00  0.00    +0.000 OA
ATOM     25  H   UNL     1      -1.548  13.040  16.420  0.00  0.00    +0.000 HD
BRANCH  22  26
ATOM     26  C   UNL     1      -2.716  11.337  16.934  0.00  0.00    +0.000 C 
BRANCH  26  28
ATOM     27  C   UNL     1      -3.225   9.739  15.091  0.00  0.00    +0.000 C 
ATOM     28  C   UNL     1      -2.866  10.962  15.503  0.00  0.00    +0.000 C 
ENDBRANCH  26  28
ENDBRANCH  22  26
ENDBRANCH   1  23
BRANCH   4  29
ATOM     29  O   UNL     1       1.185  10.662  22.007  0.00  0.00    +0.000 OA
ATOM     30  H   UNL     1       0.535  10.021  22.365  0.00  0.00    +0.000 HD
ENDBRANCH   4  29
BRANCH   5  31
ATOM     31  O   UNL     1      -1.303  11.426  21.836  0.00  0.00    +0.000 OA
ATOM     32  H   UNL     1      -1.155  10.479  22.017  0.00  0.00    +0.000 HD
ENDBRANCH   5  31
TORSDOF 9
ENDMDL
MODEL 3
REMARK VINA RESULT:      -7.0      1.645      2.675
REMARK  Name = 
REMARK  11 active torsions:
REMARK  status: ('A' for Active; 'I' for Inactive)
REMARK    1  A    between atoms: C_2  and  C_3
REMARK    2  A    between atoms: C_3  and  N_4
REMARK    3  A    between atoms: C_5  and  C_7
REMARK    4  A    between atoms: C_9  and  N_10
REMARK    5  A    between atoms: N_15  and  C_16
REMARK    6  A    between atoms: C_16  and  C_17
REMARK    7  A    between atoms: C_16  and  C_19
REMARK    8  A    between atoms: C_17  and  C_18
REMARK    9  A    between atoms: C_19  and  C_20
REMARK   10  A    between atoms: C_25  and  O_26
REMARK   11  A    between atoms: C_27  and  O_28
REMARK                            x       y       z     vdW  Elec       q    Type
REMARK                         _______ _______ _______ _____ _____    ______ ____
ROOT
ATOM      1  C   UNL     1       4.998   3.562  17.868  0.00  0.00    +0.000 C 
ATOM      2  O   UNL     1       4.695   4.363  19.023  0.00  0.00    +0.000 OA
ATOM      3  C   UNL     1       3.291   4.205  19.326  0.00  0.00    +0.000 C 
ATOM      4  C   UNL     1       2.624   3.540  18.123  0.00  0.00    +0.000 C 
ATOM      5  C   UNL     1       3.768   2.720  17.556  0.00  0.00    +0.000 C 
ENDROOT
BRANCH   3   6
ATOM      6  N   UNL     1       2.708   5.472  19.716  0.00  0.00    +0.000 N 
ATOM      7  C   UNL     1       1.890   5.662  20.801  0.00  0.00    +0.000 A 
ATOM      8  N   UNL     1       1.370   6.871  20.825  0.00  0.00    +0.000 NA
ATOM      9  C   UNL     1       1.885   7.495  19.701  0.00  0.00    +0.000 A 
ATOM     10  C   UNL     1       1.657   8.770  19.142  0.00  0.00    +0.000 A 
ATOM     11  N   UNL     1       0.772   9.668  19.726  0.00  0.00    +0.000 N 
ATOM     12  N   UNL     1       2.324   9.078  17.998  0.00  0.00    +0.000 NA
ATOM     13  C   UNL     1       3.146   8.155  17.454  0.00  0.00    +0.000 A 
ATOM     14  N   UNL     1       3.409   6.908  17.884  0.00  0.00    +0.000 NA
ATOM     15  C   UNL     1       2.740   6.644  19.020  0.00  0.00    +0.000 A 
ATOM     16  H   UNL     1       0.211   9.242  20.458  0.00  0.00    +0.000 HD
BRANCH  11  17
ATOM     17  C   UNL     1       0.155  10.714  18.921  0.00  0.00    +0.000 C 
BRANCH  17  18
ATOM     18  C   UNL     1      -1.120  10.211  18.211  0.00  0.00    +0.000 C 
ATOM     19  C   UNL     1      -2.031  11.293  17.649  0.00  0.00    +0.000 C 
ENDBRANCH  17  18
BRANCH  17  20
ATOM     20  C   UNL     1      -0.248  11.869  19.863  0.00  0.00    +0.000 C 
ATOM     21  C   UNL     1      -0.450  11.434  21.308  0.00  0.00    +0.000 C 
ENDBRANCH  17  20
ENDBRANCH  11  17
ENDBRANCH   3   6
BRANCH   1  23
ATOM     22  N   UNL     1       6.713   5.011  16.804  0.00  0.00    +0.000 N 
ATOM     23  C   UNL     1       5.488   4.394  16.667  0.00  0.00    +0.000 C 
ATOM     24  O   UNL     1       4.856   4.500  15.622  0.00  0.00    +0.000 OA
ATOM     25  H   UNL     1       7.052   5.452  15.958  0.00  0.00    +0.000 HD
BRANCH  22  26
ATOM     26  C   UNL     1       7.645   4.729  17.869  0.00  0.00    +0.000 C 
BRANCH  26  28
ATOM     27  C   UNL     1       7.919   7.177  18.252  0.00  0.00    +0.000 C 
ATOM     28  C   UNL     1       7.819   5.929  18.730  0.00  0.00    +0.000 C 
ENDBRANCH  26  28
ENDBRANCH  22  26
ENDBRANCH   1  23
BRANCH   4  29
ATOM     29  O   UNL     1       1.535   2.699  18.513  0.00  0.00    +0.000 OA
ATOM     30  H   UNL     1       1.609   2.590  19.486  0.00  0.00    +0.000 HD
ENDBRANCH   4  29
BRANCH   5  31
ATOM     31  O   UNL     1       3.816   1.459  18.265  0.00  0.00    +0.000 OA
ATOM     32  H   UNL     1       4.747   1.209  18.413  0.00  0.00    +0.000 HD
ENDBRANCH   5  31
TORSDOF 9
ENDMDL
MODEL 4
REMARK VINA RESULT:      -7.0      1.288      1.540
REMARK  Name = 
REMARK  11 active torsions:
REMARK  status: ('A' for Active; 'I' for Inactive)
REMARK    1  A    between atoms: C_2  and  C_3
REMARK    2  A    between atoms: C_3  and  N_4
REMARK    3  A    between atoms: C_5  and  C_7
REMARK    4  A    between atoms: C_9  and  N_10
REMARK    5  A    between atoms: N_15  and  C_16
REMARK    6  A    between atoms: C_16  and  C_17
REMARK    7  A    between atoms: C_16  and  C_19
REMARK    8  A    between atoms: C_17  and  C_18
REMARK    9  A    between atoms: C_19  and  C_20
REMARK   10  A    between atoms: C_25  and  O_26
REMARK   11  A    between atoms: C_27  and  O_28
REMARK                            x       y       z     vdW  Elec       q    Type
REMARK                         _______ _______ _______ _____ _____    ______ ____
ROOT
ATOM      1  C   UNL     1       5.855   5.011  17.839  0.00  0.00    +0.000 C 
ATOM      2  O   UNL     1       5.209   6.077  18.556  0.00  0.00    +0.000 OA
ATOM      3  C   UNL     1       3.799   5.770  18.646  0.00  0.00    +0.000 C 
ATOM      4  C   UNL     1       3.504   4.634  17.669  0.00  0.00    +0.000 C 
ATOM      5  C   UNL     1       4.832   3.901  17.644  0.00  0.00    +0.000 C 
ENDROOT
BRANCH   3   6
ATOM      6  N   UNL     1       3.004   6.964  18.445  0.00  0.00    +0.000 N 
ATOM      7  C   UNL     1       3.071   7.780  17.344  0.00  0.00    +0.000 A 
ATOM      8  N   UNL     1       2.364   8.879  17.497  0.00  0.00    +0.000 NA
ATOM      9  C   UNL     1       1.807   8.763  18.759  0.00  0.00    +0.000 A 
ATOM     10  C   UNL     1       1.007   9.640  19.522  0.00  0.00    +0.000 A 
ATOM     11  N   UNL     1       0.636  10.887  19.035  0.00  0.00    +0.000 N 
ATOM     12  N   UNL     1       0.628   9.222  20.759  0.00  0.00    +0.000 NA
ATOM     13  C   UNL     1       1.045   8.014  21.195  0.00  0.00    +0.000 A 
ATOM     14  N   UNL     1       1.829   7.121  20.568  0.00  0.00    +0.000 NA
ATOM     15  C   UNL     1       2.174   7.564  19.346  0.00  0.00    +0.000 A 
ATOM     16  H   UNL     1       1.138  11.141  18.189  0.00  0.00    +0.000 HD
BRANCH  11  17
ATOM     17  C   UNL     1       0.284  11.957  19.960  0.00  0.00    +0.000 C 
BRANCH  17  18
ATOM     18  C   UNL     1       1.452  12.947  20.161  0.00  0.00    +0.000 C 
ATOM     19  C   UNL     1       2.043  13.535  18.888  0.00  0.00    +0.000 C 
ENDBRANCH  17  18
BRANCH  17  20
ATOM     20  C   UNL     1      -0.905  12.738  19.360  0.00  0.00    +0.000 C 
ATOM     21  C   UNL     1      -1.436  12.139  18.066  0.00  0.00    +0.000 C 
ENDBRANCH  17  20
ENDBRANCH  11  17
ENDBRANCH   3   6
BRANCH   1  23
ATOM     22  N   UNL     1       7.320   6.588  16.599  0.00  0.00    +0.000 N 
ATOM     23  C   UNL     1       6.509   5.477  16.524  0.00  0.00    +0.000 C 
ATOM     24  O   UNL     1       6.356   4.894  15.457  0.00  0.00    +0.000 OA
ATOM     25  H   UNL     1       7.820   6.796  15.742  0.00  0.00    +0.000 HD
BRANCH  22  26
ATOM     26  C   UNL     1       7.778   7.174  17.836  0.00  0.00    +0.000 C 
BRANCH  26  28
ATOM     27  C   UNL     1       8.660   9.430  18.422  0.00  0.00    +0.000 C 
ATOM     28  C   UNL     1       7.823   8.655  17.718  0.00  0.00    +0.000 C 
ENDBRANCH  26  28
ENDBRANCH  22  26
ENDBRANCH   1  23
BRANCH   4  29
ATOM     29  O   UNL     1       2.456   3.782  18.141  0.00  0.00    +0.000 OA
ATOM     30  H   UNL     1       2.128   3.292  17.357  0.00  0.00    +0.000 HD
ENDBRANCH   4  29
BRANCH   5  31
ATOM     31  O   UNL     1       4.859   2.976  18.758  0.00  0.00    +0.000 OA
ATOM     32  H   UNL     1       5.754   2.967  19.146  0.00  0.00    +0.000 HD
ENDBRANCH   5  31
TORSDOF 9
ENDMDL
MODEL 5
REMARK VINA RESULT:      -6.9      3.644      8.589
REMARK  Name = 
REMARK  11 active torsions:
REMARK  status: ('A' for Active; 'I' for Inactive)
REMARK    1  A    between atoms: C_2  and  C_3
REMARK    2  A    between atoms: C_3  and  N_4
REMARK    3  A    between atoms: C_5  and  C_7
REMARK    4  A    between atoms: C_9  and  N_10
REMARK    5  A    between atoms: N_15  and  C_16
REMARK    6  A    between atoms: C_16  and  C_17
REMARK    7  A    between atoms: C_16  and  C_19
REMARK    8  A    between atoms: C_17  and  C_18
REMARK    9  A    between atoms: C_19  and  C_20
REMARK   10  A    between atoms: C_25  and  O_26
REMARK   11  A    between atoms: C_27  and  O_28
REMARK                            x       y       z     vdW  Elec       q    Type
REMARK                         _______ _______ _______ _____ _____    ______ ____
ROOT
ATOM      1  C   UNL     1      -1.490  11.319  19.327  0.00  0.00    +0.000 C 
ATOM      2  O   UNL     1      -0.972   9.995  19.116  0.00  0.00    +0.000 OA
ATOM      3  C   UNL     1       0.211   9.838  19.933  0.00  0.00    +0.000 C 
ATOM      4  C   UNL     1       0.629  11.223  20.421  0.00  0.00    +0.000 C 
ATOM      5  C   UNL     1      -0.704  11.944  20.471  0.00  0.00    +0.000 C 
ENDROOT
BRANCH   3   6
ATOM      6  N   UNL     1       1.237   9.115  19.210  0.00  0.00    +0.000 N 
ATOM      7  C   UNL     1       1.716   9.455  17.970  0.00  0.00    +0.000 A 
ATOM      8  N   UNL     1       2.519   8.535  17.479  0.00  0.00    +0.000 NA
ATOM      9  C   UNL     1       2.566   7.555  18.456  0.00  0.00    +0.000 A 
ATOM     10  C   UNL     1       3.199   6.295  18.499  0.00  0.00    +0.000 A 
ATOM     11  N   UNL     1       3.946   5.825  17.425  0.00  0.00    +0.000 N 
ATOM     12  N   UNL     1       3.034   5.551  19.625  0.00  0.00    +0.000 NA
ATOM     13  C   UNL     1       2.269   6.042  20.624  0.00  0.00    +0.000 A 
ATOM     14  N   UNL     1       1.601   7.208  20.673  0.00  0.00    +0.000 NA
ATOM     15  C   UNL     1       1.796   7.918  19.548  0.00  0.00    +0.000 A 
ATOM     16  H   UNL     1       3.830   6.393  16.591  0.00  0.00    +0.000 HD
BRANCH  11  17
ATOM     17  C   UNL     1       4.147   4.393  17.248  0.00  0.00    +0.000 C 
BRANCH  17  18
ATOM     18  C   UNL     1       2.815   3.656  16.991  0.00  0.00    +0.000 C 
ATOM     19  C   UNL     1       2.630   2.348  17.746  0.00  0.00    +0.000 C 
ENDBRANCH  17  18
BRANCH  17  20
ATOM     20  C   UNL     1       5.052   4.185  16.013  0.00  0.00    +0.000 C 
ATOM     21  C   UNL     1       6.535   4.355  16.311  0.00  0.00    +0.000 C 
ENDBRANCH  17  20
ENDBRANCH  11  17
ENDBRANCH   3   6
BRANCH   1  23
ATOM     22  N   UNL     1      -2.428  11.850  17.089  0.00  0.00    +0.000 N 
ATOM     23  C   UNL     1      -1.494  12.178  18.048  0.00  0.00    +0.000 C 
ATOM     24  O   UNL     1      -0.736  13.125  17.875  0.00  0.00    +0.000 OA
ATOM     25  H   UNL     1      -2.476  12.504  16.316  0.00  0.00    +0.000 HD
BRANCH  22  26
ATOM     26  C   UNL     1      -3.529  10.944  17.308  0.00  0.00    +0.000 C 
BRANCH  26  28
ATOM     27  C   UNL     1      -5.612  12.292  17.543  0.00  0.00    +0.000 C 
ATOM     28  C   UNL     1      -4.793  11.538  16.797  0.00  0.00    +0.000 C 
ENDBRANCH  26  28
ENDBRANCH  22  26
ENDBRANCH   1  23
BRANCH   4  29
ATOM     29  O   UNL     1       1.234  11.173  21.717  0.00  0.00    +0.000 OA
ATOM     30  H   UNL     1       1.560  12.079  21.902  0.00  0.00    +0.000 HD
ENDBRANCH   4  29
BRANCH   5  31
ATOM     31  O   UNL     1      -1.330  11.651  21.744  0.00  0.00    +0.000 OA
ATOM     32  H   UNL     1      -2.292  11.555  21.614  0.00  0.00    +0.000 HD
ENDBRANCH   5  31
TORSDOF 9
ENDMDL
MODEL 6
REMARK VINA RESULT:      -6.8      3.618      8.196
REMARK  Name = 
REMARK  11 active torsions:
REMARK  status: ('A' for Active; 'I' for Inactive)
REMARK    1  A    between atoms: C_2  and  C_3
REMARK    2  A    between atoms: C_3  and  N_4
REMARK    3  A    between atoms: C_5  and  C_7
REMARK    4  A    between atoms: C_9  and  N_10
REMARK    5  A    between atoms: N_15  and  C_16
REMARK    6  A    between atoms: C_16  and  C_17
REMARK    7  A    between atoms: C_16  and  C_19
REMARK    8  A    between atoms: C_17  and  C_18
REMARK    9  A    between atoms: C_19  and  C_20
REMARK   10  A    between atoms: C_25  and  O_26
REMARK   11  A    between atoms: C_27  and  O_28
REMARK                            x       y       z     vdW  Elec       q    Type
REMARK                         _______ _______ _______ _____ _____    ______ ____
ROOT
ATOM      1  C   UNL     1      -1.341  11.428  19.270  0.00  0.00    +0.000 C 
ATOM      2  O   UNL     1      -0.835  10.117  18.965  0.00  0.00    +0.000 OA
ATOM      3  C   UNL     1       0.250   9.829  19.875  0.00  0.00    +0.000 C 
ATOM      4  C   UNL     1       0.648  11.136  20.557  0.00  0.00    +0.000 C 
ATOM      5  C   UNL     1      -0.666  11.895  20.553  0.00  0.00    +0.000 C 
ENDROOT
BRANCH   3   6
ATOM      6  N   UNL     1       1.330   9.154  19.185  0.00  0.00    +0.000 N 
ATOM      7  C   UNL     1       1.867   9.548  17.985  0.00  0.00    +0.000 A 
ATOM      8  N   UNL     1       2.715   8.663  17.506  0.00  0.00    +0.000 NA
ATOM      9  C   UNL     1       2.731   7.650  18.449  0.00  0.00    +0.000 A 
ATOM     10  C   UNL     1       3.389   6.402  18.482  0.00  0.00    +0.000 A 
ATOM     11  N   UNL     1       4.202   5.986  17.435  0.00  0.00    +0.000 N 
ATOM     12  N   UNL     1       3.180   5.614  19.570  0.00  0.00    +0.000 NA
ATOM     13  C   UNL     1       2.352   6.053  20.543  0.00  0.00    +0.000 A 
ATOM     14  N   UNL     1       1.656   7.202  20.597  0.00  0.00    +0.000 NA
ATOM     15  C   UNL     1       1.896   7.957  19.510  0.00  0.00    +0.000 A 
ATOM     16  H   UNL     1       4.118   6.582  16.616  0.00  0.00    +0.000 HD
BRANCH  11  17
ATOM     17  C   UNL     1       4.444   4.566  17.217  0.00  0.00    +0.000 C 
BRANCH  17  18
ATOM     18  C   UNL     1       4.989   4.289  15.800  0.00  0.00    +0.000 C 
ATOM     19  C   UNL     1       5.436   5.513  15.015  0.00  0.00    +0.000 C 
ENDBRANCH  17  18
BRANCH  17  20
ATOM     20  C   UNL     1       5.508   4.099  18.235  0.00  0.00    +0.000 C 
ATOM     21  C   UNL     1       6.742   4.989  18.277  0.00  0.00    +0.000 C 
ENDBRANCH  17  20
ENDBRANCH  11  17
ENDBRANCH   3   6
BRANCH   1  23
ATOM     22  N   UNL     1      -1.757  12.055  16.903  0.00  0.00    +0.000 N 
ATOM     23  C   UNL     1      -1.188  12.422  18.103  0.00  0.00    +0.000 C 
ATOM     24  O   UNL     1      -0.619  13.501  18.213  0.00  0.00    +0.000 OA
ATOM     25  H   UNL     1      -1.736  12.779  16.195  0.00  0.00    +0.000 HD
BRANCH  22  26
ATOM     26  C   UNL     1      -2.671  10.949  16.746  0.00  0.00    +0.000 C 
BRANCH  26  28
ATOM     27  C   UNL     1      -3.027  10.071  14.440  0.00  0.00    +0.000 C 
ATOM     28  C   UNL     1      -3.286  10.979  15.392  0.00  0.00    +0.000 C 
ENDBRANCH  26  28
ENDBRANCH  22  26
ENDBRANCH   1  23
BRANCH   4  29
ATOM     29  O   UNL     1       1.111  10.921  21.895  0.00  0.00    +0.000 OA
ATOM     30  H   UNL     1       2.090  10.970  21.856  0.00  0.00    +0.000 HD
ENDBRANCH   4  29
BRANCH   5  31
ATOM     31  O   UNL     1      -1.430  11.485  21.713  0.00  0.00    +0.000 OA
ATOM     32  H   UNL     1      -1.002  10.709  22.121  0.00  0.00    +0.000 HD
ENDBRANCH   5  31
TORSDOF 9
ENDMDL
MODEL 7
REMARK VINA RESULT:      -6.8      2.196      4.144
REMARK  Name = 
REMARK  11 active torsions:
REMARK  status: ('A' for Active; 'I' for Inactive)
REMARK    1  A    between atoms: C_2  and  C_3
REMARK    2  A    between atoms: C_3  and  N_4
REMARK    3  A    between atoms: C_5  and  C_7
REMARK    4  A    between atoms: C_9  and  N_10
REMARK    5  A    between atoms: N_15  and  C_16
REMARK    6  A    between atoms: C_16  and  C_17
REMARK    7  A    between atoms: C_16  and  C_19
REMARK    8  A    between atoms: C_17  and  C_18
REMARK    9  A    between atoms: C_19  and  C_20
REMARK   10  A    between atoms: C_25  and  O_26
REMARK   11  A    between atoms: C_27  and  O_28
REMARK                            x       y       z     vdW  Elec       q    Type
REMARK                         _______ _______ _______ _____ _____    ______ ____
ROOT
ATOM      1  C   UNL     1       3.826   3.953  17.862  0.00  0.00    +0.000 C 
ATOM      2  O   UNL     1       2.699   4.816  18.095  0.00  0.00    +0.000 OA
ATOM      3  C   UNL     1       3.113   6.177  17.841  0.00  0.00    +0.000 C 
ATOM      4  C   UNL     1       4.638   6.196  17.764  0.00  0.00    +0.000 C 
ATOM      5  C   UNL     1       4.935   4.799  17.252  0.00  0.00    +0.000 C 
ENDROOT
BRANCH   3   6
ATOM      6  N   UNL     1       2.545   7.075  18.826  0.00  0.00    +0.000 N 
ATOM      7  C   UNL     1       2.064   6.695  20.054  0.00  0.00    +0.000 A 
ATOM      8  N   UNL     1       1.455   7.683  20.675  0.00  0.00    +0.000 NA
ATOM      9  C   UNL     1       1.555   8.756  19.806  0.00  0.00    +0.000 A 
ATOM     10  C   UNL     1       1.047  10.071  19.868  0.00  0.00    +0.000 A 
ATOM     11  N   UNL     1       0.285  10.501  20.948  0.00  0.00    +0.000 N 
ATOM     12  N   UNL     1       1.317  10.894  18.821  0.00  0.00    +0.000 NA
ATOM     13  C   UNL     1       2.033  10.414  17.781  0.00  0.00    +0.000 A 
ATOM     14  N   UNL     1       2.533   9.179  17.608  0.00  0.00    +0.000 NA
ATOM     15  C   UNL     1       2.255   8.398  18.666  0.00  0.00    +0.000 A 
ATOM     16  H   UNL     1       0.008   9.737  21.557  0.00  0.00    +0.000 HD
BRANCH  11  17
ATOM     17  C   UNL     1      -0.641  11.614  20.791  0.00  0.00    +0.000 C 
BRANCH  17  18
ATOM     18  C   UNL     1      -1.730  11.307  19.740  0.00  0.00    +0.000 C 
ATOM     19  C   UNL     1      -2.889  12.292  19.686  0.00  0.00    +0.000 C 
ENDBRANCH  17  18
BRANCH  17  20
ATOM     20  C   UNL     1      -1.342  11.851  22.147  0.00  0.00    +0.000 C 
ATOM     21  C   UNL     1      -1.139  10.718  23.142  0.00  0.00    +0.000 C 
ENDBRANCH  17  20
ENDBRANCH  11  17
ENDBRANCH   3   6
BRANCH   1  23
ATOM     22  N   UNL     1       3.342   2.329  19.679  0.00  0.00    +0.000 N 
ATOM     23  C   UNL     1       4.268   3.184  19.122  0.00  0.00    +0.000 C 
ATOM     24  O   UNL     1       5.387   3.287  19.612  0.00  0.00    +0.000 OA
ATOM     25  H   UNL     1       3.704   1.759  20.434  0.00  0.00    +0.000 HD
BRANCH  22  26
ATOM     26  C   UNL     1       2.113   1.935  19.032  0.00  0.00    +0.000 C 
BRANCH  26  28
ATOM     27  C   UNL     1       1.049   3.206  20.893  0.00  0.00    +0.000 C 
ATOM     28  C   UNL     1       0.946   2.505  19.755  0.00  0.00    +0.000 C 
ENDBRANCH  26  28
ENDBRANCH  22  26
ENDBRANCH   1  23
BRANCH   4  29
ATOM     29  O   UNL     1       5.115   7.189  16.851  0.00  0.00    +0.000 OA
ATOM     30  H   UNL     1       5.697   7.782  17.372  0.00  0.00    +0.000 HD
ENDBRANCH   4  29
BRANCH   5  31
ATOM     31  O   UNL     1       4.831   4.815  15.807  0.00  0.00    +0.000 OA
ATOM     32  H   UNL     1       5.126   3.955  15.455  0.00  0.00    +0.000 HD
ENDBRANCH   5  31
TORSDOF 9
ENDMDL
MODEL 8
REMARK VINA RESULT:      -6.7      1.369      1.583
REMARK  Name = 
REMARK  11 active torsions:
REMARK  status: ('A' for Active; 'I' for Inactive)
REMARK    1  A    between atoms: C_2  and  C_3
REMARK    2  A    between atoms: C_3  and  N_4
REMARK    3  A    between atoms: C_5  and  C_7
REMARK    4  A    between atoms: C_9  and  N_10
REMARK    5  A    between atoms: N_15  and  C_16
REMARK    6  A    between atoms: C_16  and  C_17
REMARK    7  A    between atoms: C_16  and  C_19
REMARK    8  A    between atoms: C_17  and  C_18
REMARK    9  A    between atoms: C_19  and  C_20
REMARK   10  A    between atoms: C_25  and  O_26
REMARK   11  A    between atoms: C_27  and  O_28
REMARK                            x       y       z     vdW  Elec       q    Type
REMARK                         _______ _______ _______ _____ _____    ______ ____
ROOT
ATOM      1  C   UNL     1       3.829   4.078  18.587  0.00  0.00    +0.000 C 
ATOM      2  O   UNL     1       3.975   5.502  18.724  0.00  0.00    +0.000 OA
ATOM      3  C   UNL     1       2.864   5.995  19.508  0.00  0.00    +0.000 C 
ATOM      4  C   UNL     1       1.817   4.886  19.585  0.00  0.00    +0.000 C 
ATOM      5  C   UNL     1       2.681   3.643  19.487  0.00  0.00    +0.000 C 
ENDROOT
BRANCH   3   6
ATOM      6  N   UNL     1       2.379   7.250  18.971  0.00  0.00    +0.000 N 
ATOM      7  C   UNL     1       2.633   7.716  17.706  0.00  0.00    +0.000 A 
ATOM      8  N   UNL     1       2.214   8.953  17.540  0.00  0.00    +0.000 NA
ATOM      9  C   UNL     1       1.655   9.299  18.758  0.00  0.00    +0.000 A 
ATOM     10  C   UNL     1       1.097  10.505  19.232  0.00  0.00    +0.000 A 
ATOM     11  N   UNL     1       1.035  11.637  18.429  0.00  0.00    +0.000 N 
ATOM     12  N   UNL     1       0.639  10.521  20.512  0.00  0.00    +0.000 NA
ATOM     13  C   UNL     1       0.755   9.402  21.260  0.00  0.00    +0.000 A 
ATOM     14  N   UNL     1       1.295   8.218  20.919  0.00  0.00    +0.000 NA
ATOM     15  C   UNL     1       1.727   8.239  19.646  0.00  0.00    +0.000 A 
ATOM     16  H   UNL     1       1.577  11.539  17.575  0.00  0.00    +0.000 HD
BRANCH  11  17
ATOM     17  C   UNL     1       0.960  12.960  19.036  0.00  0.00    +0.000 C 
BRANCH  17  18
ATOM     18  C   UNL     1       2.010  13.922  18.440  0.00  0.00    +0.000 C 
ATOM     19  C   UNL     1       2.416  15.087  19.331  0.00  0.00    +0.000 C 
ENDBRANCH  17  18
BRANCH  17  20
ATOM     20  C   UNL     1      -0.440  13.543  18.744  0.00  0.00    +0.000 C 
ATOM     21  C   UNL     1      -1.205  13.945  19.997  0.00  0.00    +0.000 C 
ENDBRANCH  17  20
ENDBRANCH  11  17
ENDBRANCH   3   6
BRANCH   1  23
ATOM     22  N   UNL     1       4.735   3.841  16.286  0.00  0.00    +0.000 N 
ATOM     23  C   UNL     1       3.662   3.626  17.123  0.00  0.00    +0.000 C 
ATOM     24  O   UNL     1       2.649   3.078  16.703  0.00  0.00    +0.000 OA
ATOM     25  H   UNL     1       4.632   3.430  15.365  0.00  0.00    +0.000 HD
BRANCH  22  26
ATOM     26  C   UNL     1       6.051   4.221  16.739  0.00  0.00    +0.000 C 
BRANCH  26  28
ATOM     27  C   UNL     1       6.674   4.424  14.335  0.00  0.00    +0.000 C 
ATOM     28  C   UNL     1       6.837   4.791  15.613  0.00  0.00    +0.000 C 
ENDBRANCH  26  28
ENDBRANCH  22  26
ENDBRANCH   1  23
BRANCH   4  29
ATOM     29  O   UNL     1       1.098   4.915  20.822  0.00  0.00    +0.000 OA
ATOM     30  H   UNL     1       1.424   4.152  21.345  0.00  0.00    +0.000 HD
ENDBRANCH   4  29
BRANCH   5  31
ATOM     31  O   UNL     1       3.163   3.322  20.815  0.00  0.00    +0.000 OA
ATOM     32  H   UNL     1       2.407   3.272  21.428  0.00  0.00    +0.000 HD
ENDBRANCH   5  31
TORSDOF 9
ENDMDL
MODEL 9
REMARK VINA RESULT:      -6.7      3.063      7.811
REMARK  Name = 
REMARK  11 active torsions:
REMARK  status: ('A' for Active; 'I' for Inactive)
REMARK    1  A    between atoms: C_2  and  C_3
REMARK    2  A    between atoms: C_3  and  N_4
REMARK    3  A    between atoms: C_5  and  C_7
REMARK    4  A    between atoms: C_9  and  N_10
REMARK    5  A    between atoms: N_15  and  C_16
REMARK    6  A    between atoms: C_16  and  C_17
REMARK    7  A    between atoms: C_16  and  C_19
REMARK    8  A    between atoms: C_17  and  C_18
REMARK    9  A    between atoms: C_19  and  C_20
REMARK   10  A    between atoms: C_25  and  O_26
REMARK   11  A    between atoms: C_27  and  O_28
REMARK                            x       y       z     vdW  Elec       q    Type
REMARK                         _______ _______ _______ _____ _____    ______ ____
ROOT
ATOM      1  C   UNL     1      -0.244  10.495  20.499  0.00  0.00    +0.000 C 
ATOM      2  O   UNL     1      -0.259   9.076  20.274  0.00  0.00    +0.000 OA
ATOM      3  C   UNL     1       0.707   8.468  21.161  0.00  0.00    +0.000 C 
ATOM      4  C   UNL     1       1.587   9.580  21.727  0.00  0.00    +0.000 C 
ATOM      5  C   UNL     1       0.633  10.760  21.715  0.00  0.00    +0.000 C 
ENDROOT
BRANCH   3   6
ATOM      6  N   UNL     1       1.429   7.412  20.482  0.00  0.00    +0.000 N 
ATOM      7  C   UNL     1       1.629   6.149  20.979  0.00  0.00    +0.000 A 
ATOM      8  N   UNL     1       2.457   5.448  20.234  0.00  0.00    +0.000 NA
ATOM      9  C   UNL     1       2.803   6.300  19.200  0.00  0.00    +0.000 A 
ATOM     10  C   UNL     1       3.701   6.159  18.121  0.00  0.00    +0.000 A 
ATOM     11  N   UNL     1       4.443   4.998  17.946  0.00  0.00    +0.000 N 
ATOM     12  N   UNL     1       3.825   7.212  17.270  0.00  0.00    +0.000 NA
ATOM     13  C   UNL     1       3.104   8.330  17.506  0.00  0.00    +0.000 A 
ATOM     14  N   UNL     1       2.251   8.579  18.515  0.00  0.00    +0.000 NA
ATOM     15  C   UNL     1       2.148   7.513  19.328  0.00  0.00    +0.000 A 
ATOM     16  H   UNL     1       4.393   4.378  18.749  0.00  0.00    +0.000 HD
BRANCH  11  17
ATOM     17  C   UNL     1       5.692   5.035  17.196  0.00  0.00    +0.000 C 
BRANCH  17  18
ATOM     18  C   UNL     1       6.918   4.860  18.119  0.00  0.00    +0.000 C 
ATOM     19  C   UNL     1       7.611   6.146  18.545  0.00  0.00    +0.000 C 
ENDBRANCH  17  18
BRANCH  17  20
ATOM     20  C   UNL     1       5.684   3.864  16.189  0.00  0.00    +0.000 C 
ATOM     21  C   UNL     1       6.234   4.236  14.820  0.00  0.00    +0.000 C 
ENDBRANCH  17  20
ENDBRANCH  11  17
ENDBRANCH   3   6
BRANCH   1  23
ATOM     22  N   UNL     1      -0.749  11.401  18.241  0.00  0.00    +0.000 N 
ATOM     23  C   UNL     1       0.179  11.300  19.255  0.00  0.00    +0.000 C 
ATOM     24  O   UNL     1       1.268  11.854  19.154  0.00  0.00    +0.000 OA
ATOM     25  H   UNL     1      -0.480  12.029  17.493  0.00  0.00    +0.000 HD
BRANCH  22  26
ATOM     26  C   UNL     1      -2.136  11.025  18.374  0.00  0.00    +0.000 C 
BRANCH  26  28
ATOM     27  C   UNL     1      -2.642   9.991  16.164  0.00  0.00    +0.000 C 
ATOM     28  C   UNL     1      -2.444   9.874  17.484  0.00  0.00    +0.000 C 
ENDBRANCH  26  28
ENDBRANCH  22  26
ENDBRANCH   1  23
BRANCH   4  29
ATOM     29  O   UNL     1       2.026   9.290  23.057  0.00  0.00    +0.000 OA
ATOM     30  H   UNL     1       2.310   8.351  23.052  0.00  0.00    +0.000 HD
ENDBRANCH   4  29
BRANCH   5  31
ATOM     31  O   UNL     1      -0.152  10.719  22.932  0.00  0.00    +0.000 OA
ATOM     32  H   UNL     1      -0.540  11.599  23.092  0.00  0.00    +0.000 HD
ENDBRANCH   5  31
TORSDOF 9
ENDMDL
