MODEL 1
REMARK VINA RESULT:      -8.5      0.000      0.000
REMARK  Name = 
REMARK  6 active torsions:
REMARK  status: ('A' for Active; 'I' for Inactive)
REMARK    1  A    between atoms: C_1  and  C_2
REMARK    2  A    between atoms: C_5  and  N_6
REMARK    3  A    between atoms: C_7  and  C_9
REMARK    4  A    between atoms: N_12  and  C_13
REMARK    5  A    between atoms: C_17  and  C_18
REMARK    6  A    between atoms: C_19  and  C_20
REMARK                            x       y       z     vdW  Elec       q    Type
REMARK                         _______ _______ _______ _____ _____    ______ ____
ROOT
ATOM      1  C   UNL     1       6.645   6.384  17.462  0.00  0.00    +0.000 C 
ATOM      2  C   UNL     1       7.191   5.976  18.839  0.00  0.00    +0.000 C 
ATOM      3  C   UNL     1       6.098   5.077  19.384  0.00  0.00    +0.000 C 
ATOM      4  N   UNL     1       4.903   5.725  18.898  0.00  0.00    +0.000 N 
ATOM      5  C   UNL     1       5.155   6.386  17.696  0.00  0.00    +0.000 C 
ATOM      6  O   UNL     1       4.349   6.886  16.920  0.00  0.00    +0.000 OA
ENDROOT
BRANCH   4   7
ATOM      7  C   UNL     1       3.630   5.225  19.240  0.00  0.00    +0.000 A 
ATOM      8  C   UNL     1       2.869   5.884  20.212  0.00  0.00    +0.000 A 
ATOM      9  C   UNL     1       1.630   5.377  20.590  0.00  0.00    +0.000 A 
ATOM     10  C   UNL     1       1.160   4.197  20.018  0.00  0.00    +0.000 A 
ATOM     11  C   UNL     1       1.915   3.511  19.051  0.00  0.00    +0.000 A 
ATOM     12  C   UNL     1       1.385   2.207  18.519  0.00  0.00    +0.000 C 
ATOM     13  C   UNL     1       3.163   4.033  18.644  0.00  0.00    +0.000 A 
ATOM     14  C   UNL     1       4.022   3.326  17.625  0.00  0.00    +0.000 C 
ENDBRANCH   4   7
BRANCH   1  16
ATOM     15  N   UNL     1       6.338   5.574  15.185  0.00  0.00    +0.000 N 
ATOM     16  C   UNL     1       7.016   5.391  16.380  0.00  0.00    +0.000 C 
ATOM     17  O   UNL     1       7.876   4.537  16.589  0.00  0.00    +0.000 OA
ATOM     18  H   UNL     1       5.744   6.393  15.095  0.00  0.00    +0.000 HD
BRANCH  15  23
ATOM     19  C   UNL     1       6.839   2.165  10.599  0.00  0.00    +0.000 C 
ATOM     20  C   UNL     1       6.692   3.063  11.789  0.00  0.00    +0.000 A 
ATOM     21  C   UNL     1       5.627   2.892  12.676  0.00  0.00    +0.000 A 
ATOM     22  C   UNL     1       5.499   3.716  13.795  0.00  0.00    +0.000 A 
ATOM     23  C   UNL     1       6.425   4.727  14.055  0.00  0.00    +0.000 A 
ATOM     24  C   UNL     1       7.473   4.926  13.150  0.00  0.00    +0.000 A 
ATOM     25  C   UNL     1       7.613   4.089  12.034  0.00  0.00    +0.000 A 
ENDBRANCH  15  23
ENDBRANCH   1  16
TORSDOF 3
ENDMDL
MODEL 2
REMARK VINA RESULT:      -8.1      3.166      5.641
REMARK  Name = 
REMARK  6 active torsions:
REMARK  status: ('A' for Active; 'I' for Inactive)
REMARK    1  A    between atoms: C_1  and  C_2
REMARK    2  A    between atoms: C_5  and  N_6
REMARK    3  A    between atoms: C_7  and  C_9
REMARK    4  A    between atoms: N_12  and  C_13
REMARK    5  A    between atoms: C_17  and  C_18
REMARK    6  A    between atoms: C_19  and  C_20
REMARK                            x       y       z     vdW  Elec       q    Type
REMARK                         _______ _______ _______ _____ _____    ______ ____
ROOT
ATOM      1  C   UNL     1       7.543   5.232  17.911  0.00  0.00    +0.000 C 
ATOM      2  C   UNL     1       6.845   4.445  16.790  0.00  0.00    +0.000 C 
ATOM      3  C   UNL     1       5.375   4.695  17.067  0.00  0.00    +0.000 C 
ATOM      4  N   UNL     1       5.334   4.693  18.510  0.00  0.00    +0.000 N 
ATOM      5  C   UNL     1       6.546   5.138  19.038  0.00  0.00    +0.000 C 
ATOM      6  O   UNL     1       6.807   5.429  20.199  0.00  0.00    +0.000 OA
ENDROOT
BRANCH   4   7
ATOM      7  C   UNL     1       4.107   4.839  19.189  0.00  0.00    +0.000 A 
ATOM      8  C   UNL     1       3.462   6.081  19.191  0.00  0.00    +0.000 A 
ATOM      9  C   UNL     1       2.273   6.248  19.893  0.00  0.00    +0.000 A 
ATOM     10  C   UNL     1       1.740   5.184  20.616  0.00  0.00    +0.000 A 
ATOM     11  C   UNL     1       2.378   3.932  20.641  0.00  0.00    +0.000 A 
ATOM     12  C   UNL     1       1.790   2.842  21.493  0.00  0.00    +0.000 C 
ATOM     13  C   UNL     1       3.573   3.747  19.909  0.00  0.00    +0.000 A 
ATOM     14  C   UNL     1       4.310   2.431  19.918  0.00  0.00    +0.000 C 
ENDBRANCH   4   7
BRANCH   1  16
ATOM     15  N   UNL     1       8.267   7.464  18.567  0.00  0.00    +0.000 N 
ATOM     16  C   UNL     1       7.786   6.678  17.531  0.00  0.00    +0.000 C 
ATOM     17  O   UNL     1       7.590   7.060  16.378  0.00  0.00    +0.000 OA
ATOM     18  H   UNL     1       8.508   7.005  19.440  0.00  0.00    +0.000 HD
BRANCH  15  23
ATOM     19  C   UNL     1       9.266  13.110  18.381  0.00  0.00    +0.000 C 
ATOM     20  C   UNL     1       8.987  11.639  18.435  0.00  0.00    +0.000 A 
ATOM     21  C   UNL     1       8.097  11.055  17.531  0.00  0.00    +0.000 A 
ATOM     22  C   UNL     1       7.850   9.681  17.568  0.00  0.00    +0.000 A 
ATOM     23  C   UNL     1       8.480   8.861  18.505  0.00  0.00    +0.000 A 
ATOM     24  C   UNL     1       9.344   9.447  19.436  0.00  0.00    +0.000 A 
ATOM     25  C   UNL     1       9.606  10.824  19.390  0.00  0.00    +0.000 A 
ENDBRANCH  15  23
ENDBRANCH   1  16
TORSDOF 3
ENDMDL
MODEL 3
REMARK VINA RESULT:      -8.0      3.162      5.721
REMARK  Name = 
REMARK  6 active torsions:
REMARK  status: ('A' for Active; 'I' for Inactive)
REMARK    1  A    between atoms: C_1  and  C_2
REMARK    2  A    between atoms: C_5  and  N_6
REMARK    3  A    between atoms: C_7  and  C_9
REMARK    4  A    between atoms: N_12  and  C_13
REMARK    5  A    between atoms: C_17  and  C_18
REMARK    6  A    between atoms: C_19  and  C_20
REMARK                            x       y       z     vdW  Elec       q    Type
REMARK                         _______ _______ _______ _____ _____    ______ ____
ROOT
ATOM      1  C   UNL     1       6.794   5.908  17.078  0.00  0.00    +0.000 C 
ATOM      2  C   UNL     1       5.833   6.571  16.079  0.00  0.00    +0.000 C 
ATOM      3  C   UNL     1       4.548   6.696  16.876  0.00  0.00    +0.000 C 
ATOM      4  N   UNL     1       4.553   5.478  17.650  0.00  0.00    +0.000 N 
ATOM      5  C   UNL     1       5.860   5.062  17.907  0.00  0.00    +0.000 C 
ATOM      6  O   UNL     1       6.241   4.183  18.671  0.00  0.00    +0.000 OA
ENDROOT
BRANCH   4   7
ATOM      7  C   UNL     1       3.474   5.170  18.503  0.00  0.00    +0.000 A 
ATOM      8  C   UNL     1       3.260   5.940  19.652  0.00  0.00    +0.000 A 
ATOM      9  C   UNL     1       2.224   5.619  20.524  0.00  0.00    +0.000 A 
ATOM     10  C   UNL     1       1.417   4.514  20.264  0.00  0.00    +0.000 A 
ATOM     11  C   UNL     1       1.623   3.719  19.124  0.00  0.00    +0.000 A 
ATOM     12  C   UNL     1       0.761   2.501  18.933  0.00  0.00    +0.000 C 
ATOM     13  C   UNL     1       2.657   4.052  18.220  0.00  0.00    +0.000 A 
ATOM     14  C   UNL     1       2.934   3.221  16.993  0.00  0.00    +0.000 C 
ENDBRANCH   4   7
BRANCH   1  16
ATOM     15  N   UNL     1       7.504   8.211  17.434  0.00  0.00    +0.000 N 
ATOM     16  C   UNL     1       7.510   6.922  17.945  0.00  0.00    +0.000 C 
ATOM     17  O   UNL     1       8.007   6.582  19.018  0.00  0.00    +0.000 OA
ATOM     18  H   UNL     1       6.951   8.390  16.601  0.00  0.00    +0.000 HD
BRANCH  15  23
ATOM     19  C   UNL     1      10.161  12.791  19.641  0.00  0.00    +0.000 C 
ATOM     20  C   UNL     1       9.484  11.587  19.060  0.00  0.00    +0.000 A 
ATOM     21  C   UNL     1       9.617  10.338  19.671  0.00  0.00    +0.000 A 
ATOM     22  C   UNL     1       8.972   9.219  19.142  0.00  0.00    +0.000 A 
ATOM     23  C   UNL     1       8.184   9.317  17.994  0.00  0.00    +0.000 A 
ATOM     24  C   UNL     1       8.077  10.559  17.358  0.00  0.00    +0.000 A 
ATOM     25  C   UNL     1       8.711  11.687  17.897  0.00  0.00    +0.000 A 
ENDBRANCH  15  23
ENDBRANCH   1  16
TORSDOF 3
ENDMDL
MODEL 4
REMARK VINA RESULT:      -7.9      3.365      5.919
REMARK  Name = 
REMARK  6 active torsions:
REMARK  status: ('A' for Active; 'I' for Inactive)
REMARK    1  A    between atoms: C_1  and  C_2
REMARK    2  A    between atoms: C_5  and  N_6
REMARK    3  A    between atoms: C_7  and  C_9
REMARK    4  A    between atoms: N_12  and  C_13
REMARK    5  A    between atoms: C_17  and  C_18
REMARK    6  A    between atoms: C_19  and  C_20
REMARK                            x       y       z     vdW  Elec       q    Type
REMARK                         _______ _______ _______ _____ _____    ______ ____
ROOT
ATOM      1  C   UNL     1       7.409   5.724  17.820  0.00  0.00    +0.000 C 
ATOM      2  C   UNL     1       6.683   5.088  16.624  0.00  0.00    +0.000 C 
ATOM      3  C   UNL     1       5.221   5.229  17.001  0.00  0.00    +0.000 C 
ATOM      4  N   UNL     1       5.253   5.006  18.426  0.00  0.00    +0.000 N 
ATOM      5  C   UNL     1       6.474   5.415  18.962  0.00  0.00    +0.000 C 
ATOM      6  O   UNL     1       6.783   5.537  20.142  0.00  0.00    +0.000 OA
ENDROOT
BRANCH   4   7
ATOM      7  C   UNL     1       4.058   4.993  19.174  0.00  0.00    +0.000 A 
ATOM      8  C   UNL     1       3.309   6.168  19.298  0.00  0.00    +0.000 A 
ATOM      9  C   UNL     1       2.150   6.179  20.068  0.00  0.00    +0.000 A 
ATOM     10  C   UNL     1       1.753   5.025  20.738  0.00  0.00    +0.000 A 
ATOM     11  C   UNL     1       2.498   3.837  20.639  0.00  0.00    +0.000 A 
ATOM     12  C   UNL     1       2.054   2.642  21.438  0.00  0.00    +0.000 C 
ATOM     13  C   UNL     1       3.662   3.811  19.839  0.00  0.00    +0.000 A 
ATOM     14  C   UNL     1       4.509   2.569  19.715  0.00  0.00    +0.000 C 
ENDBRANCH   4   7
BRANCH   1  16
ATOM     15  N   UNL     1       8.452   7.793  18.573  0.00  0.00    +0.000 N 
ATOM     16  C   UNL     1       7.581   7.220  17.658  0.00  0.00    +0.000 C 
ATOM     17  O   UNL     1       7.001   7.818  16.754  0.00  0.00    +0.000 OA
ATOM     18  H   UNL     1       8.968   7.174  19.191  0.00  0.00    +0.000 HD
BRANCH  15  23
ATOM     19  C   UNL     1       9.382  13.437  19.000  0.00  0.00    +0.000 C 
ATOM     20  C   UNL     1       9.158  11.960  18.887  0.00  0.00    +0.000 A 
ATOM     21  C   UNL     1       9.557  11.105  19.917  0.00  0.00    +0.000 A 
ATOM     22  C   UNL     1       9.333   9.730  19.822  0.00  0.00    +0.000 A 
ATOM     23  C   UNL     1       8.709   9.178  18.702  0.00  0.00    +0.000 A 
ATOM     24  C   UNL     1       8.341  10.026  17.652  0.00  0.00    +0.000 A 
ATOM     25  C   UNL     1       8.551  11.409  17.753  0.00  0.00    +0.000 A 
ENDBRANCH  15  23
ENDBRANCH   1  16
TORSDOF 3
ENDMDL
MODEL 5
REMARK VINA RESULT:      -7.6      2.679      5.260
REMARK  Name = 
REMARK  6 active torsions:
REMARK  status: ('A' for Active; 'I' for Inactive)
REMARK    1  A    between atoms: C_1  and  C_2
REMARK    2  A    between atoms: C_5  and  N_6
REMARK    3  A    between atoms: C_7  and  C_9
REMARK    4  A    between atoms: N_12  and  C_13
REMARK    5  A    between atoms: C_17  and  C_18
REMARK    6  A    between atoms: C_19  and  C_20
REMARK                            x       y       z     vdW  Elec       q    Type
REMARK                         _______ _______ _______ _____ _____    ______ ____
ROOT
ATOM      1  C   UNL     1       6.904   4.596  17.223  0.00  0.00    +0.000 C 
ATOM      2  C   UNL     1       5.937   4.154  16.114  0.00  0.00    +0.000 C 
ATOM      3  C   UNL     1       4.598   4.668  16.607  0.00  0.00    +0.000 C 
ATOM      4  N   UNL     1       4.700   4.459  18.031  0.00  0.00    +0.000 N 
ATOM      5  C   UNL     1       6.028   4.549  18.449  0.00  0.00    +0.000 C 
ATOM      6  O   UNL     1       6.462   4.600  19.594  0.00  0.00    +0.000 OA
ENDROOT
BRANCH   4   7
ATOM      7  C   UNL     1       3.613   4.760  18.876  0.00  0.00    +0.000 A 
ATOM      8  C   UNL     1       3.234   6.094  19.065  0.00  0.00    +0.000 A 
ATOM      9  C   UNL     1       2.190   6.406  19.930  0.00  0.00    +0.000 A 
ATOM     10  C   UNL     1       1.541   5.391  20.628  0.00  0.00    +0.000 A 
ATOM     11  C   UNL     1       1.914   4.046  20.465  0.00  0.00    +0.000 A 
ATOM     12  C   UNL     1       1.221   3.002  21.296  0.00  0.00    +0.000 C 
ATOM     13  C   UNL     1       2.957   3.718  19.570  0.00  0.00    +0.000 A 
ATOM     14  C   UNL     1       3.412   2.293  19.373  0.00  0.00    +0.000 C 
ENDBRANCH   4   7
BRANCH   1  16
ATOM     15  N   UNL     1       7.632   6.723  18.161  0.00  0.00    +0.000 N 
ATOM     16  C   UNL     1       7.435   5.996  16.997  0.00  0.00    +0.000 C 
ATOM     17  O   UNL     1       7.685   6.391  15.859  0.00  0.00    +0.000 OA
ATOM     18  H   UNL     1       7.509   6.244  19.048  0.00  0.00    +0.000 HD
BRANCH  15  23
ATOM     19  C   UNL     1       9.079  12.271  18.356  0.00  0.00    +0.000 C 
ATOM     20  C   UNL     1       8.719  10.818  18.298  0.00  0.00    +0.000 A 
ATOM     21  C   UNL     1       9.343   9.901  19.147  0.00  0.00    +0.000 A 
ATOM     22  C   UNL     1       8.995   8.549  19.108  0.00  0.00    +0.000 A 
ATOM     23  C   UNL     1       8.022   8.081  18.223  0.00  0.00    +0.000 A 
ATOM     24  C   UNL     1       7.420   8.990  17.346  0.00  0.00    +0.000 A 
ATOM     25  C   UNL     1       7.757  10.350  17.395  0.00  0.00    +0.000 A 
ENDBRANCH  15  23
ENDBRANCH   1  16
TORSDOF 3
ENDMDL
MODEL 6
REMARK VINA RESULT:      -7.6      2.531      5.108
REMARK  Name = 
REMARK  6 active torsions:
REMARK  status: ('A' for Active; 'I' for Inactive)
REMARK    1  A    between atoms: C_1  and  C_2
REMARK    2  A    between atoms: C_5  and  N_6
REMARK    3  A    between atoms: C_7  and  C_9
REMARK    4  A    between atoms: N_12  and  C_13
REMARK    5  A    between atoms: C_17  and  C_18
REMARK    6  A    between atoms: C_19  and  C_20
REMARK                            x       y       z     vdW  Elec       q    Type
REMARK                         _______ _______ _______ _____ _____    ______ ____
ROOT
ATOM      1  C   UNL     1       6.631   4.339  16.872  0.00  0.00    +0.000 C 
ATOM      2  C   UNL     1       5.562   4.082  15.798  0.00  0.00    +0.000 C 
ATOM      3  C   UNL     1       4.306   4.652  16.427  0.00  0.00    +0.000 C 
ATOM      4  N   UNL     1       4.478   4.302  17.817  0.00  0.00    +0.000 N 
ATOM      5  C   UNL     1       5.833   4.247  18.147  0.00  0.00    +0.000 C 
ATOM      6  O   UNL     1       6.340   4.155  19.258  0.00  0.00    +0.000 OA
ENDROOT
BRANCH   4   7
ATOM      7  C   UNL     1       3.476   4.607  18.759  0.00  0.00    +0.000 A 
ATOM      8  C   UNL     1       3.144   5.944  19.007  0.00  0.00    +0.000 A 
ATOM      9  C   UNL     1       2.187   6.260  19.965  0.00  0.00    +0.000 A 
ATOM     10  C   UNL     1       1.578   5.244  20.697  0.00  0.00    +0.000 A 
ATOM     11  C   UNL     1       1.906   3.895  20.476  0.00  0.00    +0.000 A 
ATOM     12  C   UNL     1       1.263   2.848  21.343  0.00  0.00    +0.000 C 
ATOM     13  C   UNL     1       2.859   3.565  19.486  0.00  0.00    +0.000 A 
ATOM     14  C   UNL     1       3.262   2.135  19.223  0.00  0.00    +0.000 C 
ENDBRANCH   4   7
BRANCH   1  16
ATOM     15  N   UNL     1       7.297   6.439  17.912  0.00  0.00    +0.000 N 
ATOM     16  C   UNL     1       7.265   5.708  16.735  0.00  0.00    +0.000 C 
ATOM     17  O   UNL     1       7.726   6.075  15.655  0.00  0.00    +0.000 OA
ATOM     18  H   UNL     1       6.999   5.978  18.767  0.00  0.00    +0.000 HD
BRANCH  15  23
ATOM     19  C   UNL     1       9.229  11.812  18.461  0.00  0.00    +0.000 C 
ATOM     20  C   UNL     1       8.707  10.415  18.325  0.00  0.00    +0.000 A 
ATOM     21  C   UNL     1       7.688  10.126  17.415  0.00  0.00    +0.000 A 
ATOM     22  C   UNL     1       7.213   8.821  17.274  0.00  0.00    +0.000 A 
ATOM     23  C   UNL     1       7.741   7.777  18.035  0.00  0.00    +0.000 A 
ATOM     24  C   UNL     1       8.737   8.067  18.973  0.00  0.00    +0.000 A 
ATOM     25  C   UNL     1       9.226   9.375  19.105  0.00  0.00    +0.000 A 
ENDBRANCH  15  23
ENDBRANCH   1  16
TORSDOF 3
ENDMDL
MODEL 7
REMARK VINA RESULT:      -6.9      2.272      3.805
REMARK  Name = 
REMARK  6 active torsions:
REMARK  status: ('A' for Active; 'I' for Inactive)
REMARK    1  A    between atoms: C_1  and  C_2
REMARK    2  A    between atoms: C_5  and  N_6
REMARK    3  A    between atoms: C_7  and  C_9
REMARK    4  A    between atoms: N_12  and  C_13
REMARK    5  A    between atoms: C_17  and  C_18
REMARK    6  A    between atoms: C_19  and  C_20
REMARK                            x       y       z     vdW  Elec       q    Type
REMARK                         _______ _______ _______ _____ _____    ______ ____
ROOT
ATOM      1  C   UNL     1       3.750   3.337  19.329  0.00  0.00    +0.000 C 
ATOM      2  C   UNL     1       2.295   2.905  19.571  0.00  0.00    +0.000 C 
ATOM      3  C   UNL     1       1.520   4.193  19.363  0.00  0.00    +0.000 C 
ATOM      4  N   UNL     1       2.413   5.177  19.928  0.00  0.00    +0.000 N 
ATOM      5  C   UNL     1       3.741   4.770  19.799  0.00  0.00    +0.000 C 
ATOM      6  O   UNL     1       4.758   5.422  20.002  0.00  0.00    +0.000 OA
ENDROOT
BRANCH   4   7
ATOM      7  C   UNL     1       2.033   6.533  19.988  0.00  0.00    +0.000 A 
ATOM      8  C   UNL     1       1.376   7.016  21.126  0.00  0.00    +0.000 A 
ATOM      9  C   UNL     1       0.957   8.341  21.180  0.00  0.00    +0.000 A 
ATOM     10  C   UNL     1       1.172   9.180  20.089  0.00  0.00    +0.000 A 
ATOM     11  C   UNL     1       1.817   8.713  18.932  0.00  0.00    +0.000 A 
ATOM     12  C   UNL     1       1.960   9.648  17.762  0.00  0.00    +0.000 C 
ATOM     13  C   UNL     1       2.266   7.375  18.878  0.00  0.00    +0.000 A 
ATOM     14  C   UNL     1       2.946   6.817  17.653  0.00  0.00    +0.000 C 
ENDBRANCH   4   7
BRANCH   1  16
ATOM     15  N   UNL     1       5.248   4.015  17.531  0.00  0.00    +0.000 N 
ATOM     16  C   UNL     1       4.138   3.256  17.867  0.00  0.00    +0.000 C 
ATOM     17  O   UNL     1       3.507   2.535  17.096  0.00  0.00    +0.000 OA
ATOM     18  H   UNL     1       5.759   4.469  18.282  0.00  0.00    +0.000 HD
BRANCH  15  23
ATOM     19  C   UNL     1       7.440   4.736  12.280  0.00  0.00    +0.000 C 
ATOM     20  C   UNL     1       6.854   4.561  13.647  0.00  0.00    +0.000 A 
ATOM     21  C   UNL     1       5.601   3.965  13.807  0.00  0.00    +0.000 A 
ATOM     22  C   UNL     1       5.061   3.784  15.082  0.00  0.00    +0.000 A 
ATOM     23  C   UNL     1       5.754   4.192  16.222  0.00  0.00    +0.000 A 
ATOM     24  C   UNL     1       6.993   4.822  16.065  0.00  0.00    +0.000 A 
ATOM     25  C   UNL     1       7.544   4.991  14.786  0.00  0.00    +0.000 A 
ENDBRANCH  15  23
ENDBRANCH   1  16
TORSDOF 3
ENDMDL
MODEL 8
REMARK VINA RESULT:      -6.9      2.478      4.058
REMARK  Name = 
REMARK  6 active torsions:
REMARK  status: ('A' for Active; 'I' for Inactive)
REMARK    1  A    between atoms: C_1  and  C_2
REMARK    2  A    between atoms: C_5  and  N_6
REMARK    3  A    between atoms: C_7  and  C_9
REMARK    4  A    between atoms: N_12  and  C_13
REMARK    5  A    between atoms: C_17  and  C_18
REMARK    6  A    between atoms: C_19  and  C_20
REMARK                            x       y       z     vdW  Elec       q    Type
REMARK                         _______ _______ _______ _____ _____    ______ ____
ROOT
ATOM      1  C   UNL     1       3.844   3.928  19.317  0.00  0.00    +0.000 C 
ATOM      2  C   UNL     1       2.363   3.565  19.510  0.00  0.00    +0.000 C 
ATOM      3  C   UNL     1       1.642   4.779  18.955  0.00  0.00    +0.000 C 
ATOM      4  N   UNL     1       2.504   5.859  19.373  0.00  0.00    +0.000 N 
ATOM      5  C   UNL     1       3.828   5.428  19.461  0.00  0.00    +0.000 C 
ATOM      6  O   UNL     1       4.838   6.105  19.611  0.00  0.00    +0.000 OA
ENDROOT
BRANCH   4   7
ATOM      7  C   UNL     1       2.154   7.197  19.101  0.00  0.00    +0.000 A 
ATOM      8  C   UNL     1       2.499   7.764  17.868  0.00  0.00    +0.000 A 
ATOM      9  C   UNL     1       2.197   9.096  17.604  0.00  0.00    +0.000 A 
ATOM     10  C   UNL     1       1.574   9.872  18.579  0.00  0.00    +0.000 A 
ATOM     11  C   UNL     1       1.231   9.328  19.828  0.00  0.00    +0.000 A 
ATOM     12  C   UNL     1       0.621  10.232  20.863  0.00  0.00    +0.000 C 
ATOM     13  C   UNL     1       1.512   7.968  20.095  0.00  0.00    +0.000 A 
ATOM     14  C   UNL     1       1.184   7.340  21.427  0.00  0.00    +0.000 C 
ENDBRANCH   4   7
BRANCH   1  16
ATOM     15  N   UNL     1       5.073   4.520  17.299  0.00  0.00    +0.000 N 
ATOM     16  C   UNL     1       4.360   3.526  17.952  0.00  0.00    +0.000 C 
ATOM     17  O   UNL     1       4.164   2.390  17.522  0.00  0.00    +0.000 OA
ATOM     18  H   UNL     1       5.276   5.374  17.810  0.00  0.00    +0.000 HD
BRANCH  15  23
ATOM     19  C   UNL     1       7.243   4.177  12.000  0.00  0.00    +0.000 C 
ATOM     20  C   UNL     1       6.664   4.280  13.378  0.00  0.00    +0.000 A 
ATOM     21  C   UNL     1       5.348   3.884  13.623  0.00  0.00    +0.000 A 
ATOM     22  C   UNL     1       4.813   3.962  14.910  0.00  0.00    +0.000 A 
ATOM     23  C   UNL     1       5.574   4.437  15.979  0.00  0.00    +0.000 A 
ATOM     24  C   UNL     1       6.881   4.870  15.731  0.00  0.00    +0.000 A 
ATOM     25  C   UNL     1       7.425   4.777  14.442  0.00  0.00    +0.000 A 
ENDBRANCH  15  23
ENDBRANCH   1  16
TORSDOF 3
ENDMDL
MODEL 9
REMARK VINA RESULT:      -6.9      5.296      8.403
REMARK  Name = 
REMARK  6 active torsions:
REMARK  status: ('A' for Active; 'I' for Inactive)
REMARK    1  A    between atoms: C_1  and  C_2
REMARK    2  A    between atoms: C_5  and  N_6
REMARK    3  A    between atoms: C_7  and  C_9
REMARK    4  A    between atoms: N_12  and  C_13
REMARK    5  A    between atoms: C_17  and  C_18
REMARK    6  A    between atoms: C_19  and  C_20
REMARK                            x       y       z     vdW  Elec       q    Type
REMARK                         _______ _______ _______ _____ _____    ______ ____
ROOT
ATOM      1  C   UNL     1       1.732   9.210  19.352  0.00  0.00    +0.000 C 
ATOM      2  C   UNL     1       2.290   8.822  17.974  0.00  0.00    +0.000 C 
ATOM      3  C   UNL     1       2.046   7.326  17.917  0.00  0.00    +0.000 C 
ATOM      4  N   UNL     1       2.296   6.928  19.282  0.00  0.00    +0.000 N 
ATOM      5  C   UNL     1       1.990   7.965  20.163  0.00  0.00    +0.000 C 
ATOM      6  O   UNL     1       1.913   7.925  21.385  0.00  0.00    +0.000 OA
ENDROOT
BRANCH   4   7
ATOM      7  C   UNL     1       2.233   5.569  19.652  0.00  0.00    +0.000 A 
ATOM      8  C   UNL     1       1.043   5.052  20.179  0.00  0.00    +0.000 A 
ATOM      9  C   UNL     1       0.981   3.724  20.587  0.00  0.00    +0.000 A 
ATOM     10  C   UNL     1       2.112   2.916  20.495  0.00  0.00    +0.000 A 
ATOM     11  C   UNL     1       3.320   3.418  19.982  0.00  0.00    +0.000 A 
ATOM     12  C   UNL     1       4.525   2.517  19.970  0.00  0.00    +0.000 C 
ATOM     13  C   UNL     1       3.385   4.760  19.542  0.00  0.00    +0.000 A 
ATOM     14  C   UNL     1       4.662   5.354  19.003  0.00  0.00    +0.000 C 
ENDBRANCH   4   7
BRANCH   1  16
ATOM     15  N   UNL     1      -0.190  10.000  18.081  0.00  0.00    +0.000 N 
ATOM     16  C   UNL     1       0.251   9.521  19.305  0.00  0.00    +0.000 C 
ATOM     17  O   UNL     1      -0.459   9.317  20.288  0.00  0.00    +0.000 OA
ATOM     18  H   UNL     1       0.468  10.006  17.307  0.00  0.00    +0.000 HD
BRANCH  15  23
ATOM     19  C   UNL     1      -5.467  11.987  17.030  0.00  0.00    +0.000 C 
ATOM     20  C   UNL     1      -4.097  11.450  17.309  0.00  0.00    +0.000 A 
ATOM     21  C   UNL     1      -3.528  10.493  16.466  0.00  0.00    +0.000 A 
ATOM     22  C   UNL     1      -2.243  10.005  16.713  0.00  0.00    +0.000 A 
ATOM     23  C   UNL     1      -1.499  10.458  17.803  0.00  0.00    +0.000 A 
ATOM     24  C   UNL     1      -2.078  11.390  18.671  0.00  0.00    +0.000 A 
ATOM     25  C   UNL     1      -3.362  11.893  18.415  0.00  0.00    +0.000 A 
ENDBRANCH  15  23
ENDBRANCH   1  16
TORSDOF 3
ENDMDL
