MODEL 1
REMARK VINA RESULT:      -6.3      0.000      0.000
REMARK  Name = 
REMARK  13 active torsions:
REMARK  status: ('A' for Active; 'I' for Inactive)
REMARK    1  A    between atoms: CE_1  and  SD_2
REMARK    2  A    between atoms: SD_2  and  CG_3
REMARK    3  A    between atoms: CG_3  and  CB_4
REMARK    4  A    between atoms: CB_4  and  CA_5
REMARK    5  A    between atoms: CA_5  and  N_6
REMARK    6  A    between atoms: CA_5  and  C_32
REMARK    7  A    between atoms: C_7  and  C_9
REMARK    8  A    between atoms: C_12  and  C_13
REMARK    9  A    between atoms: C_13  and  C_14
REMARK   10  A    between atoms: C_16  and  C_17
REMARK   11  A    between atoms: C_24  and  C_25
REMARK   12  A    between atoms: C_30  and  C_31
REMARK   13  A    between atoms: C_32  and  OXT_34
REMARK                            x       y       z     vdW  Elec       q    Type
REMARK                         _______ _______ _______ _____ _____    ______ ____
ROOT
ATOM      1  C   UNK A   0       3.387   6.979  18.099  0.00  0.00    +0.000 A 
ATOM      2  C   UNK A   0       4.493   7.676  17.551  0.00  0.00    +0.000 A 
ATOM      3  C   UNK A   0       5.772   7.113  17.516  0.00  0.00    +0.000 A 
ATOM      4  C   UNK A   0       5.974   5.840  18.035  0.00  0.00    +0.000 A 
ATOM      5  C   UNK A   0       4.866   5.128  18.530  0.00  0.00    +0.000 A 
ATOM      6  C   UNK A   0       3.547   5.650  18.572  0.00  0.00    +0.000 A 
ENDROOT
BRANCH   6   7
ATOM      7  C   UNK A   0       2.424   4.738  18.974  0.00  0.00    +0.000 A 
ATOM      8  C   UNK A   0       2.144   3.613  18.164  0.00  0.00    +0.000 A 
ATOM      9  C   UNK A   0       1.084   2.740  18.421  0.00  0.00    +0.000 A 
ATOM     10  C   UNK A   0       0.316   2.908  19.557  0.00  0.00    +0.000 A 
ATOM     11  C   UNK A   0       0.605   3.954  20.424  0.00  0.00    +0.000 A 
ATOM     12  C   UNK A   0       1.624   4.891  20.140  0.00  0.00    +0.000 A 
ATOM     13  C   UNK A   0       1.797   5.994  21.155  0.00  0.00    +0.000 C 
ENDBRANCH   6   7
BRANCH   1  15
ATOM     14  N   MET A   1       1.979   8.882  18.825  0.00  0.00    +0.000 N 
ATOM     15  C   UNK A   0       2.098   7.747  18.054  0.00  0.00    +0.000 C 
ATOM     16  O   UNK A   0       1.189   7.361  17.324  0.00  0.00    +0.000 OA
ATOM     17  H   MET A   1       2.739   9.182  19.430  0.00  0.00    +0.000 HD
BRANCH  14  18
ATOM     18  CA  MET A   1       0.716   9.621  18.923  0.00  0.00    +0.000 C 
BRANCH  18  19
ATOM     19  C   MET A   1       1.008  11.108  18.677  0.00  0.00    +0.000 C 
ATOM     20  O   MET A   1       2.088  11.546  18.309  0.00  0.00    +0.000 OA
BRANCH  19  21
ATOM     21  OXT MET A   1      -0.045  11.912  18.957  0.00  0.00    +0.000 OA
ATOM     22  HXT MET A   1      -0.178  12.073  19.916  0.00  0.00    +0.000 HD
ENDBRANCH  19  21
ENDBRANCH  18  19
BRANCH  18  23
ATOM     23  CB  MET A   1       0.046   9.435  20.300  0.00  0.00    +0.000 C 
BRANCH  23  24
ATOM     24  CG  MET A   1       0.962   9.587  21.521  0.00  0.00    +0.000 C 
BRANCH  24  26
ATOM     25  CE  MET A   1      -1.026  10.971  22.870  0.00  0.00    +0.000 C 
ATOM     26  SD  MET A   1       0.014   9.508  23.073  0.00  0.00    +0.000 S 
ENDBRANCH  24  26
ENDBRANCH  23  24
ENDBRANCH  18  23
ENDBRANCH  14  18
ENDBRANCH   1  15
BRANCH   4  27
ATOM     27  C   UNK A   0       7.313   5.207  18.047  0.00  0.00    +0.000 C 
ATOM     28  C   UNK A   0       7.830   4.589  16.962  0.00  0.00    +0.000 C 
BRANCH  28  29
ATOM     29  C   UNK A   0       7.180   4.510  15.649  0.00  0.00    +0.000 A 
ATOM     30  C   UNK A   0       6.086   3.668  15.451  0.00  0.00    +0.000 A 
ATOM     31  C   UNK A   0       5.544   3.532  14.175  0.00  0.00    +0.000 A 
ATOM     32  C   UNK A   0       6.109   4.257  13.139  0.00  0.00    +0.000 A 
ATOM     33  N   UNK A   0       7.139   5.116  13.299  0.00  0.00    +0.000 NA
ATOM     34  C   UNK A   0       7.649   5.224  14.548  0.00  0.00    +0.000 A 
ENDBRANCH  28  29
BRANCH  27  35
ATOM     35  C   UNK A   0       8.053   5.219  19.272  0.00  0.00    +0.000 C 
ATOM     36  N   UNK A   0       8.680   5.217  20.255  0.00  0.00    +0.000 NA
ENDBRANCH  27  35
ENDBRANCH   4  27
TORSDOF 11
ENDMDL
MODEL 2
REMARK VINA RESULT:      -6.3      4.709     10.599
REMARK  Name = 
REMARK  13 active torsions:
REMARK  status: ('A' for Active; 'I' for Inactive)
REMARK    1  A    between atoms: CE_1  and  SD_2
REMARK    2  A    between atoms: SD_2  and  CG_3
REMARK    3  A    between atoms: CG_3  and  CB_4
REMARK    4  A    between atoms: CB_4  and  CA_5
REMARK    5  A    between atoms: CA_5  and  N_6
REMARK    6  A    between atoms: CA_5  and  C_32
REMARK    7  A    between atoms: C_7  and  C_9
REMARK    8  A    between atoms: C_12  and  C_13
REMARK    9  A    between atoms: C_13  and  C_14
REMARK   10  A    between atoms: C_16  and  C_17
REMARK   11  A    between atoms: C_24  and  C_25
REMARK   12  A    between atoms: C_30  and  C_31
REMARK   13  A    between atoms: C_32  and  OXT_34
REMARK                            x       y       z     vdW  Elec       q    Type
REMARK                         _______ _______ _______ _____ _____    ______ ____
ROOT
ATOM      1  C   UNK A   0      -0.016  10.941  22.121  0.00  0.00    +0.000 A 
ATOM      2  C   UNK A   0      -1.058  10.532  22.990  0.00  0.00    +0.000 A 
ATOM      3  C   UNK A   0      -2.060  11.415  23.402  0.00  0.00    +0.000 A 
ATOM      4  C   UNK A   0      -2.038  12.731  22.958  0.00  0.00    +0.000 A 
ATOM      5  C   UNK A   0      -1.034  13.122  22.054  0.00  0.00    +0.000 A 
ATOM      6  C   UNK A   0      -0.006  12.260  21.594  0.00  0.00    +0.000 A 
ENDROOT
BRANCH   6   7
ATOM      7  C   UNK A   0       0.911  12.746  20.509  0.00  0.00    +0.000 A 
ATOM      8  C   UNK A   0       2.153  13.314  20.878  0.00  0.00    +0.000 A 
ATOM      9  C   UNK A   0       3.049  13.847  19.948  0.00  0.00    +0.000 A 
ATOM     10  C   UNK A   0       2.776  13.748  18.597  0.00  0.00    +0.000 A 
ATOM     11  C   UNK A   0       1.604  13.126  18.185  0.00  0.00    +0.000 A 
ATOM     12  C   UNK A   0       0.651  12.650  19.114  0.00  0.00    +0.000 A 
ATOM     13  C   UNK A   0      -0.589  12.033  18.517  0.00  0.00    +0.000 C 
ENDBRANCH   6   7
BRANCH   1  15
ATOM     14  N   MET A   1       0.915   9.269  20.551  0.00  0.00    +0.000 N 
ATOM     15  C   UNK A   0       0.970   9.856  21.795  0.00  0.00    +0.000 C 
ATOM     16  O   UNK A   0       1.807   9.528  22.631  0.00  0.00    +0.000 OA
ATOM     17  H   MET A   1       0.210   9.548  19.874  0.00  0.00    +0.000 HD
BRANCH  14  18
ATOM     18  CA  MET A   1       1.766   8.128  20.197  0.00  0.00    +0.000 C 
BRANCH  18  19
ATOM     19  C   MET A   1       2.058   8.194  18.692  0.00  0.00    +0.000 C 
ATOM     20  O   MET A   1       2.967   7.593  18.139  0.00  0.00    +0.000 OA
BRANCH  19  21
ATOM     21  OXT MET A   1       1.231   9.034  18.023  0.00  0.00    +0.000 OA
ATOM     22  HXT MET A   1       1.281   8.947  17.048  0.00  0.00    +0.000 HD
ENDBRANCH  19  21
ENDBRANCH  18  19
BRANCH  18  23
ATOM     23  CB  MET A   1       1.098   6.783  20.548  0.00  0.00    +0.000 C 
BRANCH  23  24
ATOM     24  CG  MET A   1       2.026   5.561  20.592  0.00  0.00    +0.000 C 
BRANCH  24  26
ATOM     25  CE  MET A   1       1.775   2.981  21.576  0.00  0.00    +0.000 C 
ATOM     26  SD  MET A   1       1.110   4.023  20.258  0.00  0.00    +0.000 S 
ENDBRANCH  24  26
ENDBRANCH  23  24
ENDBRANCH  18  23
ENDBRANCH  14  18
ENDBRANCH   1  15
BRANCH   4  27
ATOM     27  C   UNK A   0      -3.060  13.715  23.385  0.00  0.00    +0.000 C 
ATOM     28  C   UNK A   0      -4.244  13.849  22.747  0.00  0.00    +0.000 C 
BRANCH  28  29
ATOM     29  C   UNK A   0      -4.687  13.030  21.614  0.00  0.00    +0.000 A 
ATOM     30  C   UNK A   0      -3.980  13.042  20.412  0.00  0.00    +0.000 A 
ATOM     31  C   UNK A   0      -4.471  12.334  19.317  0.00  0.00    +0.000 A 
ATOM     32  C   UNK A   0      -5.651  11.625  19.467  0.00  0.00    +0.000 A 
ATOM     33  N   UNK A   0      -6.341  11.553  20.626  0.00  0.00    +0.000 NA
ATOM     34  C   UNK A   0      -5.843  12.254  21.671  0.00  0.00    +0.000 A 
ENDBRANCH  28  29
BRANCH  27  35
ATOM     35  C   UNK A   0      -2.749  14.576  24.485  0.00  0.00    +0.000 C 
ATOM     36  N   UNK A   0      -2.517  15.295  25.373  0.00  0.00    +0.000 NA
ENDBRANCH  27  35
ENDBRANCH   4  27
TORSDOF 11
ENDMDL
MODEL 3
REMARK VINA RESULT:      -6.3      0.804      1.350
REMARK  Name = 
REMARK  13 active torsions:
REMARK  status: ('A' for Active; 'I' for Inactive)
REMARK    1  A    between atoms: CE_1  and  SD_2
REMARK    2  A    between atoms: SD_2  and  CG_3
REMARK    3  A    between atoms: CG_3  and  CB_4
REMARK    4  A    between atoms: CB_4  and  CA_5
REMARK    5  A    between atoms: CA_5  and  N_6
REMARK    6  A    between atoms: CA_5  and  C_32
REMARK    7  A    between atoms: C_7  and  C_9
REMARK    8  A    between atoms: C_12  and  C_13
REMARK    9  A    between atoms: C_13  and  C_14
REMARK   10  A    between atoms: C_16  and  C_17
REMARK   11  A    between atoms: C_24  and  C_25
REMARK   12  A    between atoms: C_30  and  C_31
REMARK   13  A    between atoms: C_32  and  OXT_34
REMARK                            x       y       z     vdW  Elec       q    Type
REMARK                         _______ _______ _______ _____ _____    ______ ____
ROOT
ATOM      1  C   UNK A   0       3.433   6.859  18.375  0.00  0.00    +0.000 A 
ATOM      2  C   UNK A   0       4.473   7.538  17.693  0.00  0.00    +0.000 A 
ATOM      3  C   UNK A   0       5.759   7.000  17.592  0.00  0.00    +0.000 A 
ATOM      4  C   UNK A   0       6.033   5.769  18.175  0.00  0.00    +0.000 A 
ATOM      5  C   UNK A   0       4.987   5.071  18.805  0.00  0.00    +0.000 A 
ATOM      6  C   UNK A   0       3.663   5.568  18.919  0.00  0.00    +0.000 A 
ENDROOT
BRANCH   6   7
ATOM      7  C   UNK A   0       2.599   4.664  19.470  0.00  0.00    +0.000 A 
ATOM      8  C   UNK A   0       2.454   4.567  20.874  0.00  0.00    +0.000 A 
ATOM      9  C   UNK A   0       1.534   3.711  21.483  0.00  0.00    +0.000 A 
ATOM     10  C   UNK A   0       0.654   2.983  20.706  0.00  0.00    +0.000 A 
ATOM     11  C   UNK A   0       0.707   3.107  19.323  0.00  0.00    +0.000 A 
ATOM     12  C   UNK A   0       1.681   3.909  18.688  0.00  0.00    +0.000 A 
ATOM     13  C   UNK A   0       1.638   3.915  17.180  0.00  0.00    +0.000 C 
ENDBRANCH   6   7
BRANCH   1  15
ATOM     14  N   MET A   1       1.923   8.567  19.340  0.00  0.00    +0.000 N 
ATOM     15  C   UNK A   0       2.125   7.597  18.384  0.00  0.00    +0.000 C 
ATOM     16  O   UNK A   0       1.275   7.334  17.537  0.00  0.00    +0.000 OA
ATOM     17  H   MET A   1       2.634   8.766  20.039  0.00  0.00    +0.000 HD
BRANCH  14  18
ATOM     18  CA  MET A   1       0.633   9.250  19.486  0.00  0.00    +0.000 C 
BRANCH  18  19
ATOM     19  C   MET A   1       0.681  10.549  18.668  0.00  0.00    +0.000 C 
ATOM     20  O   MET A   1       1.549  11.401  18.780  0.00  0.00    +0.000 OA
BRANCH  19  21
ATOM     21  OXT MET A   1      -0.374  10.691  17.829  0.00  0.00    +0.000 OA
ATOM     22  HXT MET A   1      -1.081  11.275  18.177  0.00  0.00    +0.000 HD
ENDBRANCH  19  21
ENDBRANCH  18  19
BRANCH  18  23
ATOM     23  CB  MET A   1       0.315   9.567  20.961  0.00  0.00    +0.000 C 
BRANCH  23  24
ATOM     24  CG  MET A   1      -0.663  10.724  21.206  0.00  0.00    +0.000 C 
BRANCH  24  26
ATOM     25  CE  MET A   1      -2.293  12.209  22.889  0.00  0.00    +0.000 C 
ATOM     26  SD  MET A   1      -1.053  10.897  22.977  0.00  0.00    +0.000 S 
ENDBRANCH  24  26
ENDBRANCH  23  24
ENDBRANCH  18  23
ENDBRANCH  14  18
ENDBRANCH   1  15
BRANCH   4  27
ATOM     27  C   UNK A   0       7.385   5.164  18.120  0.00  0.00    +0.000 C 
ATOM     28  C   UNK A   0       7.862   4.562  17.007  0.00  0.00    +0.000 C 
BRANCH  28  29
ATOM     29  C   UNK A   0       7.151   4.474  15.727  0.00  0.00    +0.000 A 
ATOM     30  C   UNK A   0       6.016   3.673  15.601  0.00  0.00    +0.000 A 
ATOM     31  C   UNK A   0       5.413   3.525  14.354  0.00  0.00    +0.000 A 
ATOM     32  C   UNK A   0       5.960   4.199  13.274  0.00  0.00    +0.000 A 
ATOM     33  N   UNK A   0       7.029   5.019  13.365  0.00  0.00    +0.000 NA
ATOM     34  C   UNK A   0       7.598   5.139  14.587  0.00  0.00    +0.000 A 
ENDBRANCH  28  29
BRANCH  27  35
ATOM     35  C   UNK A   0       8.183   5.187  19.307  0.00  0.00    +0.000 C 
ATOM     36  N   UNK A   0       8.820   5.181  20.283  0.00  0.00    +0.000 NA
ENDBRANCH  27  35
ENDBRANCH   4  27
TORSDOF 11
ENDMDL
MODEL 4
REMARK VINA RESULT:      -6.2      6.065     11.827
REMARK  Name = 
REMARK  13 active torsions:
REMARK  status: ('A' for Active; 'I' for Inactive)
REMARK    1  A    between atoms: CE_1  and  SD_2
REMARK    2  A    between atoms: SD_2  and  CG_3
REMARK    3  A    between atoms: CG_3  and  CB_4
REMARK    4  A    between atoms: CB_4  and  CA_5
REMARK    5  A    between atoms: CA_5  and  N_6
REMARK    6  A    between atoms: CA_5  and  C_32
REMARK    7  A    between atoms: C_7  and  C_9
REMARK    8  A    between atoms: C_12  and  C_13
REMARK    9  A    between atoms: C_13  and  C_14
REMARK   10  A    between atoms: C_16  and  C_17
REMARK   11  A    between atoms: C_24  and  C_25
REMARK   12  A    between atoms: C_30  and  C_31
REMARK   13  A    between atoms: C_32  and  OXT_34
REMARK                            x       y       z     vdW  Elec       q    Type
REMARK                         _______ _______ _______ _____ _____    ______ ____
ROOT
ATOM      1  C   UNK A   0      -2.598  12.178  18.900  0.00  0.00    +0.000 A 
ATOM      2  C   UNK A   0      -3.426  11.606  17.902  0.00  0.00    +0.000 A 
ATOM      3  C   UNK A   0      -4.806  11.476  18.079  0.00  0.00    +0.000 A 
ATOM      4  C   UNK A   0      -5.389  11.911  19.263  0.00  0.00    +0.000 A 
ATOM      5  C   UNK A   0      -4.575  12.527  20.230  0.00  0.00    +0.000 A 
ATOM      6  C   UNK A   0      -3.173  12.697  20.090  0.00  0.00    +0.000 A 
ENDROOT
BRANCH   6   7
ATOM      7  C   UNK A   0      -2.439  13.510  21.116  0.00  0.00    +0.000 A 
ATOM      8  C   UNK A   0      -2.568  14.919  21.082  0.00  0.00    +0.000 A 
ATOM      9  C   UNK A   0      -1.880  15.764  21.956  0.00  0.00    +0.000 A 
ATOM     10  C   UNK A   0      -1.104  15.225  22.963  0.00  0.00    +0.000 A 
ATOM     11  C   UNK A   0      -1.011  13.845  23.085  0.00  0.00    +0.000 A 
ATOM     12  C   UNK A   0      -1.638  12.976  22.163  0.00  0.00    +0.000 A 
ATOM     13  C   UNK A   0      -1.416  11.503  22.402  0.00  0.00    +0.000 C 
ENDBRANCH   6   7
BRANCH   1  15
ATOM     14  N   MET A   1      -0.338  11.168  18.888  0.00  0.00    +0.000 N 
ATOM     15  C   UNK A   0      -1.143  12.227  18.532  0.00  0.00    +0.000 C 
ATOM     16  O   UNK A   0      -0.707  13.193  17.913  0.00  0.00    +0.000 OA
ATOM     17  H   MET A   1      -0.714  10.380  19.408  0.00  0.00    +0.000 HD
BRANCH  14  18
ATOM     18  CA  MET A   1       1.112  11.192  18.667  0.00  0.00    +0.000 C 
BRANCH  18  19
ATOM     19  C   MET A   1       1.597   9.744  18.504  0.00  0.00    +0.000 C 
ATOM     20  O   MET A   1       2.089   9.294  17.481  0.00  0.00    +0.000 OA
BRANCH  19  21
ATOM     21  OXT MET A   1       1.382   8.982  19.604  0.00  0.00    +0.000 OA
ATOM     22  HXT MET A   1       1.144   9.498  20.403  0.00  0.00    +0.000 HD
ENDBRANCH  19  21
ENDBRANCH  18  19
BRANCH  18  23
ATOM     23  CB  MET A   1       1.860  11.872  19.831  0.00  0.00    +0.000 C 
BRANCH  23  24
ATOM     24  CG  MET A   1       2.485  13.239  19.524  0.00  0.00    +0.000 C 
BRANCH  24  26
ATOM     25  CE  MET A   1       2.310  16.006  19.486  0.00  0.00    +0.000 C 
ATOM     26  SD  MET A   1       1.539  14.588  20.298  0.00  0.00    +0.000 S 
ENDBRANCH  24  26
ENDBRANCH  23  24
ENDBRANCH  18  23
ENDBRANCH  14  18
ENDBRANCH   1  15
BRANCH   4  27
ATOM     27  C   UNK A   0      -6.843  11.773  19.513  0.00  0.00    +0.000 C 
ATOM     28  C   UNK A   0      -7.741  12.682  19.072  0.00  0.00    +0.000 C 
BRANCH  28  29
ATOM     29  C   UNK A   0      -7.416  13.864  18.265  0.00  0.00    +0.000 A 
ATOM     30  C   UNK A   0      -7.177  15.094  18.877  0.00  0.00    +0.000 A 
ATOM     31  C   UNK A   0      -6.967  16.225  18.090  0.00  0.00    +0.000 A 
ATOM     32  C   UNK A   0      -6.991  16.082  16.713  0.00  0.00    +0.000 A 
ATOM     33  N   UNK A   0      -7.174  14.901  16.084  0.00  0.00    +0.000 NA
ATOM     34  C   UNK A   0      -7.380  13.821  16.873  0.00  0.00    +0.000 A 
ENDBRANCH  28  29
BRANCH  27  35
ATOM     35  C   UNK A   0      -7.291  10.658  20.289  0.00  0.00    +0.000 C 
ATOM     36  N   UNK A   0      -7.629   9.746  20.933  0.00  0.00    +0.000 NA
ENDBRANCH  27  35
ENDBRANCH   4  27
TORSDOF 11
ENDMDL
MODEL 5
REMARK VINA RESULT:      -6.1      8.383     10.489
REMARK  Name = 
REMARK  13 active torsions:
REMARK  status: ('A' for Active; 'I' for Inactive)
REMARK    1  A    between atoms: CE_1  and  SD_2
REMARK    2  A    between atoms: SD_2  and  CG_3
REMARK    3  A    between atoms: CG_3  and  CB_4
REMARK    4  A    between atoms: CB_4  and  CA_5
REMARK    5  A    between atoms: CA_5  and  N_6
REMARK    6  A    between atoms: CA_5  and  C_32
REMARK    7  A    between atoms: C_7  and  C_9
REMARK    8  A    between atoms: C_12  and  C_13
REMARK    9  A    between atoms: C_13  and  C_14
REMARK   10  A    between atoms: C_16  and  C_17
REMARK   11  A    between atoms: C_24  and  C_25
REMARK   12  A    between atoms: C_30  and  C_31
REMARK   13  A    between atoms: C_32  and  OXT_34
REMARK                            x       y       z     vdW  Elec       q    Type
REMARK                         _______ _______ _______ _____ _____    ______ ____
ROOT
ATOM      1  C   UNK A   0      -0.766  12.888  19.297  0.00  0.00    +0.000 A 
ATOM      2  C   UNK A   0       0.453  13.098  18.604  0.00  0.00    +0.000 A 
ATOM      3  C   UNK A   0       1.377  14.060  19.018  0.00  0.00    +0.000 A 
ATOM      4  C   UNK A   0       1.099  14.840  20.135  0.00  0.00    +0.000 A 
ATOM      5  C   UNK A   0      -0.085  14.594  20.853  0.00  0.00    +0.000 A 
ATOM      6  C   UNK A   0      -1.045  13.619  20.482  0.00  0.00    +0.000 A 
ENDROOT
BRANCH   6   7
ATOM      7  C   UNK A   0      -2.188  13.340  21.415  0.00  0.00    +0.000 A 
ATOM      8  C   UNK A   0      -3.405  14.034  21.219  0.00  0.00    +0.000 A 
ATOM      9  C   UNK A   0      -4.506  13.888  22.067  0.00  0.00    +0.000 A 
ATOM     10  C   UNK A   0      -4.461  12.968  23.097  0.00  0.00    +0.000 A 
ATOM     11  C   UNK A   0      -3.314  12.207  23.279  0.00  0.00    +0.000 A 
ATOM     12  C   UNK A   0      -2.165  12.395  22.478  0.00  0.00    +0.000 A 
ATOM     13  C   UNK A   0      -0.983  11.522  22.818  0.00  0.00    +0.000 C 
ENDBRANCH   6   7
BRANCH   1  15
ATOM     14  N   MET A   1      -2.675  12.193  17.882  0.00  0.00    +0.000 N 
ATOM     15  C   UNK A   0      -1.632  11.817  18.699  0.00  0.00    +0.000 C 
ATOM     16  O   UNK A   0      -1.386  10.637  18.935  0.00  0.00    +0.000 OA
ATOM     17  H   MET A   1      -2.870  13.175  17.704  0.00  0.00    +0.000 HD
BRANCH  14  18
ATOM     18  CA  MET A   1      -3.633  11.216  17.354  0.00  0.00    +0.000 C 
BRANCH  18  19
ATOM     19  C   MET A   1      -3.104  10.703  16.007  0.00  0.00    +0.000 C 
ATOM     20  O   MET A   1      -3.416  11.169  14.922  0.00  0.00    +0.000 OA
BRANCH  19  21
ATOM     21  OXT MET A   1      -2.281   9.633  16.129  0.00  0.00    +0.000 OA
ATOM     22  HXT MET A   1      -1.578   9.748  16.803  0.00  0.00    +0.000 HD
ENDBRANCH  19  21
ENDBRANCH  18  19
BRANCH  18  23
ATOM     23  CB  MET A   1      -5.037  11.828  17.171  0.00  0.00    +0.000 C 
BRANCH  23  24
ATOM     24  CG  MET A   1      -6.157  11.209  18.016  0.00  0.00    +0.000 C 
BRANCH  24  26
ATOM     25  CE  MET A   1      -7.416  11.351  20.484  0.00  0.00    +0.000 C 
ATOM     26  SD  MET A   1      -6.897  12.439  19.137  0.00  0.00    +0.000 S 
ENDBRANCH  24  26
ENDBRANCH  23  24
ENDBRANCH  18  23
ENDBRANCH  14  18
ENDBRANCH   1  15
BRANCH   4  27
ATOM     27  C   UNK A   0       2.032  15.892  20.602  0.00  0.00    +0.000 C 
ATOM     28  C   UNK A   0       2.021  17.144  20.094  0.00  0.00    +0.000 C 
BRANCH  28  29
ATOM     29  C   UNK A   0       1.080  17.634  19.081  0.00  0.00    +0.000 A 
ATOM     30  C   UNK A   0      -0.222  17.987  19.436  0.00  0.00    +0.000 A 
ATOM     31  C   UNK A   0      -1.129  18.356  18.446  0.00  0.00    +0.000 A 
ATOM     32  C   UNK A   0      -0.697  18.374  17.130  0.00  0.00    +0.000 A 
ATOM     33  N   UNK A   0       0.566  18.083  16.751  0.00  0.00    +0.000 NA
ATOM     34  C   UNK A   0       1.425  17.722  17.734  0.00  0.00    +0.000 A 
ENDBRANCH  28  29
BRANCH  27  35
ATOM     35  C   UNK A   0       3.002  15.541  21.594  0.00  0.00    +0.000 C 
ATOM     36  N   UNK A   0       3.810  15.276  22.391  0.00  0.00    +0.000 NA
ENDBRANCH  27  35
ENDBRANCH   4  27
TORSDOF 11
ENDMDL
MODEL 6
REMARK VINA RESULT:      -6.1      8.390     10.485
REMARK  Name = 
REMARK  13 active torsions:
REMARK  status: ('A' for Active; 'I' for Inactive)
REMARK    1  A    between atoms: CE_1  and  SD_2
REMARK    2  A    between atoms: SD_2  and  CG_3
REMARK    3  A    between atoms: CG_3  and  CB_4
REMARK    4  A    between atoms: CB_4  and  CA_5
REMARK    5  A    between atoms: CA_5  and  N_6
REMARK    6  A    between atoms: CA_5  and  C_32
REMARK    7  A    between atoms: C_7  and  C_9
REMARK    8  A    between atoms: C_12  and  C_13
REMARK    9  A    between atoms: C_13  and  C_14
REMARK   10  A    between atoms: C_16  and  C_17
REMARK   11  A    between atoms: C_24  and  C_25
REMARK   12  A    between atoms: C_30  and  C_31
REMARK   13  A    between atoms: C_32  and  OXT_34
REMARK                            x       y       z     vdW  Elec       q    Type
REMARK                         _______ _______ _______ _____ _____    ______ ____
ROOT
ATOM      1  C   UNK A   0      -0.553  12.959  19.209  0.00  0.00    +0.000 A 
ATOM      2  C   UNK A   0       0.539  13.274  18.363  0.00  0.00    +0.000 A 
ATOM      3  C   UNK A   0       1.468  14.262  18.701  0.00  0.00    +0.000 A 
ATOM      4  C   UNK A   0       1.321  14.961  19.892  0.00  0.00    +0.000 A 
ATOM      5  C   UNK A   0       0.268  14.611  20.756  0.00  0.00    +0.000 A 
ATOM      6  C   UNK A   0      -0.689  13.605  20.466  0.00  0.00    +0.000 A 
ENDROOT
BRANCH   6   7
ATOM      7  C   UNK A   0      -1.668  13.212  21.534  0.00  0.00    +0.000 A 
ATOM      8  C   UNK A   0      -1.326  12.156  22.411  0.00  0.00    +0.000 A 
ATOM      9  C   UNK A   0      -2.191  11.679  23.398  0.00  0.00    +0.000 A 
ATOM     10  C   UNK A   0      -3.405  12.306  23.607  0.00  0.00    +0.000 A 
ATOM     11  C   UNK A   0      -3.750  13.398  22.822  0.00  0.00    +0.000 A 
ATOM     12  C   UNK A   0      -2.920  13.846  21.769  0.00  0.00    +0.000 A 
ATOM     13  C   UNK A   0      -3.445  15.019  20.980  0.00  0.00    +0.000 C 
ENDBRANCH   6   7
BRANCH   1  15
ATOM     14  N   MET A   1      -2.508  12.233  17.875  0.00  0.00    +0.000 N 
ATOM     15  C   UNK A   0      -1.446  11.876  18.676  0.00  0.00    +0.000 C 
ATOM     16  O   UNK A   0      -1.206  10.703  18.949  0.00  0.00    +0.000 OA
ATOM     17  H   MET A   1      -2.697  13.210  17.666  0.00  0.00    +0.000 HD
BRANCH  14  18
ATOM     18  CA  MET A   1      -3.490  11.248  17.410  0.00  0.00    +0.000 C 
BRANCH  18  19
ATOM     19  C   MET A   1      -3.015  10.696  16.058  0.00  0.00    +0.000 C 
ATOM     20  O   MET A   1      -3.347  11.150  14.974  0.00  0.00    +0.000 OA
BRANCH  19  21
ATOM     21  OXT MET A   1      -2.216   9.607  16.176  0.00  0.00    +0.000 OA
ATOM     22  HXT MET A   1      -1.917   9.241  15.318  0.00  0.00    +0.000 HD
ENDBRANCH  19  21
ENDBRANCH  18  19
BRANCH  18  23
ATOM     23  CB  MET A   1      -4.896  11.863  17.264  0.00  0.00    +0.000 C 
BRANCH  23  24
ATOM     24  CG  MET A   1      -6.023  11.159  18.030  0.00  0.00    +0.000 C 
BRANCH  24  26
ATOM     25  CE  MET A   1      -7.379  10.764  20.417  0.00  0.00    +0.000 C 
ATOM     26  SD  MET A   1      -6.437  12.048  19.564  0.00  0.00    +0.000 S 
ENDBRANCH  24  26
ENDBRANCH  23  24
ENDBRANCH  18  23
ENDBRANCH  14  18
ENDBRANCH   1  15
BRANCH   4  27
ATOM     27  C   UNK A   0       2.262  16.036  20.286  0.00  0.00    +0.000 C 
ATOM     28  C   UNK A   0       2.140  17.304  19.834  0.00  0.00    +0.000 C 
BRANCH  28  29
ATOM     29  C   UNK A   0       1.064  17.788  18.963  0.00  0.00    +0.000 A 
ATOM     30  C   UNK A   0      -0.197  18.070  19.486  0.00  0.00    +0.000 A 
ATOM     31  C   UNK A   0      -1.233  18.434  18.628  0.00  0.00    +0.000 A 
ATOM     32  C   UNK A   0      -0.965  18.518  17.272  0.00  0.00    +0.000 A 
ATOM     33  N   UNK A   0       0.253  18.296  16.732  0.00  0.00    +0.000 NA
ATOM     34  C   UNK A   0       1.238  17.939  17.589  0.00  0.00    +0.000 A 
ENDBRANCH  28  29
BRANCH  27  35
ATOM     35  C   UNK A   0       3.359  15.693  21.139  0.00  0.00    +0.000 C 
ATOM     36  N   UNK A   0       4.260  15.442  21.835  0.00  0.00    +0.000 NA
ENDBRANCH  27  35
ENDBRANCH   4  27
TORSDOF 11
ENDMDL
MODEL 7
REMARK VINA RESULT:      -6.0      7.167     10.145
REMARK  Name = 
REMARK  13 active torsions:
REMARK  status: ('A' for Active; 'I' for Inactive)
REMARK    1  A    between atoms: CE_1  and  SD_2
REMARK    2  A    between atoms: SD_2  and  CG_3
REMARK    3  A    between atoms: CG_3  and  CB_4
REMARK    4  A    between atoms: CB_4  and  CA_5
REMARK    5  A    between atoms: CA_5  and  N_6
REMARK    6  A    between atoms: CA_5  and  C_32
REMARK    7  A    between atoms: C_7  and  C_9
REMARK    8  A    between atoms: C_12  and  C_13
REMARK    9  A    between atoms: C_13  and  C_14
REMARK   10  A    between atoms: C_16  and  C_17
REMARK   11  A    between atoms: C_24  and  C_25
REMARK   12  A    between atoms: C_30  and  C_31
REMARK   13  A    between atoms: C_32  and  OXT_34
REMARK                            x       y       z     vdW  Elec       q    Type
REMARK                         _______ _______ _______ _____ _____    ______ ____
ROOT
ATOM      1  C   UNK A   0      -1.919  13.543  20.847  0.00  0.00    +0.000 A 
ATOM      2  C   UNK A   0      -2.115  14.932  20.642  0.00  0.00    +0.000 A 
ATOM      3  C   UNK A   0      -1.245  15.884  21.180  0.00  0.00    +0.000 A 
ATOM      4  C   UNK A   0      -0.159  15.466  21.940  0.00  0.00    +0.000 A 
ATOM      5  C   UNK A   0       0.066  14.087  22.097  0.00  0.00    +0.000 A 
ATOM      6  C   UNK A   0      -0.779  13.083  21.558  0.00  0.00    +0.000 A 
ENDROOT
BRANCH   6   7
ATOM      7  C   UNK A   0      -0.349  11.648  21.658  0.00  0.00    +0.000 A 
ATOM      8  C   UNK A   0      -0.746  10.900  22.791  0.00  0.00    +0.000 A 
ATOM      9  C   UNK A   0      -0.348   9.578  23.004  0.00  0.00    +0.000 A 
ATOM     10  C   UNK A   0       0.391   8.920  22.040  0.00  0.00    +0.000 A 
ATOM     11  C   UNK A   0       0.738   9.591  20.874  0.00  0.00    +0.000 A 
ATOM     12  C   UNK A   0       0.409  10.952  20.676  0.00  0.00    +0.000 A 
ATOM     13  C   UNK A   0       0.884  11.555  19.378  0.00  0.00    +0.000 C 
ENDBRANCH   6   7
BRANCH   1  15
ATOM     14  N   MET A   1      -2.778  12.298  18.887  0.00  0.00    +0.000 N 
ATOM     15  C   UNK A   0      -2.960  12.676  20.198  0.00  0.00    +0.000 C 
ATOM     16  O   UNK A   0      -3.936  12.313  20.849  0.00  0.00    +0.000 OA
ATOM     17  H   MET A   1      -1.968  12.616  18.361  0.00  0.00    +0.000 HD
BRANCH  14  18
ATOM     18  CA  MET A   1      -3.801  11.549  18.150  0.00  0.00    +0.000 C 
BRANCH  18  19
ATOM     19  C   MET A   1      -3.255  11.238  16.750  0.00  0.00    +0.000 C 
ATOM     20  O   MET A   1      -3.856  10.594  15.904  0.00  0.00    +0.000 OA
BRANCH  19  21
ATOM     21  OXT MET A   1      -2.000  11.709  16.549  0.00  0.00    +0.000 OA
ATOM     22  HXT MET A   1      -1.894  12.660  16.763  0.00  0.00    +0.000 HD
ENDBRANCH  19  21
ENDBRANCH  18  19
BRANCH  18  23
ATOM     23  CB  MET A   1      -5.121  12.339  18.038  0.00  0.00    +0.000 C 
BRANCH  23  24
ATOM     24  CG  MET A   1      -6.409  11.531  18.243  0.00  0.00    +0.000 C 
BRANCH  24  26
ATOM     25  CE  MET A   1      -7.598  10.646  20.587  0.00  0.00    +0.000 C 
ATOM     26  SD  MET A   1      -7.377  12.172  19.646  0.00  0.00    +0.000 S 
ENDBRANCH  24  26
ENDBRANCH  23  24
ENDBRANCH  18  23
ENDBRANCH  14  18
ENDBRANCH   1  15
BRANCH   4  27
ATOM     27  C   UNK A   0       0.780  16.434  22.554  0.00  0.00    +0.000 C 
ATOM     28  C   UNK A   0       1.797  16.993  21.861  0.00  0.00    +0.000 C 
BRANCH  28  29
ATOM     29  C   UNK A   0       2.071  16.767  20.437  0.00  0.00    +0.000 A 
ATOM     30  C   UNK A   0       2.700  15.597  20.015  0.00  0.00    +0.000 A 
ATOM     31  C   UNK A   0       3.040  15.444  18.672  0.00  0.00    +0.000 A 
ATOM     32  C   UNK A   0       2.723  16.466  17.792  0.00  0.00    +0.000 A 
ATOM     33  N   UNK A   0       2.074  17.593  18.155  0.00  0.00    +0.000 NA
ATOM     34  C   UNK A   0       1.761  17.717  19.466  0.00  0.00    +0.000 A 
ENDBRANCH  28  29
BRANCH  27  35
ATOM     35  C   UNK A   0       0.618  16.743  23.942  0.00  0.00    +0.000 C 
ATOM     36  N   UNK A   0       0.494  16.966  25.079  0.00  0.00    +0.000 NA
ENDBRANCH  27  35
ENDBRANCH   4  27
TORSDOF 11
ENDMDL
MODEL 8
REMARK VINA RESULT:      -6.0      5.406      9.273
REMARK  Name = 
REMARK  13 active torsions:
REMARK  status: ('A' for Active; 'I' for Inactive)
REMARK    1  A    between atoms: CE_1  and  SD_2
REMARK    2  A    between atoms: SD_2  and  CG_3
REMARK    3  A    between atoms: CG_3  and  CB_4
REMARK    4  A    between atoms: CB_4  and  CA_5
REMARK    5  A    between atoms: CA_5  and  N_6
REMARK    6  A    between atoms: CA_5  and  C_32
REMARK    7  A    between atoms: C_7  and  C_9
REMARK    8  A    between atoms: C_12  and  C_13
REMARK    9  A    between atoms: C_13  and  C_14
REMARK   10  A    between atoms: C_16  and  C_17
REMARK   11  A    between atoms: C_24  and  C_25
REMARK   12  A    between atoms: C_30  and  C_31
REMARK   13  A    between atoms: C_32  and  OXT_34
REMARK                            x       y       z     vdW  Elec       q    Type
REMARK                         _______ _______ _______ _____ _____    ______ ____
ROOT
ATOM      1  C   UNK A   0       0.402  12.664  19.394  0.00  0.00    +0.000 A 
ATOM      2  C   UNK A   0      -0.448  13.772  19.635  0.00  0.00    +0.000 A 
ATOM      3  C   UNK A   0      -1.832  13.624  19.757  0.00  0.00    +0.000 A 
ATOM      4  C   UNK A   0      -2.398  12.361  19.634  0.00  0.00    +0.000 A 
ATOM      5  C   UNK A   0      -1.550  11.255  19.448  0.00  0.00    +0.000 A 
ATOM      6  C   UNK A   0      -0.139  11.352  19.335  0.00  0.00    +0.000 A 
ENDROOT
BRANCH   6   7
ATOM      7  C   UNK A   0       0.670  10.088  19.299  0.00  0.00    +0.000 A 
ATOM      8  C   UNK A   0       1.189   9.653  18.057  0.00  0.00    +0.000 A 
ATOM      9  C   UNK A   0       1.903   8.461  17.910  0.00  0.00    +0.000 A 
ATOM     10  C   UNK A   0       2.207   7.702  19.024  0.00  0.00    +0.000 A 
ATOM     11  C   UNK A   0       1.786   8.132  20.275  0.00  0.00    +0.000 A 
ATOM     12  C   UNK A   0       0.997   9.294  20.433  0.00  0.00    +0.000 A 
ATOM     13  C   UNK A   0       0.584   9.614  21.848  0.00  0.00    +0.000 C 
ENDBRANCH   6   7
BRANCH   1  15
ATOM     14  N   MET A   1       2.432  13.752  20.302  0.00  0.00    +0.000 N 
ATOM     15  C   UNK A   0       1.857  13.021  19.287  0.00  0.00    +0.000 C 
ATOM     16  O   UNK A   0       2.503  12.643  18.313  0.00  0.00    +0.000 OA
ATOM     17  H   MET A   1       1.879  14.064  21.097  0.00  0.00    +0.000 HD
BRANCH  14  18
ATOM     18  CA  MET A   1       3.814  14.236  20.218  0.00  0.00    +0.000 C 
BRANCH  18  19
ATOM     19  C   MET A   1       4.369  14.356  21.644  0.00  0.00    +0.000 C 
ATOM     20  O   MET A   1       5.552  14.257  21.933  0.00  0.00    +0.000 OA
BRANCH  19  21
ATOM     21  OXT MET A   1       3.405  14.536  22.579  0.00  0.00    +0.000 OA
ATOM     22  HXT MET A   1       2.499  14.346  22.256  0.00  0.00    +0.000 HD
ENDBRANCH  19  21
ENDBRANCH  18  19
BRANCH  18  23
ATOM     23  CB  MET A   1       3.903  15.598  19.500  0.00  0.00    +0.000 C 
BRANCH  23  24
ATOM     24  CG  MET A   1       5.173  15.845  18.677  0.00  0.00    +0.000 C 
BRANCH  24  26
ATOM     25  CE  MET A   1       7.732  16.899  18.496  0.00  0.00    +0.000 C 
ATOM     26  SD  MET A   1       6.199  17.154  19.418  0.00  0.00    +0.000 S 
ENDBRANCH  24  26
ENDBRANCH  23  24
ENDBRANCH  18  23
ENDBRANCH  14  18
ENDBRANCH   1  15
BRANCH   4  27
ATOM     27  C   UNK A   0      -3.862  12.151  19.729  0.00  0.00    +0.000 C 
ATOM     28  C   UNK A   0      -4.570  11.548  18.749  0.00  0.00    +0.000 C 
BRANCH  28  29
ATOM     29  C   UNK A   0      -3.998  10.989  17.519  0.00  0.00    +0.000 A 
ATOM     30  C   UNK A   0      -3.305   9.779  17.547  0.00  0.00    +0.000 A 
ATOM     31  C   UNK A   0      -2.686   9.313  16.390  0.00  0.00    +0.000 A 
ATOM     32  C   UNK A   0      -2.795  10.070  15.235  0.00  0.00    +0.000 A 
ATOM     33  N   UNK A   0      -3.495  11.222  15.156  0.00  0.00    +0.000 NA
ATOM     34  C   UNK A   0      -4.081  11.653  16.297  0.00  0.00    +0.000 A 
ENDBRANCH  28  29
BRANCH  27  35
ATOM     35  C   UNK A   0      -4.541  12.651  20.885  0.00  0.00    +0.000 C 
ATOM     36  N   UNK A   0      -5.116  13.038  21.823  0.00  0.00    +0.000 NA
ENDBRANCH  27  35
ENDBRANCH   4  27
TORSDOF 11
ENDMDL
MODEL 9
REMARK VINA RESULT:      -6.0      7.818     10.258
REMARK  Name = 
REMARK  13 active torsions:
REMARK  status: ('A' for Active; 'I' for Inactive)
REMARK    1  A    between atoms: CE_1  and  SD_2
REMARK    2  A    between atoms: SD_2  and  CG_3
REMARK    3  A    between atoms: CG_3  and  CB_4
REMARK    4  A    between atoms: CB_4  and  CA_5
REMARK    5  A    between atoms: CA_5  and  N_6
REMARK    6  A    between atoms: CA_5  and  C_32
REMARK    7  A    between atoms: C_7  and  C_9
REMARK    8  A    between atoms: C_12  and  C_13
REMARK    9  A    between atoms: C_13  and  C_14
REMARK   10  A    between atoms: C_16  and  C_17
REMARK   11  A    between atoms: C_24  and  C_25
REMARK   12  A    between atoms: C_30  and  C_31
REMARK   13  A    between atoms: C_32  and  OXT_34
REMARK                            x       y       z     vdW  Elec       q    Type
REMARK                         _______ _______ _______ _____ _____    ______ ____
ROOT
ATOM      1  C   UNK A   0      -0.015  12.624  19.050  0.00  0.00    +0.000 A 
ATOM      2  C   UNK A   0       1.220  12.848  18.393  0.00  0.00    +0.000 A 
ATOM      3  C   UNK A   0       2.043  13.928  18.724  0.00  0.00    +0.000 A 
ATOM      4  C   UNK A   0       1.644  14.813  19.718  0.00  0.00    +0.000 A 
ATOM      5  C   UNK A   0       0.443  14.560  20.406  0.00  0.00    +0.000 A 
ATOM      6  C   UNK A   0      -0.417  13.469  20.118  0.00  0.00    +0.000 A 
ENDROOT
BRANCH   6   7
ATOM      7  C   UNK A   0      -1.585  13.213  21.025  0.00  0.00    +0.000 A 
ATOM      8  C   UNK A   0      -2.770  13.962  20.830  0.00  0.00    +0.000 A 
ATOM      9  C   UNK A   0      -3.889  13.839  21.657  0.00  0.00    +0.000 A 
ATOM     10  C   UNK A   0      -3.900  12.890  22.660  0.00  0.00    +0.000 A 
ATOM     11  C   UNK A   0      -2.788  12.077  22.838  0.00  0.00    +0.000 A 
ATOM     12  C   UNK A   0      -1.619  12.239  22.061  0.00  0.00    +0.000 A 
ATOM     13  C   UNK A   0      -0.480  11.308  22.395  0.00  0.00    +0.000 C 
ENDBRANCH   6   7
BRANCH   1  15
ATOM     14  N   MET A   1      -1.777  11.602  17.642  0.00  0.00    +0.000 N 
ATOM     15  C   UNK A   0      -0.762  11.419  18.554  0.00  0.00    +0.000 C 
ATOM     16  O   UNK A   0      -0.444  10.303  18.955  0.00  0.00    +0.000 OA
ATOM     17  H   MET A   1      -2.033  12.534  17.328  0.00  0.00    +0.000 HD
BRANCH  14  18
ATOM     18  CA  MET A   1      -2.626  10.491  17.198  0.00  0.00    +0.000 C 
BRANCH  18  19
ATOM     19  C   MET A   1      -2.829  10.617  15.682  0.00  0.00    +0.000 C 
ATOM     20  O   MET A   1      -2.492   9.770  14.869  0.00  0.00    +0.000 OA
BRANCH  19  21
ATOM     21  OXT MET A   1      -3.381  11.799  15.313  0.00  0.00    +0.000 OA
ATOM     22  HXT MET A   1      -4.323  11.731  15.050  0.00  0.00    +0.000 HD
ENDBRANCH  19  21
ENDBRANCH  18  19
BRANCH  18  23
ATOM     23  CB  MET A   1      -3.991  10.489  17.915  0.00  0.00    +0.000 C 
BRANCH  23  24
ATOM     24  CG  MET A   1      -4.449  11.832  18.498  0.00  0.00    +0.000 C 
BRANCH  24  26
ATOM     25  CE  MET A   1      -6.381  13.791  18.846  0.00  0.00    +0.000 C 
ATOM     26  SD  MET A   1      -6.084  12.310  17.854  0.00  0.00    +0.000 S 
ENDBRANCH  24  26
ENDBRANCH  23  24
ENDBRANCH  18  23
ENDBRANCH  14  18
ENDBRANCH   1  15
BRANCH   4  27
ATOM     27  C   UNK A   0       2.465  15.989  20.090  0.00  0.00    +0.000 C 
ATOM     28  C   UNK A   0       2.181  17.236  19.653  0.00  0.00    +0.000 C 
BRANCH  28  29
ATOM     29  C   UNK A   0       1.027  17.594  18.821  0.00  0.00    +0.000 A 
ATOM     30  C   UNK A   0       1.175  17.776  17.446  0.00  0.00    +0.000 A 
ATOM     31  C   UNK A   0       0.090  18.211  16.688  0.00  0.00    +0.000 A 
ATOM     32  C   UNK A   0      -1.115  18.436  17.333  0.00  0.00    +0.000 A 
ATOM     33  N   UNK A   0      -1.310  18.229  18.653  0.00  0.00    +0.000 NA
ATOM     34  C   UNK A   0      -0.238  17.811  19.365  0.00  0.00    +0.000 A 
ENDBRANCH  28  29
BRANCH  27  35
ATOM     35  C   UNK A   0       3.622  15.773  20.904  0.00  0.00    +0.000 C 
ATOM     36  N   UNK A   0       4.579  15.617  21.552  0.00  0.00    +0.000 NA
ENDBRANCH  27  35
ENDBRANCH   4  27
TORSDOF 11
ENDMDL
