MODEL 1
REMARK VINA RESULT:      -8.5      0.000      0.000
REMARK  Name = 
REMARK  10 active torsions:
REMARK  status: ('A' for Active; 'I' for Inactive)
REMARK    1  A    between atoms: C_1  and  C_2
REMARK    2  A    between atoms: C_2  and  C_3
REMARK    3  A    between atoms: C_3  and  N_4
REMARK    4  A    between atoms: C_12  and  C_13
REMARK    5  A    between atoms: C_13  and  N_14
REMARK    6  A    between atoms: N_17  and  C_18
REMARK    7  A    between atoms: C_18  and  C_19
REMARK    8  A    between atoms: C_19  and  O_20
REMARK    9  A    between atoms: O_20  and  C_21
REMARK   10  A    between atoms: C_27  and  C_28
REMARK                            x       y       z     vdW  Elec       q    Type
REMARK                         _______ _______ _______ _____ _____    ______ ____
ROOT
ATOM      1  N   UNL     1       0.088   8.621  20.932  0.00  0.00    +0.000 NA
ATOM      2  C   UNL     1      -0.634   8.562  22.215  0.00  0.00    +0.000 C 
ATOM      3  C   UNL     1      -0.317   9.705  23.204  0.00  0.00    +0.000 C 
ATOM      4  N   UNL     1      -0.290  11.080  22.665  0.00  0.00    +0.000 NA
ATOM      5  C   UNL     1       0.244  11.147  21.302  0.00  0.00    +0.000 C 
ATOM      6  C   UNL     1      -0.146   9.974  20.372  0.00  0.00    +0.000 C 
ENDROOT
BRANCH   1   7
ATOM      7  C   UNL     1       1.536   8.353  21.070  0.00  0.00    +0.000 C 
BRANCH   7  16
ATOM      8  N   UNL     1       3.015   3.769  19.494  0.00  0.00    +0.000 N 
ATOM      9  C   UNL     1       3.456   2.961  18.448  0.00  0.00    +0.000 C 
ATOM     10  O   UNL     1       3.748   1.771  18.574  0.00  0.00    +0.000 OA
ATOM     11  C   UNL     1       3.465   3.630  17.081  0.00  0.00    +0.000 C 
ATOM     12  O   UNL     1       3.743   5.014  17.014  0.00  0.00    +0.000 OA
ATOM     13  C   UNL     1       3.187   5.723  18.042  0.00  0.00    +0.000 A 
ATOM     14  C   UNL     1       3.077   7.095  17.819  0.00  0.00    +0.000 A 
ATOM     15  C   UNL     1       2.565   7.928  18.812  0.00  0.00    +0.000 A 
ATOM     16  C   UNL     1       2.160   7.405  20.050  0.00  0.00    +0.000 A 
ATOM     17  C   UNL     1       2.269   6.017  20.254  0.00  0.00    +0.000 A 
ATOM     18  C   UNL     1       2.804   5.162  19.269  0.00  0.00    +0.000 A 
BRANCH   8  19
ATOM     19  C   UNL     1       2.918   3.185  20.829  0.00  0.00    +0.000 C 
BRANCH  19  21
ATOM     20  C   UNL     1       0.479   2.798  20.131  0.00  0.00    +0.000 C 
ATOM     21  C   UNL     1       1.501   2.795  21.258  0.00  0.00    +0.000 C 
ENDBRANCH  19  21
ENDBRANCH   8  19
ENDBRANCH   7  16
ENDBRANCH   1   7
BRANCH   4  22
ATOM     22  C   UNL     1      -1.515  11.879  22.881  0.00  0.00    +0.000 C 
BRANCH  22  23
ATOM     23  C   UNL     1      -1.657  12.847  21.703  0.00  0.00    +0.000 C 
BRANCH  23  24
ATOM     24  O   UNL     1      -2.904  13.475  21.496  0.00  0.00    +0.000 OA
BRANCH  24  25
ATOM     25  C   UNL     1      -3.735  12.814  20.591  0.00  0.00    +0.000 A 
ATOM     26  C   UNL     1      -5.049  12.769  21.080  0.00  0.00    +0.000 A 
ATOM     27  C   UNL     1      -6.044  12.145  20.349  0.00  0.00    +0.000 A 
ATOM     28  C   UNL     1      -5.735  11.564  19.119  0.00  0.00    +0.000 A 
ATOM     29  C   UNL     1      -4.453  11.591  18.584  0.00  0.00    +0.000 A 
ATOM     30  N   UNL     1      -4.299  10.990  17.378  0.00  0.00    +0.000 NA
ATOM     31  C   UNL     1      -3.084  10.986  16.790  0.00  0.00    +0.000 A 
ATOM     32  C   UNL     1      -2.919  10.303  15.468  0.00  0.00    +0.000 C 
ATOM     33  C   UNL     1      -1.994  11.585  17.367  0.00  0.00    +0.000 A 
ATOM     34  C   UNL     1      -2.159  12.174  18.608  0.00  0.00    +0.000 A 
ATOM     35  C   UNL     1      -3.413  12.223  19.302  0.00  0.00    +0.000 A 
ENDBRANCH  24  25
ENDBRANCH  23  24
ENDBRANCH  22  23
ENDBRANCH   4  22
TORSDOF 8
ENDMDL
MODEL 2
REMARK VINA RESULT:      -8.4      2.992      9.841
REMARK  Name = 
REMARK  10 active torsions:
REMARK  status: ('A' for Active; 'I' for Inactive)
REMARK    1  A    between atoms: C_1  and  C_2
REMARK    2  A    between atoms: C_2  and  C_3
REMARK    3  A    between atoms: C_3  and  N_4
REMARK    4  A    between atoms: C_12  and  C_13
REMARK    5  A    between atoms: C_13  and  N_14
REMARK    6  A    between atoms: N_17  and  C_18
REMARK    7  A    between atoms: C_18  and  C_19
REMARK    8  A    between atoms: C_19  and  O_20
REMARK    9  A    between atoms: O_20  and  C_21
REMARK   10  A    between atoms: C_27  and  C_28
REMARK                            x       y       z     vdW  Elec       q    Type
REMARK                         _______ _______ _______ _____ _____    ______ ____
ROOT
ATOM      1  N   UNL     1       2.624   7.121  18.389  0.00  0.00    +0.000 NA
ATOM      2  C   UNL     1       2.880   6.718  19.783  0.00  0.00    +0.000 C 
ATOM      3  C   UNL     1       1.941   5.626  20.339  0.00  0.00    +0.000 C 
ATOM      4  N   UNL     1       1.683   4.452  19.479  0.00  0.00    +0.000 NA
ATOM      5  C   UNL     1       1.619   4.792  18.055  0.00  0.00    +0.000 C 
ATOM      6  C   UNL     1       2.616   5.877  17.580  0.00  0.00    +0.000 C 
ENDROOT
BRANCH   1   7
ATOM      7  C   UNL     1       1.357   7.863  18.224  0.00  0.00    +0.000 C 
BRANCH   7  16
ATOM      8  N   UNL     1      -0.025  11.830  21.057  0.00  0.00    +0.000 N 
ATOM      9  C   UNL     1       0.173  13.165  21.403  0.00  0.00    +0.000 C 
ATOM     10  O   UNL     1      -0.513  13.772  22.227  0.00  0.00    +0.000 OA
ATOM     11  C   UNL     1       1.382  13.824  20.755  0.00  0.00    +0.000 C 
ATOM     12  O   UNL     1       1.751  13.413  19.454  0.00  0.00    +0.000 OA
ATOM     13  C   UNL     1       1.601  12.069  19.254  0.00  0.00    +0.000 A 
ATOM     14  C   UNL     1       2.312  11.553  18.170  0.00  0.00    +0.000 A 
ATOM     15  C   UNL     1       2.204  10.203  17.841  0.00  0.00    +0.000 A 
ATOM     16  C   UNL     1       1.377   9.346  18.583  0.00  0.00    +0.000 A 
ATOM     17  C   UNL     1       0.675   9.882  19.679  0.00  0.00    +0.000 A 
ATOM     18  C   UNL     1       0.755  11.248  20.014  0.00  0.00    +0.000 A 
BRANCH   8  19
ATOM     19  C   UNL     1      -1.129  11.107  21.683  0.00  0.00    +0.000 C 
BRANCH  19  21
ATOM     20  C   UNL     1       0.011   9.431  23.258  0.00  0.00    +0.000 C 
ATOM     21  C   UNL     1      -0.870  10.665  23.126  0.00  0.00    +0.000 C 
ENDBRANCH  19  21
ENDBRANCH   8  19
ENDBRANCH   7  16
ENDBRANCH   1   7
BRANCH   4  22
ATOM     22  C   UNL     1       2.480   3.246  19.785  0.00  0.00    +0.000 C 
BRANCH  22  23
ATOM     23  C   UNL     1       3.960   3.619  19.660  0.00  0.00    +0.000 C 
BRANCH  23  24
ATOM     24  O   UNL     1       4.668   3.186  18.517  0.00  0.00    +0.000 OA
BRANCH  24  25
ATOM     25  C   UNL     1       5.583   4.118  18.024  0.00  0.00    +0.000 A 
ATOM     26  C   UNL     1       6.051   4.936  19.064  0.00  0.00    +0.000 A 
ATOM     27  C   UNL     1       6.960   5.945  18.800  0.00  0.00    +0.000 A 
ATOM     28  C   UNL     1       7.415   6.141  17.496  0.00  0.00    +0.000 A 
ATOM     29  C   UNL     1       6.992   5.352  16.433  0.00  0.00    +0.000 A 
ATOM     30  N   UNL     1       7.519   5.655  15.222  0.00  0.00    +0.000 NA
ATOM     31  C   UNL     1       7.164   4.923  14.144  0.00  0.00    +0.000 A 
ATOM     32  C   UNL     1       7.736   5.277  12.806  0.00  0.00    +0.000 C 
ATOM     33  C   UNL     1       6.293   3.869  14.234  0.00  0.00    +0.000 A 
ATOM     34  C   UNL     1       5.744   3.585  15.472  0.00  0.00    +0.000 A 
ATOM     35  C   UNL     1       6.066   4.310  16.667  0.00  0.00    +0.000 A 
ENDBRANCH  24  25
ENDBRANCH  23  24
ENDBRANCH  22  23
ENDBRANCH   4  22
TORSDOF 8
ENDMDL
MODEL 3
REMARK VINA RESULT:      -8.1      1.347      2.529
REMARK  Name = 
REMARK  10 active torsions:
REMARK  status: ('A' for Active; 'I' for Inactive)
REMARK    1  A    between atoms: C_1  and  C_2
REMARK    2  A    between atoms: C_2  and  C_3
REMARK    3  A    between atoms: C_3  and  N_4
REMARK    4  A    between atoms: C_12  and  C_13
REMARK    5  A    between atoms: C_13  and  N_14
REMARK    6  A    between atoms: N_17  and  C_18
REMARK    7  A    between atoms: C_18  and  C_19
REMARK    8  A    between atoms: C_19  and  O_20
REMARK    9  A    between atoms: O_20  and  C_21
REMARK   10  A    between atoms: C_27  and  C_28
REMARK                            x       y       z     vdW  Elec       q    Type
REMARK                         _______ _______ _______ _____ _____    ______ ____
ROOT
ATOM      1  N   UNL     1       0.530   9.439  20.067  0.00  0.00    +0.000 NA
ATOM      2  C   UNL     1      -0.648   9.532  20.948  0.00  0.00    +0.000 C 
ATOM      3  C   UNL     1      -0.483  10.454  22.176  0.00  0.00    +0.000 C 
ATOM      4  N   UNL     1       0.126  11.781  21.950  0.00  0.00    +0.000 NA
ATOM      5  C   UNL     1       1.175  11.760  20.926  0.00  0.00    +0.000 C 
ATOM      6  C   UNL     1       0.913  10.829  19.719  0.00  0.00    +0.000 C 
ENDROOT
BRANCH   1   7
ATOM      7  C   UNL     1       1.663   8.721  20.688  0.00  0.00    +0.000 C 
BRANCH   7  16
ATOM      8  N   UNL     1       4.017   5.292  17.794  0.00  0.00    +0.000 N 
ATOM      9  C   UNL     1       4.291   3.951  17.532  0.00  0.00    +0.000 C 
ATOM     10  O   UNL     1       4.978   3.561  16.586  0.00  0.00    +0.000 OA
ATOM     11  C   UNL     1       3.757   2.972  18.566  0.00  0.00    +0.000 C 
ATOM     12  O   UNL     1       2.544   3.286  19.222  0.00  0.00    +0.000 OA
ATOM     13  C   UNL     1       2.420   4.616  19.512  0.00  0.00    +0.000 A 
ATOM     14  C   UNL     1       1.474   4.920  20.490  0.00  0.00    +0.000 A 
ATOM     15  C   UNL     1       1.228   6.246  20.840  0.00  0.00    +0.000 A 
ATOM     16  C   UNL     1       1.918   7.295  20.212  0.00  0.00    +0.000 A 
ATOM     17  C   UNL     1       2.876   6.969  19.233  0.00  0.00    +0.000 A 
ATOM     18  C   UNL     1       3.123   5.635  18.852  0.00  0.00    +0.000 A 
BRANCH   8  19
ATOM     19  C   UNL     1       4.546   6.301  16.881  0.00  0.00    +0.000 C 
BRANCH  19  21
ATOM     20  C   UNL     1       7.113   6.320  16.832  0.00  0.00    +0.000 C 
ATOM     21  C   UNL     1       5.840   6.974  17.349  0.00  0.00    +0.000 C 
ENDBRANCH  19  21
ENDBRANCH   8  19
ENDBRANCH   7  16
ENDBRANCH   1   7
BRANCH   4  22
ATOM     22  C   UNL     1      -0.821  12.909  21.831  0.00  0.00    +0.000 C 
BRANCH  22  23
ATOM     23  C   UNL     1      -2.231  12.325  21.695  0.00  0.00    +0.000 C 
BRANCH  23  24
ATOM     24  O   UNL     1      -3.255  13.154  21.189  0.00  0.00    +0.000 OA
BRANCH  24  25
ATOM     25  C   UNL     1      -4.043  12.554  20.205  0.00  0.00    +0.000 A 
ATOM     26  C   UNL     1      -5.392  12.560  20.592  0.00  0.00    +0.000 A 
ATOM     27  C   UNL     1      -6.354  12.000  19.771  0.00  0.00    +0.000 A 
ATOM     28  C   UNL     1      -5.978  11.435  18.553  0.00  0.00    +0.000 A 
ATOM     29  C   UNL     1      -4.659  11.413  18.117  0.00  0.00    +0.000 A 
ATOM     30  N   UNL     1      -4.440  10.834  16.912  0.00  0.00    +0.000 NA
ATOM     31  C   UNL     1      -3.184  10.787  16.417  0.00  0.00    +0.000 A 
ATOM     32  C   UNL     1      -2.949  10.127  15.094  0.00  0.00    +0.000 C 
ATOM     33  C   UNL     1      -2.116  11.320  17.091  0.00  0.00    +0.000 A 
ATOM     34  C   UNL     1      -2.349  11.887  18.332  0.00  0.00    +0.000 A 
ATOM     35  C   UNL     1      -3.650  11.979  18.929  0.00  0.00    +0.000 A 
ENDBRANCH  24  25
ENDBRANCH  23  24
ENDBRANCH  22  23
ENDBRANCH   4  22
TORSDOF 8
ENDMDL
MODEL 4
REMARK VINA RESULT:      -8.1      1.837      3.269
REMARK  Name = 
REMARK  10 active torsions:
REMARK  status: ('A' for Active; 'I' for Inactive)
REMARK    1  A    between atoms: C_1  and  C_2
REMARK    2  A    between atoms: C_2  and  C_3
REMARK    3  A    between atoms: C_3  and  N_4
REMARK    4  A    between atoms: C_12  and  C_13
REMARK    5  A    between atoms: C_13  and  N_14
REMARK    6  A    between atoms: N_17  and  C_18
REMARK    7  A    between atoms: C_18  and  C_19
REMARK    8  A    between atoms: C_19  and  O_20
REMARK    9  A    between atoms: O_20  and  C_21
REMARK   10  A    between atoms: C_27  and  C_28
REMARK                            x       y       z     vdW  Elec       q    Type
REMARK                         _______ _______ _______ _____ _____    ______ ____
ROOT
ATOM      1  N   UNL     1       0.167   8.538  20.676  0.00  0.00    +0.000 NA
ATOM      2  C   UNL     1      -0.642   8.896  21.855  0.00  0.00    +0.000 C 
ATOM      3  C   UNL     1      -0.090  10.059  22.706  0.00  0.00    +0.000 C 
ATOM      4  N   UNL     1       0.375  11.264  21.988  0.00  0.00    +0.000 NA
ATOM      5  C   UNL     1       1.014  10.952  20.706  0.00  0.00    +0.000 C 
ATOM      6  C   UNL     1       0.378   9.789  19.907  0.00  0.00    +0.000 C 
ENDROOT
BRANCH   1   7
ATOM      7  C   UNL     1       1.460   7.914  21.029  0.00  0.00    +0.000 C 
BRANCH   7  16
ATOM      8  N   UNL     1       4.116   5.138  17.725  0.00  0.00    +0.000 N 
ATOM      9  C   UNL     1       4.466   3.875  17.250  0.00  0.00    +0.000 C 
ATOM     10  O   UNL     1       5.217   3.684  16.293  0.00  0.00    +0.000 OA
ATOM     11  C   UNL     1       3.926   2.710  18.066  0.00  0.00    +0.000 C 
ATOM     12  O   UNL     1       2.668   2.858  18.695  0.00  0.00    +0.000 OA
ATOM     13  C   UNL     1       2.468   4.111  19.204  0.00  0.00    +0.000 A 
ATOM     14  C   UNL     1       1.459   4.202  20.163  0.00  0.00    +0.000 A 
ATOM     15  C   UNL     1       1.134   5.437  20.722  0.00  0.00    +0.000 A 
ATOM     16  C   UNL     1       1.805   6.604  20.328  0.00  0.00    +0.000 A 
ATOM     17  C   UNL     1       2.826   6.492  19.365  0.00  0.00    +0.000 A 
ATOM     18  C   UNL     1       3.155   5.256  18.773  0.00  0.00    +0.000 A 
BRANCH   8  19
ATOM     19  C   UNL     1       4.644   6.310  17.034  0.00  0.00    +0.000 C 
BRANCH  19  21
ATOM     20  C   UNL     1       7.190   6.463  16.743  0.00  0.00    +0.000 C 
ATOM     21  C   UNL     1       5.975   6.834  17.582  0.00  0.00    +0.000 C 
ENDBRANCH  19  21
ENDBRANCH   8  19
ENDBRANCH   7  16
ENDBRANCH   1   7
BRANCH   4  22
ATOM     22  C   UNL     1      -0.581  12.390  21.936  0.00  0.00    +0.000 C 
BRANCH  22  23
ATOM     23  C   UNL     1      -1.726  12.076  22.904  0.00  0.00    +0.000 C 
BRANCH  23  24
ATOM     24  O   UNL     1      -2.574  13.131  23.305  0.00  0.00    +0.000 OA
BRANCH  24  25
ATOM     25  C   UNL     1      -3.924  12.919  23.024  0.00  0.00    +0.000 A 
ATOM     26  C   UNL     1      -4.675  12.925  24.209  0.00  0.00    +0.000 A 
ATOM     27  C   UNL     1      -6.042  12.718  24.169  0.00  0.00    +0.000 A 
ATOM     28  C   UNL     1      -6.673  12.508  22.942  0.00  0.00    +0.000 A 
ATOM     29  C   UNL     1      -5.978  12.504  21.739  0.00  0.00    +0.000 A 
ATOM     30  N   UNL     1      -6.720  12.291  20.625  0.00  0.00    +0.000 NA
ATOM     31  C   UNL     1      -6.116  12.285  19.417  0.00  0.00    +0.000 A 
ATOM     32  C   UNL     1      -6.940  12.029  18.194  0.00  0.00    +0.000 C 
ATOM     33  C   UNL     1      -4.770  12.501  19.276  0.00  0.00    +0.000 A 
ATOM     34  C   UNL     1      -4.019  12.693  20.423  0.00  0.00    +0.000 A 
ATOM     35  C   UNL     1      -4.580  12.716  21.742  0.00  0.00    +0.000 A 
ENDBRANCH  24  25
ENDBRANCH  23  24
ENDBRANCH  22  23
ENDBRANCH   4  22
TORSDOF 8
ENDMDL
MODEL 5
REMARK VINA RESULT:      -8.0      2.909     10.352
REMARK  Name = 
REMARK  10 active torsions:
REMARK  status: ('A' for Active; 'I' for Inactive)
REMARK    1  A    between atoms: C_1  and  C_2
REMARK    2  A    between atoms: C_2  and  C_3
REMARK    3  A    between atoms: C_3  and  N_4
REMARK    4  A    between atoms: C_12  and  C_13
REMARK    5  A    between atoms: C_13  and  N_14
REMARK    6  A    between atoms: N_17  and  C_18
REMARK    7  A    between atoms: C_18  and  C_19
REMARK    8  A    between atoms: C_19  and  O_20
REMARK    9  A    between atoms: O_20  and  C_21
REMARK   10  A    between atoms: C_27  and  C_28
REMARK                            x       y       z     vdW  Elec       q    Type
REMARK                         _______ _______ _______ _____ _____    ______ ____
ROOT
ATOM      1  N   UNL     1       2.348   7.413  19.948  0.00  0.00    +0.000 NA
ATOM      2  C   UNL     1       2.023   6.339  20.903  0.00  0.00    +0.000 C 
ATOM      3  C   UNL     1       1.180   5.179  20.332  0.00  0.00    +0.000 C 
ATOM      4  N   UNL     1       1.584   4.628  19.021  0.00  0.00    +0.000 NA
ATOM      5  C   UNL     1       2.102   5.651  18.109  0.00  0.00    +0.000 C 
ATOM      6  C   UNL     1       2.960   6.760  18.764  0.00  0.00    +0.000 C 
ENDROOT
BRANCH   1   7
ATOM      7  C   UNL     1       1.170   8.215  19.555  0.00  0.00    +0.000 C 
BRANCH   7  16
ATOM      8  N   UNL     1       0.324  12.903  21.281  0.00  0.00    +0.000 N 
ATOM      9  C   UNL     1      -0.325  13.729  22.196  0.00  0.00    +0.000 C 
ATOM     10  O   UNL     1      -0.177  14.951  22.246  0.00  0.00    +0.000 OA
ATOM     11  C   UNL     1      -1.330  13.026  23.096  0.00  0.00    +0.000 C 
ATOM     12  O   UNL     1      -1.068  11.690  23.477  0.00  0.00    +0.000 OA
ATOM     13  C   UNL     1      -0.513  10.945  22.473  0.00  0.00    +0.000 A 
ATOM     14  C   UNL     1      -0.609   9.564  22.643  0.00  0.00    +0.000 A 
ATOM     15  C   UNL     1      -0.043   8.702  21.706  0.00  0.00    +0.000 A 
ATOM     16  C   UNL     1       0.637   9.204  20.586  0.00  0.00    +0.000 A 
ATOM     17  C   UNL     1       0.716  10.601  20.426  0.00  0.00    +0.000 A 
ATOM     18  C   UNL     1       0.168  11.488  21.373  0.00  0.00    +0.000 A 
BRANCH   8  19
ATOM     19  C   UNL     1       1.260  13.510  20.339  0.00  0.00    +0.000 C 
BRANCH  19  21
ATOM     20  C   UNL     1      -0.104  13.482  18.165  0.00  0.00    +0.000 C 
ATOM     21  C   UNL     1       0.606  14.322  19.217  0.00  0.00    +0.000 C 
ENDBRANCH  19  21
ENDBRANCH   8  19
ENDBRANCH   7  16
ENDBRANCH   1   7
BRANCH   4  22
ATOM     22  C   UNL     1       2.384   3.387  19.067  0.00  0.00    +0.000 C 
BRANCH  22  23
ATOM     23  C   UNL     1       3.120   3.255  17.730  0.00  0.00    +0.000 C 
BRANCH  23  24
ATOM     24  O   UNL     1       4.451   2.782  17.739  0.00  0.00    +0.000 OA
BRANCH  24  25
ATOM     25  C   UNL     1       5.406   3.758  17.454  0.00  0.00    +0.000 A 
ATOM     26  C   UNL     1       5.795   4.417  18.631  0.00  0.00    +0.000 A 
ATOM     27  C   UNL     1       6.727   5.437  18.583  0.00  0.00    +0.000 A 
ATOM     28  C   UNL     1       7.285   5.806  17.359  0.00  0.00    +0.000 A 
ATOM     29  C   UNL     1       6.944   5.179  16.166  0.00  0.00    +0.000 A 
ATOM     30  N   UNL     1       7.567   5.638  15.054  0.00  0.00    +0.000 NA
ATOM     31  C   UNL     1       7.296   5.070  13.859  0.00  0.00    +0.000 A 
ATOM     32  C   UNL     1       7.974   5.596  12.633  0.00  0.00    +0.000 C 
ATOM     33  C   UNL     1       6.415   4.027  13.733  0.00  0.00    +0.000 A 
ATOM     34  C   UNL     1       5.767   3.583  14.873  0.00  0.00    +0.000 A 
ATOM     35  C   UNL     1       5.997   4.130  16.178  0.00  0.00    +0.000 A 
ENDBRANCH  24  25
ENDBRANCH  23  24
ENDBRANCH  22  23
ENDBRANCH   4  22
TORSDOF 8
ENDMDL
MODEL 6
REMARK VINA RESULT:      -8.0      2.854      9.924
REMARK  Name = 
REMARK  10 active torsions:
REMARK  status: ('A' for Active; 'I' for Inactive)
REMARK    1  A    between atoms: C_1  and  C_2
REMARK    2  A    between atoms: C_2  and  C_3
REMARK    3  A    between atoms: C_3  and  N_4
REMARK    4  A    between atoms: C_12  and  C_13
REMARK    5  A    between atoms: C_13  and  N_14
REMARK    6  A    between atoms: N_17  and  C_18
REMARK    7  A    between atoms: C_18  and  C_19
REMARK    8  A    between atoms: C_19  and  O_20
REMARK    9  A    between atoms: O_20  and  C_21
REMARK   10  A    between atoms: C_27  and  C_28
REMARK                            x       y       z     vdW  Elec       q    Type
REMARK                         _______ _______ _______ _____ _____    ______ ____
ROOT
ATOM      1  N   UNL     1       2.067   5.911  20.509  0.00  0.00    +0.000 NA
ATOM      2  C   UNL     1       2.118   4.551  21.074  0.00  0.00    +0.000 C 
ATOM      3  C   UNL     1       1.234   3.506  20.360  0.00  0.00    +0.000 C 
ATOM      4  N   UNL     1       1.278   3.476  18.883  0.00  0.00    +0.000 NA
ATOM      5  C   UNL     1       1.428   4.809  18.291  0.00  0.00    +0.000 C 
ATOM      6  C   UNL     1       2.354   5.782  19.060  0.00  0.00    +0.000 C 
ENDROOT
BRANCH   1   7
ATOM      7  C   UNL     1       0.769   6.582  20.730  0.00  0.00    +0.000 C 
BRANCH   7  16
ATOM      8  N   UNL     1      -0.447  11.277  19.262  0.00  0.00    +0.000 N 
ATOM      9  C   UNL     1      -0.497  12.637  19.562  0.00  0.00    +0.000 C 
ATOM     10  O   UNL     1      -0.899  13.500  18.781  0.00  0.00    +0.000 OA
ATOM     11  C   UNL     1      -0.105  12.994  20.988  0.00  0.00    +0.000 C 
ATOM     12  O   UNL     1       0.880  12.208  21.629  0.00  0.00    +0.000 OA
ATOM     13  C   UNL     1       0.780  10.877  21.333  0.00  0.00    +0.000 A 
ATOM     14  C   UNL     1       1.435  10.025  22.222  0.00  0.00    +0.000 A 
ATOM     15  C   UNL     1       1.440   8.650  22.000  0.00  0.00    +0.000 A 
ATOM     16  C   UNL     1       0.796   8.100  20.881  0.00  0.00    +0.000 A 
ATOM     17  C   UNL     1       0.132   8.973  19.999  0.00  0.00    +0.000 A 
ATOM     18  C   UNL     1       0.134  10.369  20.196  0.00  0.00    +0.000 A 
BRANCH   8  19
ATOM     19  C   UNL     1      -0.866  10.844  17.932  0.00  0.00    +0.000 C 
BRANCH  19  21
ATOM     20  C   UNL     1      -2.744   9.719  16.591  0.00  0.00    +0.000 C 
ATOM     21  C   UNL     1      -2.369  10.585  17.785  0.00  0.00    +0.000 C 
ENDBRANCH  19  21
ENDBRANCH   8  19
ENDBRANCH   7  16
ENDBRANCH   1   7
BRANCH   4  22
ATOM     22  C   UNL     1       2.148   2.441  18.287  0.00  0.00    +0.000 C 
BRANCH  22  23
ATOM     23  C   UNL     1       3.329   3.151  17.618  0.00  0.00    +0.000 C 
BRANCH  23  24
ATOM     24  O   UNL     1       4.591   3.098  18.251  0.00  0.00    +0.000 OA
BRANCH  24  25
ATOM     25  C   UNL     1       5.497   4.058  17.801  0.00  0.00    +0.000 A 
ATOM     26  C   UNL     1       5.894   4.887  18.862  0.00  0.00    +0.000 A 
ATOM     27  C   UNL     1       6.782   5.924  18.642  0.00  0.00    +0.000 A 
ATOM     28  C   UNL     1       7.288   6.139  17.359  0.00  0.00    +0.000 A 
ATOM     29  C   UNL     1       6.937   5.342  16.277  0.00  0.00    +0.000 A 
ATOM     30  N   UNL     1       7.507   5.665  15.091  0.00  0.00    +0.000 NA
ATOM     31  C   UNL     1       7.223   4.927  13.996  0.00  0.00    +0.000 A 
ATOM     32  C   UNL     1       7.842   5.303  12.685  0.00  0.00    +0.000 C 
ATOM     33  C   UNL     1       6.382   3.846  14.045  0.00  0.00    +0.000 A 
ATOM     34  C   UNL     1       5.787   3.541  15.257  0.00  0.00    +0.000 A 
ATOM     35  C   UNL     1       6.034   4.271  16.466  0.00  0.00    +0.000 A 
ENDBRANCH  24  25
ENDBRANCH  23  24
ENDBRANCH  22  23
ENDBRANCH   4  22
TORSDOF 8
ENDMDL
MODEL 7
REMARK VINA RESULT:      -7.9      4.028     10.681
REMARK  Name = 
REMARK  10 active torsions:
REMARK  status: ('A' for Active; 'I' for Inactive)
REMARK    1  A    between atoms: C_1  and  C_2
REMARK    2  A    between atoms: C_2  and  C_3
REMARK    3  A    between atoms: C_3  and  N_4
REMARK    4  A    between atoms: C_12  and  C_13
REMARK    5  A    between atoms: C_13  and  N_14
REMARK    6  A    between atoms: N_17  and  C_18
REMARK    7  A    between atoms: C_18  and  C_19
REMARK    8  A    between atoms: C_19  and  O_20
REMARK    9  A    between atoms: O_20  and  C_21
REMARK   10  A    between atoms: C_27  and  C_28
REMARK                            x       y       z     vdW  Elec       q    Type
REMARK                         _______ _______ _______ _____ _____    ______ ____
ROOT
ATOM      1  N   UNL     1       0.527   9.862  19.462  0.00  0.00    +0.000 NA
ATOM      2  C   UNL     1       1.065   9.101  18.320  0.00  0.00    +0.000 C 
ATOM      3  C   UNL     1       2.309   8.241  18.627  0.00  0.00    +0.000 C 
ATOM      4  N   UNL     1       2.279   7.418  19.854  0.00  0.00    +0.000 NA
ATOM      5  C   UNL     1       1.572   8.070  20.960  0.00  0.00    +0.000 C 
ATOM      6  C   UNL     1       0.321   8.890  20.563  0.00  0.00    +0.000 C 
ENDROOT
BRANCH   1   7
ATOM      7  C   UNL     1       1.414  10.963  19.893  0.00  0.00    +0.000 C 
BRANCH   7  16
ATOM      8  N   UNL     1       2.087  15.936  19.191  0.00  0.00    +0.000 N 
ATOM      9  C   UNL     1       1.537  17.169  18.844  0.00  0.00    +0.000 C 
ATOM     10  O   UNL     1       2.166  18.228  18.845  0.00  0.00    +0.000 OA
ATOM     11  C   UNL     1       0.096  17.115  18.359  0.00  0.00    +0.000 C 
ATOM     12  O   UNL     1      -0.762  16.138  18.913  0.00  0.00    +0.000 OA
ATOM     13  C   UNL     1      -0.140  14.939  19.129  0.00  0.00    +0.000 A 
ATOM     14  C   UNL     1      -0.997  13.850  19.280  0.00  0.00    +0.000 A 
ATOM     15  C   UNL     1      -0.481  12.583  19.547  0.00  0.00    +0.000 A 
ATOM     16  C   UNL     1       0.902  12.384  19.677  0.00  0.00    +0.000 A 
ATOM     17  C   UNL     1       1.753  13.492  19.512  0.00  0.00    +0.000 A 
ATOM     18  C   UNL     1       1.248  14.784  19.262  0.00  0.00    +0.000 A 
BRANCH   8  19
ATOM     19  C   UNL     1       3.485  15.893  19.610  0.00  0.00    +0.000 C 
BRANCH  19  21
ATOM     20  C   UNL     1       4.967  14.598  17.962  0.00  0.00    +0.000 C 
ATOM     21  C   UNL     1       4.500  15.956  18.465  0.00  0.00    +0.000 C 
ENDBRANCH  19  21
ENDBRANCH   8  19
ENDBRANCH   7  16
ENDBRANCH   1   7
BRANCH   4  22
ATOM     22  C   UNL     1       1.934   5.994  19.663  0.00  0.00    +0.000 C 
BRANCH  22  23
ATOM     23  C   UNL     1       2.660   5.500  18.408  0.00  0.00    +0.000 C 
BRANCH  23  24
ATOM     24  O   UNL     1       3.610   4.465  18.544  0.00  0.00    +0.000 OA
BRANCH  24  25
ATOM     25  C   UNL     1       4.901   4.817  18.147  0.00  0.00    +0.000 A 
ATOM     26  C   UNL     1       5.657   5.224  19.256  0.00  0.00    +0.000 A 
ATOM     27  C   UNL     1       6.968   5.633  19.094  0.00  0.00    +0.000 A 
ATOM     28  C   UNL     1       7.538   5.634  17.820  0.00  0.00    +0.000 A 
ATOM     29  C   UNL     1       6.837   5.231  16.690  0.00  0.00    +0.000 A 
ATOM     30  N   UNL     1       7.517   5.281  15.519  0.00  0.00    +0.000 NA
ATOM     31  C   UNL     1       6.905   4.893  14.380  0.00  0.00    +0.000 A 
ATOM     32  C   UNL     1       7.657   4.970  13.088  0.00  0.00    +0.000 C 
ATOM     33  C   UNL     1       5.613   4.434  14.368  0.00  0.00    +0.000 A 
ATOM     34  C   UNL     1       4.922   4.410  15.566  0.00  0.00    +0.000 A 
ATOM     35  C   UNL     1       5.496   4.803  16.820  0.00  0.00    +0.000 A 
ENDBRANCH  24  25
ENDBRANCH  23  24
ENDBRANCH  22  23
ENDBRANCH   4  22
TORSDOF 8
ENDMDL
MODEL 8
REMARK VINA RESULT:      -7.9      2.419      4.082
REMARK  Name = 
REMARK  10 active torsions:
REMARK  status: ('A' for Active; 'I' for Inactive)
REMARK    1  A    between atoms: C_1  and  C_2
REMARK    2  A    between atoms: C_2  and  C_3
REMARK    3  A    between atoms: C_3  and  N_4
REMARK    4  A    between atoms: C_12  and  C_13
REMARK    5  A    between atoms: C_13  and  N_14
REMARK    6  A    between atoms: N_17  and  C_18
REMARK    7  A    between atoms: C_18  and  C_19
REMARK    8  A    between atoms: C_19  and  O_20
REMARK    9  A    between atoms: O_20  and  C_21
REMARK   10  A    between atoms: C_27  and  C_28
REMARK                            x       y       z     vdW  Elec       q    Type
REMARK                         _______ _______ _______ _____ _____    ______ ____
ROOT
ATOM      1  N   UNL     1       0.623   9.131  19.033  0.00  0.00    +0.000 NA
ATOM      2  C   UNL     1       0.645   9.371  20.487  0.00  0.00    +0.000 C 
ATOM      3  C   UNL     1       0.962  10.821  20.913  0.00  0.00    +0.000 C 
ATOM      4  N   UNL     1       0.257  11.906  20.201  0.00  0.00    +0.000 NA
ATOM      5  C   UNL     1       0.041  11.610  18.782  0.00  0.00    +0.000 C 
ATOM      6  C   UNL     1      -0.298  10.137  18.449  0.00  0.00    +0.000 C 
ENDROOT
BRANCH   1   7
ATOM      7  C   UNL     1       1.961   9.220  18.411  0.00  0.00    +0.000 C 
BRANCH   7  16
ATOM      8  N   UNL     1       2.348   4.172  18.606  0.00  0.00    +0.000 N 
ATOM      9  C   UNL     1       2.993   3.016  18.171  0.00  0.00    +0.000 C 
ATOM     10  O   UNL     1       2.717   1.883  18.569  0.00  0.00    +0.000 OA
ATOM     11  C   UNL     1       4.023   3.229  17.072  0.00  0.00    +0.000 C 
ATOM     12  O   UNL     1       4.754   4.440  17.065  0.00  0.00    +0.000 OA
ATOM     13  C   UNL     1       4.000   5.523  17.421  0.00  0.00    +0.000 A 
ATOM     14  C   UNL     1       4.530   6.758  17.048  0.00  0.00    +0.000 A 
ATOM     15  C   UNL     1       3.872   7.937  17.394  0.00  0.00    +0.000 A 
ATOM     16  C   UNL     1       2.676   7.904  18.127  0.00  0.00    +0.000 A 
ATOM     17  C   UNL     1       2.150   6.648  18.487  0.00  0.00    +0.000 A 
ATOM     18  C   UNL     1       2.812   5.447  18.164  0.00  0.00    +0.000 A 
BRANCH   8  19
ATOM     19  C   UNL     1       1.302   4.045  19.616  0.00  0.00    +0.000 C 
BRANCH  19  21
ATOM     20  C   UNL     1       1.537   2.692  21.785  0.00  0.00    +0.000 C 
ATOM     21  C   UNL     1       1.807   4.004  21.062  0.00  0.00    +0.000 C 
ENDBRANCH  19  21
ENDBRANCH   8  19
ENDBRANCH   7  16
ENDBRANCH   1   7
BRANCH   4  22
ATOM     22  C   UNL     1      -0.921  12.469  20.893  0.00  0.00    +0.000 C 
BRANCH  22  23
ATOM     23  C   UNL     1      -0.414  13.320  22.062  0.00  0.00    +0.000 C 
BRANCH  23  24
ATOM     24  O   UNL     1      -0.907  13.045  23.356  0.00  0.00    +0.000 OA
BRANCH  24  25
ATOM     25  C   UNL     1      -1.913  13.914  23.782  0.00  0.00    +0.000 A 
ATOM     26  C   UNL     1      -1.364  14.961  24.538  0.00  0.00    +0.000 A 
ATOM     27  C   UNL     1      -2.183  15.937  25.076  0.00  0.00    +0.000 A 
ATOM     28  C   UNL     1      -3.560  15.879  24.858  0.00  0.00    +0.000 A 
ATOM     29  C   UNL     1      -4.153  14.871  24.108  0.00  0.00    +0.000 A 
ATOM     30  N   UNL     1      -5.501  14.943  23.976  0.00  0.00    +0.000 NA
ATOM     31  C   UNL     1      -6.146  14.005  23.251  0.00  0.00    +0.000 A 
ATOM     32  C   UNL     1      -7.636  14.080  23.127  0.00  0.00    +0.000 C 
ATOM     33  C   UNL     1      -5.481  12.982  22.627  0.00  0.00    +0.000 A 
ATOM     34  C   UNL     1      -4.109  12.906  22.788  0.00  0.00    +0.000 A 
ATOM     35  C   UNL     1      -3.346  13.859  23.540  0.00  0.00    +0.000 A 
ENDBRANCH  24  25
ENDBRANCH  23  24
ENDBRANCH  22  23
ENDBRANCH   4  22
TORSDOF 8
ENDMDL
MODEL 9
REMARK VINA RESULT:      -7.9      2.758     10.197
REMARK  Name = 
REMARK  10 active torsions:
REMARK  status: ('A' for Active; 'I' for Inactive)
REMARK    1  A    between atoms: C_1  and  C_2
REMARK    2  A    between atoms: C_2  and  C_3
REMARK    3  A    between atoms: C_3  and  N_4
REMARK    4  A    between atoms: C_12  and  C_13
REMARK    5  A    between atoms: C_13  and  N_14
REMARK    6  A    between atoms: N_17  and  C_18
REMARK    7  A    between atoms: C_18  and  C_19
REMARK    8  A    between atoms: C_19  and  O_20
REMARK    9  A    between atoms: O_20  and  C_21
REMARK   10  A    between atoms: C_27  and  C_28
REMARK                            x       y       z     vdW  Elec       q    Type
REMARK                         _______ _______ _______ _____ _____    ______ ____
ROOT
ATOM      1  N   UNL     1       1.797   6.862  20.681  0.00  0.00    +0.000 NA
ATOM      2  C   UNL     1       1.912   5.432  21.017  0.00  0.00    +0.000 C 
ATOM      3  C   UNL     1       1.474   4.455  19.904  0.00  0.00    +0.000 C 
ATOM      4  N   UNL     1       1.957   4.726  18.535  0.00  0.00    +0.000 NA
ATOM      5  C   UNL     1       2.044   6.158  18.234  0.00  0.00    +0.000 C 
ATOM      6  C   UNL     1       2.518   7.059  19.400  0.00  0.00    +0.000 C 
ENDROOT
BRANCH   1   7
ATOM      7  C   UNL     1       0.395   7.321  20.571  0.00  0.00    +0.000 C 
BRANCH   7  16
ATOM      8  N   UNL     1      -0.956  12.196  20.290  0.00  0.00    +0.000 N 
ATOM      9  C   UNL     1      -1.389  13.345  20.948  0.00  0.00    +0.000 C 
ATOM     10  O   UNL     1      -1.578  14.428  20.392  0.00  0.00    +0.000 OA
ATOM     11  C   UNL     1      -1.718  13.156  22.422  0.00  0.00    +0.000 C 
ATOM     12  O   UNL     1      -0.969  12.211  23.159  0.00  0.00    +0.000 OA
ATOM     13  C   UNL     1      -0.676  11.083  22.444  0.00  0.00    +0.000 A 
ATOM     14  C   UNL     1      -0.311   9.977  23.211  0.00  0.00    +0.000 A 
ATOM     15  C   UNL     1       0.052   8.783  22.591  0.00  0.00    +0.000 A 
ATOM     16  C   UNL     1       0.064   8.674  21.192  0.00  0.00    +0.000 A 
ATOM     17  C   UNL     1      -0.316   9.797  20.434  0.00  0.00    +0.000 A 
ATOM     18  C   UNL     1      -0.665  11.019  21.042  0.00  0.00    +0.000 A 
BRANCH   8  19
ATOM     19  C   UNL     1      -0.678  12.279  18.859  0.00  0.00    +0.000 C 
BRANCH  19  21
ATOM     20  C   UNL     1      -3.139  11.688  18.434  0.00  0.00    +0.000 C 
ATOM     21  C   UNL     1      -1.697  11.567  17.964  0.00  0.00    +0.000 C 
ENDBRANCH  19  21
ENDBRANCH   8  19
ENDBRANCH   7  16
ENDBRANCH   1   7
BRANCH   4  22
ATOM     22  C   UNL     1       3.130   3.938  18.101  0.00  0.00    +0.000 C 
BRANCH  22  23
ATOM     23  C   UNL     1       4.068   3.794  19.303  0.00  0.00    +0.000 C 
BRANCH  23  24
ATOM     24  O   UNL     1       5.415   3.445  19.066  0.00  0.00    +0.000 OA
BRANCH  24  25
ATOM     25  C   UNL     1       6.125   4.382  18.314  0.00  0.00    +0.000 A 
ATOM     26  C   UNL     1       6.652   5.378  19.150  0.00  0.00    +0.000 A 
ATOM     27  C   UNL     1       7.384   6.422  18.614  0.00  0.00    +0.000 A 
ATOM     28  C   UNL     1       7.600   6.479  17.237  0.00  0.00    +0.000 A 
ATOM     29  C   UNL     1       7.110   5.513  16.367  0.00  0.00    +0.000 A 
ATOM     30  N   UNL     1       7.399   5.693  15.055  0.00  0.00    +0.000 NA
ATOM     31  C   UNL     1       6.967   4.789  14.150  0.00  0.00    +0.000 A 
ATOM     32  C   UNL     1       7.274   5.006  12.701  0.00  0.00    +0.000 C 
ATOM     33  C   UNL     1       6.251   3.679  14.516  0.00  0.00    +0.000 A 
ATOM     34  C   UNL     1       5.941   3.519  15.855  0.00  0.00    +0.000 A 
ATOM     35  C   UNL     1       6.361   4.430  16.880  0.00  0.00    +0.000 A 
ENDBRANCH  24  25
ENDBRANCH  23  24
ENDBRANCH  22  23
ENDBRANCH   4  22
TORSDOF 8
ENDMDL
