MODEL 1
REMARK VINA RESULT:      -7.8      0.000      0.000
REMARK  Name = 
REMARK  14 active torsions:
REMARK  status: ('A' for Active; 'I' for Inactive)
REMARK    1  A    between atoms: C_1  and  C_2
REMARK    2  A    between atoms: C_2  and  C_3
REMARK    3  A    between atoms: C_2  and  C_4
REMARK    4  A    between atoms: C_4  and  C_5
REMARK    5  A    between atoms: C_5  and  N_6
REMARK    6  A    between atoms: C_5  and  C_18
REMARK    7  A    between atoms: C_7  and  C_9
REMARK    8  A    between atoms: C_9  and  N_10
REMARK    9  A    between atoms: C_9  and  C_11
REMARK   10  A    between atoms: C_11  and  C_12
REMARK   11  A    between atoms: N_20  and  C_21
REMARK   12  A    between atoms: C_21  and  C_22
REMARK   13  A    between atoms: C_21  and  C_28
REMARK   14  A    between atoms: C_22  and  C_23
REMARK                            x       y       z     vdW  Elec       q    Type
REMARK                         _______ _______ _______ _____ _____    ______ ____
ROOT
ATOM      1  C   UNL     1       3.326   4.951  19.449  0.00  0.00    +0.000 C 
ENDROOT
BRANCH   1   2
ATOM      2  N   UNL     1       3.026   6.335  19.081  0.00  0.00    +0.000 N 
ATOM      3  C   UNL     1       2.127   7.099  19.795  0.00  0.00    +0.000 C 
ATOM      4  O   UNL     1       1.519   6.645  20.761  0.00  0.00    +0.000 OA
ATOM      5  H   UNL     1       3.575   6.747  18.334  0.00  0.00    +0.000 HD
BRANCH   3   6
ATOM      6  C   UNL     1       1.977   8.569  19.348  0.00  0.00    +0.000 C 
BRANCH   6   7
ATOM      7  N   UNL     1       1.703   8.620  17.890  0.00  0.00    +0.000 NA
ATOM      8  H   UNL     1       0.795   8.212  17.682  0.00  0.00    +0.000 HD
ATOM      9  H   UNL     1       2.401   8.054  17.406  0.00  0.00    +0.000 HD
ENDBRANCH   6   7
BRANCH   6  10
ATOM     10  C   UNL     1       0.886   9.333  20.114  0.00  0.00    +0.000 C 
BRANCH  10  11
ATOM     11  C   UNL     1       0.415  10.595  19.430  0.00  0.00    +0.000 A 
ATOM     12  C   UNL     1      -0.855  10.664  18.841  0.00  0.00    +0.000 A 
ATOM     13  C   UNL     1      -1.277  11.836  18.212  0.00  0.00    +0.000 A 
ATOM     14  C   UNL     1      -0.440  12.949  18.171  0.00  0.00    +0.000 A 
ATOM     15  C   UNL     1       0.820  12.894  18.762  0.00  0.00    +0.000 A 
ATOM     16  C   UNL     1       1.246  11.723  19.388  0.00  0.00    +0.000 A 
ENDBRANCH  10  11
ENDBRANCH   6  10
ENDBRANCH   3   6
ENDBRANCH   1   2
BRANCH   1  17
ATOM     17  C   UNL     1       4.803   4.710  19.081  0.00  0.00    +0.000 C 
ATOM     18  O   UNL     1       5.399   3.684  19.403  0.00  0.00    +0.000 OA
ATOM     19  N   UNL     1       5.407   5.746  18.399  0.00  0.00    +0.000 N 
ATOM     20  H   UNL     1       4.811   6.384  17.883  0.00  0.00    +0.000 HD
BRANCH  19  21
ATOM     21  C   UNL     1       6.789   5.635  17.923  0.00  0.00    +0.000 C 
BRANCH  21  22
ATOM     22  C   UNL     1       7.795   6.229  18.930  0.00  0.00    +0.000 C 
ATOM     23  N   UNL     1       8.075   5.471  20.032  0.00  0.00    +0.000 N 
ATOM     24  O   UNL     1       8.359   7.308  18.765  0.00  0.00    +0.000 OA
ATOM     25  H   UNL     1       7.818   4.495  20.071  0.00  0.00    +0.000 HD
ATOM     26  H   UNL     1       8.801   5.802  20.655  0.00  0.00    +0.000 HD
ENDBRANCH  21  22
BRANCH  21  27
ATOM     27  C   UNL     1       6.983   6.276  16.535  0.00  0.00    +0.000 C 
BRANCH  27  28
ATOM     28  C   UNL     1       6.769   5.306  15.415  0.00  0.00    +0.000 A 
ATOM     29  C   UNL     1       5.905   4.243  15.259  0.00  0.00    +0.000 A 
ATOM     30  N   UNL     1       6.043   3.685  14.014  0.00  0.00    +0.000 NA
ATOM     31  C   UNL     1       7.000   4.365  13.427  0.00  0.00    +0.000 A 
ATOM     32  N   UNL     1       7.487   5.346  14.242  0.00  0.00    +0.000 N 
ATOM     33  H   UNL     1       8.222   6.005  14.010  0.00  0.00    +0.000 HD
ENDBRANCH  27  28
ENDBRANCH  21  27
ENDBRANCH  19  21
ENDBRANCH   1  17
BRANCH   1  34
ATOM     34  C   UNL     1       2.394   3.966  18.720  0.00  0.00    +0.000 C 
BRANCH  34  36
ATOM     35  C   UNL     1       0.585   2.162  18.939  0.00  0.00    +0.000 C 
ATOM     36  C   UNL     1       1.204   3.424  19.542  0.00  0.00    +0.000 C 
ATOM     37  C   UNL     1       1.645   3.134  20.980  0.00  0.00    +0.000 C 
ENDBRANCH  34  36
ENDBRANCH   1  34
TORSDOF 12
ENDMDL
MODEL 2
REMARK VINA RESULT:      -7.3      1.227      1.343
REMARK  Name = 
REMARK  14 active torsions:
REMARK  status: ('A' for Active; 'I' for Inactive)
REMARK    1  A    between atoms: C_1  and  C_2
REMARK    2  A    between atoms: C_2  and  C_3
REMARK    3  A    between atoms: C_2  and  C_4
REMARK    4  A    between atoms: C_4  and  C_5
REMARK    5  A    between atoms: C_5  and  N_6
REMARK    6  A    between atoms: C_5  and  C_18
REMARK    7  A    between atoms: C_7  and  C_9
REMARK    8  A    between atoms: C_9  and  N_10
REMARK    9  A    between atoms: C_9  and  C_11
REMARK   10  A    between atoms: C_11  and  C_12
REMARK   11  A    between atoms: N_20  and  C_21
REMARK   12  A    between atoms: C_21  and  C_22
REMARK   13  A    between atoms: C_21  and  C_28
REMARK   14  A    between atoms: C_22  and  C_23
REMARK                            x       y       z     vdW  Elec       q    Type
REMARK                         _______ _______ _______ _____ _____    ______ ____
ROOT
ATOM      1  C   UNL     1       2.748   5.215  20.032  0.00  0.00    +0.000 C 
ENDROOT
BRANCH   1   2
ATOM      2  N   UNL     1       2.582   6.664  19.914  0.00  0.00    +0.000 N 
ATOM      3  C   UNL     1       2.452   7.283  18.689  0.00  0.00    +0.000 C 
ATOM      4  O   UNL     1       2.490   6.649  17.637  0.00  0.00    +0.000 OA
ATOM      5  H   UNL     1       2.472   7.191  20.774  0.00  0.00    +0.000 HD
BRANCH   3   6
ATOM      6  C   UNL     1       2.192   8.806  18.720  0.00  0.00    +0.000 C 
BRANCH   6   7
ATOM      7  N   UNL     1       1.976   9.301  17.339  0.00  0.00    +0.000 NA
ATOM      8  H   UNL     1       2.816   9.748  16.981  0.00  0.00    +0.000 HD
ATOM      9  H   UNL     1       1.246  10.016  17.358  0.00  0.00    +0.000 HD
ENDBRANCH   6   7
BRANCH   6  10
ATOM     10  C   UNL     1       1.007   9.205  19.613  0.00  0.00    +0.000 C 
BRANCH  10  11
ATOM     11  C   UNL     1       0.347  10.506  19.222  0.00  0.00    +0.000 A 
ATOM     12  C   UNL     1      -0.884  10.517  18.552  0.00  0.00    +0.000 A 
ATOM     13  C   UNL     1      -1.483  11.726  18.196  0.00  0.00    +0.000 A 
ATOM     14  C   UNL     1      -0.863  12.934  18.511  0.00  0.00    +0.000 A 
ATOM     15  C   UNL     1       0.355  12.934  19.185  0.00  0.00    +0.000 A 
ATOM     16  C   UNL     1       0.958  11.727  19.540  0.00  0.00    +0.000 A 
ENDBRANCH  10  11
ENDBRANCH   6  10
ENDBRANCH   3   6
ENDBRANCH   1   2
BRANCH   1  17
ATOM     17  C   UNL     1       3.986   4.846  19.192  0.00  0.00    +0.000 C 
ATOM     18  O   UNL     1       3.992   3.886  18.422  0.00  0.00    +0.000 OA
ATOM     19  N   UNL     1       5.088   5.649  19.399  0.00  0.00    +0.000 N 
ATOM     20  H   UNL     1       4.931   6.583  19.763  0.00  0.00    +0.000 HD
BRANCH  19  21
ATOM     21  C   UNL     1       6.318   5.462  18.624  0.00  0.00    +0.000 C 
BRANCH  21  22
ATOM     22  C   UNL     1       7.577   5.788  19.453  0.00  0.00    +0.000 C 
ATOM     23  N   UNL     1       8.354   6.817  19.003  0.00  0.00    +0.000 N 
ATOM     24  O   UNL     1       7.877   5.195  20.487  0.00  0.00    +0.000 OA
ATOM     25  H   UNL     1       8.009   7.465  18.310  0.00  0.00    +0.000 HD
ATOM     26  H   UNL     1       9.132   7.104  19.584  0.00  0.00    +0.000 HD
ENDBRANCH  21  22
BRANCH  21  27
ATOM     27  C   UNL     1       6.314   6.278  17.316  0.00  0.00    +0.000 C 
BRANCH  27  28
ATOM     28  C   UNL     1       6.242   5.415  16.095  0.00  0.00    +0.000 A 
ATOM     29  C   UNL     1       7.184   5.054  15.155  0.00  0.00    +0.000 A 
ATOM     30  N   UNL     1       6.648   4.184  14.241  0.00  0.00    +0.000 NA
ATOM     31  C   UNL     1       5.390   4.040  14.587  0.00  0.00    +0.000 A 
ATOM     32  N   UNL     1       5.088   4.782  15.693  0.00  0.00    +0.000 N 
ATOM     33  H   UNL     1       4.186   4.829  16.152  0.00  0.00    +0.000 HD
ENDBRANCH  27  28
ENDBRANCH  21  27
ENDBRANCH  19  21
ENDBRANCH   1  17
BRANCH   1  34
ATOM     34  C   UNL     1       1.492   4.469  19.545  0.00  0.00    +0.000 C 
BRANCH  34  36
ATOM     35  C   UNL     1       1.463   1.906  19.478  0.00  0.00    +0.000 C 
ATOM     36  C   UNL     1       1.148   3.161  20.292  0.00  0.00    +0.000 C 
ATOM     37  C   UNL     1       1.903   3.101  21.625  0.00  0.00    +0.000 C 
ENDBRANCH  34  36
ENDBRANCH   1  34
TORSDOF 12
ENDMDL
MODEL 3
REMARK VINA RESULT:      -7.3      1.087      1.509
REMARK  Name = 
REMARK  14 active torsions:
REMARK  status: ('A' for Active; 'I' for Inactive)
REMARK    1  A    between atoms: C_1  and  C_2
REMARK    2  A    between atoms: C_2  and  C_3
REMARK    3  A    between atoms: C_2  and  C_4
REMARK    4  A    between atoms: C_4  and  C_5
REMARK    5  A    between atoms: C_5  and  N_6
REMARK    6  A    between atoms: C_5  and  C_18
REMARK    7  A    between atoms: C_7  and  C_9
REMARK    8  A    between atoms: C_9  and  N_10
REMARK    9  A    between atoms: C_9  and  C_11
REMARK   10  A    between atoms: C_11  and  C_12
REMARK   11  A    between atoms: N_20  and  C_21
REMARK   12  A    between atoms: C_21  and  C_22
REMARK   13  A    between atoms: C_21  and  C_28
REMARK   14  A    between atoms: C_22  and  C_23
REMARK                            x       y       z     vdW  Elec       q    Type
REMARK                         _______ _______ _______ _____ _____    ______ ____
ROOT
ATOM      1  C   UNL     1       2.813   5.232  19.099  0.00  0.00    +0.000 C 
ENDROOT
BRANCH   1   2
ATOM      2  N   UNL     1       2.696   6.578  18.538  0.00  0.00    +0.000 N 
ATOM      3  C   UNL     1       2.134   7.616  19.249  0.00  0.00    +0.000 C 
ATOM      4  O   UNL     1       1.687   7.455  20.382  0.00  0.00    +0.000 OA
ATOM      5  H   UNL     1       3.129   6.745  17.635  0.00  0.00    +0.000 HD
BRANCH   3   6
ATOM      6  C   UNL     1       2.160   9.002  18.567  0.00  0.00    +0.000 C 
BRANCH   6   7
ATOM      7  N   UNL     1       2.641   8.859  17.171  0.00  0.00    +0.000 NA
ATOM      8  H   UNL     1       2.225   9.569  16.573  0.00  0.00    +0.000 HD
ATOM      9  H   UNL     1       2.337   7.952  16.811  0.00  0.00    +0.000 HD
ENDBRANCH   6   7
BRANCH   6  10
ATOM     10  C   UNL     1       0.799   9.715  18.581  0.00  0.00    +0.000 C 
BRANCH  10  11
ATOM     11  C   UNL     1       0.889  11.221  18.641  0.00  0.00    +0.000 A 
ATOM     12  C   UNL     1       2.121  11.876  18.510  0.00  0.00    +0.000 A 
ATOM     13  C   UNL     1       2.190  13.268  18.567  0.00  0.00    +0.000 A 
ATOM     14  C   UNL     1       1.031  14.020  18.751  0.00  0.00    +0.000 A 
ATOM     15  C   UNL     1      -0.200  13.380  18.873  0.00  0.00    +0.000 A 
ATOM     16  C   UNL     1      -0.271  11.988  18.819  0.00  0.00    +0.000 A 
ENDBRANCH  10  11
ENDBRANCH   6  10
ENDBRANCH   3   6
ENDBRANCH   1   2
BRANCH   1  17
ATOM     17  C   UNL     1       4.269   4.785  18.866  0.00  0.00    +0.000 C 
ATOM     18  O   UNL     1       4.664   3.658  19.163  0.00  0.00    +0.000 OA
ATOM     19  N   UNL     1       5.096   5.754  18.337  0.00  0.00    +0.000 N 
ATOM     20  H   UNL     1       4.665   6.511  17.816  0.00  0.00    +0.000 HD
BRANCH  19  21
ATOM     21  C   UNL     1       6.490   5.457  17.998  0.00  0.00    +0.000 C 
BRANCH  21  22
ATOM     22  C   UNL     1       7.458   5.871  19.125  0.00  0.00    +0.000 C 
ATOM     23  N   UNL     1       8.281   6.930  18.865  0.00  0.00    +0.000 N 
ATOM     24  O   UNL     1       7.491   5.320  20.224  0.00  0.00    +0.000 OA
ATOM     25  H   UNL     1       8.109   7.542  18.080  0.00  0.00    +0.000 HD
ATOM     26  H   UNL     1       8.855   7.273  19.625  0.00  0.00    +0.000 HD
ENDBRANCH  21  22
BRANCH  21  27
ATOM     27  C   UNL     1       6.918   6.101  16.664  0.00  0.00    +0.000 C 
BRANCH  27  28
ATOM     28  C   UNL     1       6.572   5.258  15.477  0.00  0.00    +0.000 A 
ATOM     29  C   UNL     1       7.269   4.935  14.332  0.00  0.00    +0.000 A 
ATOM     30  N   UNL     1       6.546   4.069  13.553  0.00  0.00    +0.000 NA
ATOM     31  C   UNL     1       5.409   3.892  14.184  0.00  0.00    +0.000 A 
ATOM     32  N   UNL     1       5.366   4.608  15.346  0.00  0.00    +0.000 N 
ATOM     33  H   UNL     1       4.598   4.628  16.008  0.00  0.00    +0.000 HD
ENDBRANCH  27  28
ENDBRANCH  21  27
ENDBRANCH  19  21
ENDBRANCH   1  17
BRANCH   1  34
ATOM     34  C   UNL     1       1.813   4.264  18.440  0.00  0.00    +0.000 C 
BRANCH  34  36
ATOM     35  C   UNL     1       1.616   1.848  19.275  0.00  0.00    +0.000 C 
ATOM     36  C   UNL     1       1.095   3.281  19.390  0.00  0.00    +0.000 C 
ATOM     37  C   UNL     1       1.233   3.753  20.842  0.00  0.00    +0.000 C 
ENDBRANCH  34  36
ENDBRANCH   1  34
TORSDOF 12
ENDMDL
MODEL 4
REMARK VINA RESULT:      -7.3      1.617      1.801
REMARK  Name = 
REMARK  14 active torsions:
REMARK  status: ('A' for Active; 'I' for Inactive)
REMARK    1  A    between atoms: C_1  and  C_2
REMARK    2  A    between atoms: C_2  and  C_3
REMARK    3  A    between atoms: C_2  and  C_4
REMARK    4  A    between atoms: C_4  and  C_5
REMARK    5  A    between atoms: C_5  and  N_6
REMARK    6  A    between atoms: C_5  and  C_18
REMARK    7  A    between atoms: C_7  and  C_9
REMARK    8  A    between atoms: C_9  and  N_10
REMARK    9  A    between atoms: C_9  and  C_11
REMARK   10  A    between atoms: C_11  and  C_12
REMARK   11  A    between atoms: N_20  and  C_21
REMARK   12  A    between atoms: C_21  and  C_22
REMARK   13  A    between atoms: C_21  and  C_28
REMARK   14  A    between atoms: C_22  and  C_23
REMARK                            x       y       z     vdW  Elec       q    Type
REMARK                         _______ _______ _______ _____ _____    ______ ____
ROOT
ATOM      1  C   UNL     1       2.570   5.464  19.099  0.00  0.00    +0.000 C 
ENDROOT
BRANCH   1   2
ATOM      2  N   UNL     1       2.272   6.824  18.648  0.00  0.00    +0.000 N 
ATOM      3  C   UNL     1       1.910   7.820  19.529  0.00  0.00    +0.000 C 
ATOM      4  O   UNL     1       1.801   7.607  20.734  0.00  0.00    +0.000 OA
ATOM      5  H   UNL     1       2.432   7.034  17.668  0.00  0.00    +0.000 HD
BRANCH   3   6
ATOM      6  C   UNL     1       1.714   9.227  18.924  0.00  0.00    +0.000 C 
BRANCH   6   7
ATOM      7  N   UNL     1       2.298   9.267  17.560  0.00  0.00    +0.000 NA
ATOM      8  H   UNL     1       2.536   8.330  17.244  0.00  0.00    +0.000 HD
ATOM      9  H   UNL     1       3.169   9.799  17.593  0.00  0.00    +0.000 HD
ENDBRANCH   6   7
BRANCH   6  10
ATOM     10  C   UNL     1       0.244   9.673  18.878  0.00  0.00    +0.000 C 
BRANCH  10  11
ATOM     11  C   UNL     1      -0.119  10.719  19.905  0.00  0.00    +0.000 A 
ATOM     12  C   UNL     1      -0.150  10.407  21.271  0.00  0.00    +0.000 A 
ATOM     13  C   UNL     1      -0.488  11.383  22.210  0.00  0.00    +0.000 A 
ATOM     14  C   UNL     1      -0.790  12.679  21.795  0.00  0.00    +0.000 A 
ATOM     15  C   UNL     1      -0.752  13.001  20.441  0.00  0.00    +0.000 A 
ATOM     16  C   UNL     1      -0.418  12.027  19.500  0.00  0.00    +0.000 A 
ENDBRANCH  10  11
ENDBRANCH   6  10
ENDBRANCH   3   6
ENDBRANCH   1   2
BRANCH   1  17
ATOM     17  C   UNL     1       3.527   4.857  18.056  0.00  0.00    +0.000 C 
ATOM     18  O   UNL     1       3.159   4.005  17.247  0.00  0.00    +0.000 OA
ATOM     19  N   UNL     1       4.828   5.312  18.126  0.00  0.00    +0.000 N 
ATOM     20  H   UNL     1       4.989   6.216  18.557  0.00  0.00    +0.000 HD
BRANCH  19  21
ATOM     21  C   UNL     1       5.836   4.875  17.157  0.00  0.00    +0.000 C 
BRANCH  21  22
ATOM     22  C   UNL     1       7.229   4.727  17.802  0.00  0.00    +0.000 C 
ATOM     23  N   UNL     1       7.348   5.137  19.100  0.00  0.00    +0.000 N 
ATOM     24  O   UNL     1       8.195   4.238  17.220  0.00  0.00    +0.000 OA
ATOM     25  H   UNL     1       6.530   5.311  19.667  0.00  0.00    +0.000 HD
ATOM     26  H   UNL     1       8.228   4.961  19.567  0.00  0.00    +0.000 HD
ENDBRANCH  21  22
BRANCH  21  27
ATOM     27  C   UNL     1       5.912   5.806  15.931  0.00  0.00    +0.000 C 
BRANCH  27  28
ATOM     28  C   UNL     1       6.347   5.094  14.689  0.00  0.00    +0.000 A 
ATOM     29  C   UNL     1       5.778   4.074  13.955  0.00  0.00    +0.000 A 
ATOM     30  N   UNL     1       6.534   3.796  12.845  0.00  0.00    +0.000 NA
ATOM     31  C   UNL     1       7.569   4.600  12.913  0.00  0.00    +0.000 A 
ATOM     32  N   UNL     1       7.514   5.393  14.023  0.00  0.00    +0.000 N 
ATOM     33  H   UNL     1       8.193   6.097  14.289  0.00  0.00    +0.000 HD
ENDBRANCH  27  28
ENDBRANCH  21  27
ENDBRANCH  19  21
ENDBRANCH   1  17
BRANCH   1  34
ATOM     34  C   UNL     1       1.284   4.629  19.240  0.00  0.00    +0.000 C 
BRANCH  34  36
ATOM     35  C   UNL     1       1.623   2.169  19.877  0.00  0.00    +0.000 C 
ATOM     36  C   UNL     1       1.280   3.576  20.369  0.00  0.00    +0.000 C 
ATOM     37  C   UNL     1       2.266   3.980  21.471  0.00  0.00    +0.000 C 
ENDBRANCH  34  36
ENDBRANCH   1  34
TORSDOF 12
ENDMDL
MODEL 5
REMARK VINA RESULT:      -7.2      1.478      1.923
REMARK  Name = 
REMARK  14 active torsions:
REMARK  status: ('A' for Active; 'I' for Inactive)
REMARK    1  A    between atoms: C_1  and  C_2
REMARK    2  A    between atoms: C_2  and  C_3
REMARK    3  A    between atoms: C_2  and  C_4
REMARK    4  A    between atoms: C_4  and  C_5
REMARK    5  A    between atoms: C_5  and  N_6
REMARK    6  A    between atoms: C_5  and  C_18
REMARK    7  A    between atoms: C_7  and  C_9
REMARK    8  A    between atoms: C_9  and  N_10
REMARK    9  A    between atoms: C_9  and  C_11
REMARK   10  A    between atoms: C_11  and  C_12
REMARK   11  A    between atoms: N_20  and  C_21
REMARK   12  A    between atoms: C_21  and  C_22
REMARK   13  A    between atoms: C_21  and  C_28
REMARK   14  A    between atoms: C_22  and  C_23
REMARK                            x       y       z     vdW  Elec       q    Type
REMARK                         _______ _______ _______ _____ _____    ______ ____
ROOT
ATOM      1  C   UNL     1       2.507   6.128  19.651  0.00  0.00    +0.000 C 
ENDROOT
BRANCH   1   2
ATOM      2  N   UNL     1       1.985   7.321  18.983  0.00  0.00    +0.000 N 
ATOM      3  C   UNL     1       1.567   8.427  19.691  0.00  0.00    +0.000 C 
ATOM      4  O   UNL     1       1.595   8.456  20.919  0.00  0.00    +0.000 OA
ATOM      5  H   UNL     1       2.027   7.342  17.969  0.00  0.00    +0.000 HD
BRANCH   3   6
ATOM      6  C   UNL     1       1.125   9.646  18.851  0.00  0.00    +0.000 C 
BRANCH   6   7
ATOM      7  N   UNL     1       2.296  10.204  18.131  0.00  0.00    +0.000 NA
ATOM      8  H   UNL     1       2.807  10.852  18.725  0.00  0.00    +0.000 HD
ATOM      9  H   UNL     1       1.961  10.738  17.327  0.00  0.00    +0.000 HD
ENDBRANCH   6   7
BRANCH   6  10
ATOM     10  C   UNL     1      -0.000   9.326  17.855  0.00  0.00    +0.000 C 
BRANCH  10  11
ATOM     11  C   UNL     1      -1.254  10.144  18.052  0.00  0.00    +0.000 A 
ATOM     12  C   UNL     1      -2.398   9.909  17.277  0.00  0.00    +0.000 A 
ATOM     13  C   UNL     1      -3.549  10.672  17.468  0.00  0.00    +0.000 A 
ATOM     14  C   UNL     1      -3.573  11.673  18.438  0.00  0.00    +0.000 A 
ATOM     15  C   UNL     1      -2.445  11.909  19.220  0.00  0.00    +0.000 A 
ATOM     16  C   UNL     1      -1.291  11.149  19.029  0.00  0.00    +0.000 A 
ENDBRANCH  10  11
ENDBRANCH   6  10
ENDBRANCH   3   6
ENDBRANCH   1   2
BRANCH   1  17
ATOM     17  C   UNL     1       3.661   5.606  18.775  0.00  0.00    +0.000 C 
ATOM     18  O   UNL     1       3.467   4.879  17.801  0.00  0.00    +0.000 OA
ATOM     19  N   UNL     1       4.922   5.983  19.189  0.00  0.00    +0.000 N 
ATOM     20  H   UNL     1       5.002   6.818  19.759  0.00  0.00    +0.000 HD
BRANCH  19  21
ATOM     21  C   UNL     1       6.113   5.617  18.418  0.00  0.00    +0.000 C 
BRANCH  21  22
ATOM     22  C   UNL     1       7.408   5.803  19.236  0.00  0.00    +0.000 C 
ATOM     23  N   UNL     1       8.284   6.750  18.785  0.00  0.00    +0.000 N 
ATOM     24  O   UNL     1       7.655   5.173  20.262  0.00  0.00    +0.000 OA
ATOM     25  H   UNL     1       8.001   7.436  18.101  0.00  0.00    +0.000 HD
ATOM     26  H   UNL     1       9.093   6.949  19.360  0.00  0.00    +0.000 HD
ENDBRANCH  21  22
BRANCH  21  27
ATOM     27  C   UNL     1       6.208   6.388  17.086  0.00  0.00    +0.000 C 
BRANCH  27  28
ATOM     28  C   UNL     1       6.388   5.486  15.906  0.00  0.00    +0.000 A 
ATOM     29  C   UNL     1       5.604   4.482  15.376  0.00  0.00    +0.000 A 
ATOM     30  N   UNL     1       6.171   3.975  14.236  0.00  0.00    +0.000 NA
ATOM     31  C   UNL     1       7.302   4.624  14.087  0.00  0.00    +0.000 A 
ATOM     32  N   UNL     1       7.490   5.537  15.085  0.00  0.00    +0.000 N 
ATOM     33  H   UNL     1       8.283   6.162  15.182  0.00  0.00    +0.000 HD
ENDBRANCH  27  28
ENDBRANCH  21  27
ENDBRANCH  19  21
ENDBRANCH   1  17
BRANCH   1  34
ATOM     34  C   UNL     1       1.408   5.065  19.832  0.00  0.00    +0.000 C 
BRANCH  34  36
ATOM     35  C   UNL     1       1.817   3.232  21.577  0.00  0.00    +0.000 C 
ATOM     36  C   UNL     1       1.897   3.625  20.102  0.00  0.00    +0.000 C 
ATOM     37  C   UNL     1       1.085   2.626  19.268  0.00  0.00    +0.000 C 
ENDBRANCH  34  36
ENDBRANCH   1  34
TORSDOF 12
ENDMDL
MODEL 6
REMARK VINA RESULT:      -7.2      2.451      3.596
REMARK  Name = 
REMARK  14 active torsions:
REMARK  status: ('A' for Active; 'I' for Inactive)
REMARK    1  A    between atoms: C_1  and  C_2
REMARK    2  A    between atoms: C_2  and  C_3
REMARK    3  A    between atoms: C_2  and  C_4
REMARK    4  A    between atoms: C_4  and  C_5
REMARK    5  A    between atoms: C_5  and  N_6
REMARK    6  A    between atoms: C_5  and  C_18
REMARK    7  A    between atoms: C_7  and  C_9
REMARK    8  A    between atoms: C_9  and  N_10
REMARK    9  A    between atoms: C_9  and  C_11
REMARK   10  A    between atoms: C_11  and  C_12
REMARK   11  A    between atoms: N_20  and  C_21
REMARK   12  A    between atoms: C_21  and  C_22
REMARK   13  A    between atoms: C_21  and  C_28
REMARK   14  A    between atoms: C_22  and  C_23
REMARK                            x       y       z     vdW  Elec       q    Type
REMARK                         _______ _______ _______ _____ _____    ______ ____
ROOT
ATOM      1  C   UNL     1       3.050   6.168  18.286  0.00  0.00    +0.000 C 
ENDROOT
BRANCH   1   2
ATOM      2  N   UNL     1       2.399   7.470  18.137  0.00  0.00    +0.000 N 
ATOM      3  C   UNL     1       1.971   8.198  19.227  0.00  0.00    +0.000 C 
ATOM      4  O   UNL     1       2.097   7.777  20.374  0.00  0.00    +0.000 OA
ATOM      5  H   UNL     1       2.356   7.865  17.203  0.00  0.00    +0.000 HD
BRANCH   3   6
ATOM      6  C   UNL     1       1.384   9.594  18.926  0.00  0.00    +0.000 C 
BRANCH   6   7
ATOM      7  N   UNL     1       1.675   9.962  17.518  0.00  0.00    +0.000 NA
ATOM      8  H   UNL     1       1.295   9.268  16.879  0.00  0.00    +0.000 HD
ATOM      9  H   UNL     1       2.688   9.966  17.384  0.00  0.00    +0.000 HD
ENDBRANCH   6   7
BRANCH   6  10
ATOM     10  C   UNL     1      -0.126   9.693  19.192  0.00  0.00    +0.000 C 
BRANCH  10  11
ATOM     11  C   UNL     1      -0.483  10.337  20.511  0.00  0.00    +0.000 A 
ATOM     12  C   UNL     1      -0.956  11.655  20.565  0.00  0.00    +0.000 A 
ATOM     13  C   UNL     1      -1.282  12.238  21.790  0.00  0.00    +0.000 A 
ATOM     14  C   UNL     1      -1.144  11.510  22.971  0.00  0.00    +0.000 A 
ATOM     15  C   UNL     1      -0.683  10.197  22.927  0.00  0.00    +0.000 A 
ATOM     16  C   UNL     1      -0.354   9.612  21.704  0.00  0.00    +0.000 A 
ENDBRANCH  10  11
ENDBRANCH   6  10
ENDBRANCH   3   6
ENDBRANCH   1   2
BRANCH   1  17
ATOM     17  C   UNL     1       4.378   6.252  17.510  0.00  0.00    +0.000 C 
ATOM     18  O   UNL     1       4.420   6.534  16.313  0.00  0.00    +0.000 OA
ATOM     19  N   UNL     1       5.502   5.950  18.249  0.00  0.00    +0.000 N 
ATOM     20  H   UNL     1       5.449   6.058  19.256  0.00  0.00    +0.000 HD
BRANCH  19  21
ATOM     21  C   UNL     1       6.842   6.051  17.665  0.00  0.00    +0.000 C 
BRANCH  21  22
ATOM     22  C   UNL     1       7.317   4.707  17.075  0.00  0.00    +0.000 C 
ATOM     23  N   UNL     1       8.314   4.062  17.751  0.00  0.00    +0.000 N 
ATOM     24  O   UNL     1       6.824   4.198  16.071  0.00  0.00    +0.000 OA
ATOM     25  H   UNL     1       8.562   4.331  18.692  0.00  0.00    +0.000 HD
ATOM     26  H   UNL     1       8.572   3.137  17.432  0.00  0.00    +0.000 HD
ENDBRANCH  21  22
BRANCH  21  27
ATOM     27  C   UNL     1       7.880   6.589  18.670  0.00  0.00    +0.000 C 
BRANCH  27  28
ATOM     28  C   UNL     1       8.195   8.036  18.458  0.00  0.00    +0.000 A 
ATOM     29  C   UNL     1       7.815   8.937  17.485  0.00  0.00    +0.000 A 
ATOM     30  N   UNL     1       8.319  10.183  17.756  0.00  0.00    +0.000 NA
ATOM     31  C   UNL     1       9.029  10.046  18.851  0.00  0.00    +0.000 A 
ATOM     32  N   UNL     1       9.003   8.759  19.306  0.00  0.00    +0.000 N 
ATOM     33  H   UNL     1       9.468   8.409  20.136  0.00  0.00    +0.000 HD
ENDBRANCH  27  28
ENDBRANCH  21  27
ENDBRANCH  19  21
ENDBRANCH   1  17
BRANCH   1  34
ATOM     34  C   UNL     1       2.154   5.034  17.753  0.00  0.00    +0.000 C 
BRANCH  34  36
ATOM     35  C   UNL     1       2.939   2.761  18.641  0.00  0.00    +0.000 C 
ATOM     36  C   UNL     1       1.887   3.867  18.729  0.00  0.00    +0.000 C 
ATOM     37  C   UNL     1       1.820   4.387  20.169  0.00  0.00    +0.000 C 
ENDBRANCH  34  36
ENDBRANCH   1  34
TORSDOF 12
ENDMDL
MODEL 7
REMARK VINA RESULT:      -7.1      2.282      8.300
REMARK  Name = 
REMARK  14 active torsions:
REMARK  status: ('A' for Active; 'I' for Inactive)
REMARK    1  A    between atoms: C_1  and  C_2
REMARK    2  A    between atoms: C_2  and  C_3
REMARK    3  A    between atoms: C_2  and  C_4
REMARK    4  A    between atoms: C_4  and  C_5
REMARK    5  A    between atoms: C_5  and  N_6
REMARK    6  A    between atoms: C_5  and  C_18
REMARK    7  A    between atoms: C_7  and  C_9
REMARK    8  A    between atoms: C_9  and  N_10
REMARK    9  A    between atoms: C_9  and  C_11
REMARK   10  A    between atoms: C_11  and  C_12
REMARK   11  A    between atoms: N_20  and  C_21
REMARK   12  A    between atoms: C_21  and  C_22
REMARK   13  A    between atoms: C_21  and  C_28
REMARK   14  A    between atoms: C_22  and  C_23
REMARK                            x       y       z     vdW  Elec       q    Type
REMARK                         _______ _______ _______ _____ _____    ______ ____
ROOT
ATOM      1  C   UNL     1       2.425   5.899  19.254  0.00  0.00    +0.000 C 
ENDROOT
BRANCH   1   2
ATOM      2  N   UNL     1       3.678   5.867  18.499  0.00  0.00    +0.000 N 
ATOM      3  C   UNL     1       3.891   4.962  17.481  0.00  0.00    +0.000 C 
ATOM      4  O   UNL     1       3.046   4.126  17.173  0.00  0.00    +0.000 OA
ATOM      5  H   UNL     1       4.355   6.599  18.690  0.00  0.00    +0.000 HD
BRANCH   3   6
ATOM      6  C   UNL     1       5.223   5.104  16.712  0.00  0.00    +0.000 C 
BRANCH   6   7
ATOM      7  N   UNL     1       6.300   5.502  17.652  0.00  0.00    +0.000 NA
ATOM      8  H   UNL     1       5.935   6.117  18.376  0.00  0.00    +0.000 HD
ATOM      9  H   UNL     1       7.003   6.035  17.138  0.00  0.00    +0.000 HD
ENDBRANCH   6   7
BRANCH   6  10
ATOM     10  C   UNL     1       5.632   3.830  15.957  0.00  0.00    +0.000 C 
BRANCH  10  11
ATOM     11  C   UNL     1       6.221   4.081  14.589  0.00  0.00    +0.000 A 
ATOM     12  C   UNL     1       5.753   3.388  13.464  0.00  0.00    +0.000 A 
ATOM     13  C   UNL     1       6.306   3.629  12.206  0.00  0.00    +0.000 A 
ATOM     14  C   UNL     1       7.325   4.568  12.058  0.00  0.00    +0.000 A 
ATOM     15  C   UNL     1       7.791   5.269  13.167  0.00  0.00    +0.000 A 
ATOM     16  C   UNL     1       7.242   5.028  14.427  0.00  0.00    +0.000 A 
ENDBRANCH  10  11
ENDBRANCH   6  10
ENDBRANCH   3   6
ENDBRANCH   1   2
BRANCH   1  17
ATOM     17  C   UNL     1       2.103   7.384  19.505  0.00  0.00    +0.000 C 
ATOM     18  O   UNL     1       2.405   8.265  18.700  0.00  0.00    +0.000 OA
ATOM     19  N   UNL     1       1.488   7.650  20.710  0.00  0.00    +0.000 N 
ATOM     20  H   UNL     1       0.976   6.895  21.156  0.00  0.00    +0.000 HD
BRANCH  19  21
ATOM     21  C   UNL     1       1.060   9.007  21.060  0.00  0.00    +0.000 C 
BRANCH  21  22
ATOM     22  C   UNL     1       1.097   9.248  22.583  0.00  0.00    +0.000 C 
ATOM     23  N   UNL     1      -0.108   9.260  23.229  0.00  0.00    +0.000 N 
ATOM     24  O   UNL     1       2.138   9.392  23.220  0.00  0.00    +0.000 OA
ATOM     25  H   UNL     1      -0.941   8.909  22.780  0.00  0.00    +0.000 HD
ATOM     26  H   UNL     1      -0.096   9.324  24.239  0.00  0.00    +0.000 HD
ENDBRANCH  21  22
BRANCH  21  27
ATOM     27  C   UNL     1      -0.336   9.343  20.500  0.00  0.00    +0.000 C 
BRANCH  27  28
ATOM     28  C   UNL     1      -0.398  10.703  19.878  0.00  0.00    +0.000 A 
ATOM     29  C   UNL     1      -0.179  11.146  18.590  0.00  0.00    +0.000 A 
ATOM     30  N   UNL     1      -0.419  12.493  18.495  0.00  0.00    +0.000 NA
ATOM     31  C   UNL     1      -0.740  12.881  19.707  0.00  0.00    +0.000 A 
ATOM     32  N   UNL     1      -0.722  11.837  20.587  0.00  0.00    +0.000 N 
ATOM     33  H   UNL     1      -0.941  11.885  21.575  0.00  0.00    +0.000 HD
ENDBRANCH  27  28
ENDBRANCH  21  27
ENDBRANCH  19  21
ENDBRANCH   1  17
BRANCH   1  34
ATOM     34  C   UNL     1       2.550   5.117  20.574  0.00  0.00    +0.000 C 
BRANCH  34  36
ATOM     35  C   UNL     1       2.086   2.970  21.896  0.00  0.00    +0.000 C 
ATOM     36  C   UNL     1       2.166   3.622  20.516  0.00  0.00    +0.000 C 
ATOM     37  C   UNL     1       0.824   3.450  19.796  0.00  0.00    +0.000 C 
ENDBRANCH  34  36
ENDBRANCH   1  34
TORSDOF 12
ENDMDL
MODEL 8
REMARK VINA RESULT:      -7.1      1.326      1.805
REMARK  Name = 
REMARK  14 active torsions:
REMARK  status: ('A' for Active; 'I' for Inactive)
REMARK    1  A    between atoms: C_1  and  C_2
REMARK    2  A    between atoms: C_2  and  C_3
REMARK    3  A    between atoms: C_2  and  C_4
REMARK    4  A    between atoms: C_4  and  C_5
REMARK    5  A    between atoms: C_5  and  N_6
REMARK    6  A    between atoms: C_5  and  C_18
REMARK    7  A    between atoms: C_7  and  C_9
REMARK    8  A    between atoms: C_9  and  N_10
REMARK    9  A    between atoms: C_9  and  C_11
REMARK   10  A    between atoms: C_11  and  C_12
REMARK   11  A    between atoms: N_20  and  C_21
REMARK   12  A    between atoms: C_21  and  C_22
REMARK   13  A    between atoms: C_21  and  C_28
REMARK   14  A    between atoms: C_22  and  C_23
REMARK                            x       y       z     vdW  Elec       q    Type
REMARK                         _______ _______ _______ _____ _____    ______ ____
ROOT
ATOM      1  C   UNL     1       3.357   5.094  19.042  0.00  0.00    +0.000 C 
ENDROOT
BRANCH   1   2
ATOM      2  N   UNL     1       3.101   6.399  18.432  0.00  0.00    +0.000 N 
ATOM      3  C   UNL     1       2.364   7.371  19.075  0.00  0.00    +0.000 C 
ATOM      4  O   UNL     1       1.872   7.179  20.184  0.00  0.00    +0.000 OA
ATOM      5  H   UNL     1       3.564   6.599  17.551  0.00  0.00    +0.000 HD
BRANCH   3   6
ATOM      6  C   UNL     1       2.252   8.730  18.351  0.00  0.00    +0.000 C 
BRANCH   6   7
ATOM      7  N   UNL     1       3.155   8.743  17.174  0.00  0.00    +0.000 NA
ATOM      8  H   UNL     1       2.770   9.321  16.432  0.00  0.00    +0.000 HD
ATOM      9  H   UNL     1       3.224   7.793  16.804  0.00  0.00    +0.000 HD
ENDBRANCH   6   7
BRANCH   6  10
ATOM     10  C   UNL     1       0.819   9.073  17.915  0.00  0.00    +0.000 C 
BRANCH  10  11
ATOM     11  C   UNL     1       0.165  10.162  18.733  0.00  0.00    +0.000 A 
ATOM     12  C   UNL     1       0.896  10.884  19.687  0.00  0.00    +0.000 A 
ATOM     13  C   UNL     1       0.280  11.887  20.436  0.00  0.00    +0.000 A 
ATOM     14  C   UNL     1      -1.067  12.183  20.236  0.00  0.00    +0.000 A 
ATOM     15  C   UNL     1      -1.799  11.479  19.284  0.00  0.00    +0.000 A 
ATOM     16  C   UNL     1      -1.187  10.473  18.535  0.00  0.00    +0.000 A 
ENDBRANCH  10  11
ENDBRANCH   6  10
ENDBRANCH   3   6
ENDBRANCH   1   2
BRANCH   1  17
ATOM     17  C   UNL     1       4.880   5.001  19.255  0.00  0.00    +0.000 C 
ATOM     18  O   UNL     1       5.377   4.291  20.128  0.00  0.00    +0.000 OA
ATOM     19  N   UNL     1       5.632   5.801  18.420  0.00  0.00    +0.000 N 
ATOM     20  H   UNL     1       5.218   6.086  17.538  0.00  0.00    +0.000 HD
BRANCH  19  21
ATOM     21  C   UNL     1       7.097   5.770  18.459  0.00  0.00    +0.000 C 
BRANCH  21  22
ATOM     22  C   UNL     1       7.713   7.117  18.030  0.00  0.00    +0.000 C 
ATOM     23  N   UNL     1       8.599   7.688  18.900  0.00  0.00    +0.000 N 
ATOM     24  O   UNL     1       7.468   7.661  16.955  0.00  0.00    +0.000 OA
ATOM     25  H   UNL     1       8.995   7.156  19.661  0.00  0.00    +0.000 HD
ATOM     26  H   UNL     1       9.082   8.523  18.594  0.00  0.00    +0.000 HD
ENDBRANCH  21  22
BRANCH  21  27
ATOM     27  C   UNL     1       7.681   4.622  17.612  0.00  0.00    +0.000 C 
BRANCH  27  28
ATOM     28  C   UNL     1       6.971   4.446  16.307  0.00  0.00    +0.000 A 
ATOM     29  C   UNL     1       7.145   5.028  15.068  0.00  0.00    +0.000 A 
ATOM     30  N   UNL     1       6.275   4.491  14.154  0.00  0.00    +0.000 NA
ATOM     31  C   UNL     1       5.551   3.624  14.824  0.00  0.00    +0.000 A 
ATOM     32  N   UNL     1       5.920   3.575  16.138  0.00  0.00    +0.000 N 
ATOM     33  H   UNL     1       5.513   2.978  16.850  0.00  0.00    +0.000 HD
ENDBRANCH  27  28
ENDBRANCH  21  27
ENDBRANCH  19  21
ENDBRANCH   1  17
BRANCH   1  34
ATOM     34  C   UNL     1       2.840   3.950  18.150  0.00  0.00    +0.000 C 
BRANCH  34  36
ATOM     35  C   UNL     1       1.036   2.213  18.699  0.00  0.00    +0.000 C 
ATOM     36  C   UNL     1       2.497   2.629  18.872  0.00  0.00    +0.000 C 
ATOM     37  C   UNL     1       3.406   1.501  18.370  0.00  0.00    +0.000 C 
ENDBRANCH  34  36
ENDBRANCH   1  34
TORSDOF 12
ENDMDL
MODEL 9
REMARK VINA RESULT:      -7.1      1.363      1.863
REMARK  Name = 
REMARK  14 active torsions:
REMARK  status: ('A' for Active; 'I' for Inactive)
REMARK    1  A    between atoms: C_1  and  C_2
REMARK    2  A    between atoms: C_2  and  C_3
REMARK    3  A    between atoms: C_2  and  C_4
REMARK    4  A    between atoms: C_4  and  C_5
REMARK    5  A    between atoms: C_5  and  N_6
REMARK    6  A    between atoms: C_5  and  C_18
REMARK    7  A    between atoms: C_7  and  C_9
REMARK    8  A    between atoms: C_9  and  N_10
REMARK    9  A    between atoms: C_9  and  C_11
REMARK   10  A    between atoms: C_11  and  C_12
REMARK   11  A    between atoms: N_20  and  C_21
REMARK   12  A    between atoms: C_21  and  C_22
REMARK   13  A    between atoms: C_21  and  C_28
REMARK   14  A    between atoms: C_22  and  C_23
REMARK                            x       y       z     vdW  Elec       q    Type
REMARK                         _______ _______ _______ _____ _____    ______ ____
ROOT
ATOM      1  C   UNL     1       3.395   4.751  19.106  0.00  0.00    +0.000 C 
ENDROOT
BRANCH   1   2
ATOM      2  N   UNL     1       2.880   6.105  19.308  0.00  0.00    +0.000 N 
ATOM      3  C   UNL     1       1.837   6.365  20.171  0.00  0.00    +0.000 C 
ATOM      4  O   UNL     1       1.278   5.468  20.796  0.00  0.00    +0.000 OA
ATOM      5  H   UNL     1       3.381   6.865  18.858  0.00  0.00    +0.000 HD
BRANCH   3   6
ATOM      6  C   UNL     1       1.459   7.852  20.353  0.00  0.00    +0.000 C 
BRANCH   6   7
ATOM      7  N   UNL     1       2.104   8.381  21.580  0.00  0.00    +0.000 NA
ATOM      8  H   UNL     1       2.003   7.726  22.351  0.00  0.00    +0.000 HD
ATOM      9  H   UNL     1       1.625   9.240  21.857  0.00  0.00    +0.000 HD
ENDBRANCH   6   7
BRANCH   6  10
ATOM     10  C   UNL     1       1.828   8.728  19.147  0.00  0.00    +0.000 C 
BRANCH  10  11
ATOM     11  C   UNL     1       1.040  10.013  19.050  0.00  0.00    +0.000 A 
ATOM     12  C   UNL     1       1.657  11.209  18.659  0.00  0.00    +0.000 A 
ATOM     13  C   UNL     1       0.917  12.390  18.574  0.00  0.00    +0.000 A 
ATOM     14  C   UNL     1      -0.445  12.385  18.871  0.00  0.00    +0.000 A 
ATOM     15  C   UNL     1      -1.069  11.200  19.250  0.00  0.00    +0.000 A 
ATOM     16  C   UNL     1      -0.332  10.020  19.339  0.00  0.00    +0.000 A 
ENDBRANCH  10  11
ENDBRANCH   6  10
ENDBRANCH   3   6
ENDBRANCH   1   2
BRANCH   1  17
ATOM     17  C   UNL     1       4.926   4.837  19.259  0.00  0.00    +0.000 C 
ATOM     18  O   UNL     1       5.530   4.230  20.143  0.00  0.00    +0.000 OA
ATOM     19  N   UNL     1       5.554   5.671  18.358  0.00  0.00    +0.000 N 
ATOM     20  H   UNL     1       5.079   5.864  17.482  0.00  0.00    +0.000 HD
BRANCH  19  21
ATOM     21  C   UNL     1       7.013   5.804  18.338  0.00  0.00    +0.000 C 
BRANCH  21  22
ATOM     22  C   UNL     1       7.458   7.214  17.900  0.00  0.00    +0.000 C 
ATOM     23  N   UNL     1       8.510   7.761  18.579  0.00  0.00    +0.000 N 
ATOM     24  O   UNL     1       6.938   7.828  16.970  0.00  0.00    +0.000 OA
ATOM     25  H   UNL     1       9.099   7.192  19.170  0.00  0.00    +0.000 HD
ATOM     26  H   UNL     1       8.874   8.644  18.244  0.00  0.00    +0.000 HD
ENDBRANCH  21  22
BRANCH  21  27
ATOM     27  C   UNL     1       7.686   4.734  17.455  0.00  0.00    +0.000 C 
BRANCH  27  28
ATOM     28  C   UNL     1       6.977   4.528  16.153  0.00  0.00    +0.000 A 
ATOM     29  C   UNL     1       7.106   5.131  14.920  0.00  0.00    +0.000 A 
ATOM     30  N   UNL     1       6.264   4.552  14.007  0.00  0.00    +0.000 NA
ATOM     31  C   UNL     1       5.599   3.635  14.672  0.00  0.00    +0.000 A 
ATOM     32  N   UNL     1       5.980   3.595  15.982  0.00  0.00    +0.000 N 
ATOM     33  H   UNL     1       5.617   2.967  16.691  0.00  0.00    +0.000 HD
ENDBRANCH  27  28
ENDBRANCH  21  27
ENDBRANCH  19  21
ENDBRANCH   1  17
BRANCH   1  34
ATOM     34  C   UNL     1       2.996   4.204  17.723  0.00  0.00    +0.000 C 
BRANCH  34  36
ATOM     35  C   UNL     1       3.359   1.709  18.191  0.00  0.00    +0.000 C 
ATOM     36  C   UNL     1       2.386   2.785  17.705  0.00  0.00    +0.000 C 
ATOM     37  C   UNL     1       1.118   2.745  18.565  0.00  0.00    +0.000 C 
ENDBRANCH  34  36
ENDBRANCH   1  34
TORSDOF 12
ENDMDL
