MODEL 1
REMARK VINA RESULT:      -7.1      0.000      0.000
REMARK  Name = 
REMARK  3 active torsions:
REMARK  status: ('A' for Active; 'I' for Inactive)
REMARK    1  A    between atoms: C_1  and  C_2
REMARK    2  A    between atoms: N_4  and  C_5
REMARK    3  A    between atoms: C_5  and  C_6
REMARK                            x       y       z     vdW  Elec       q    Type
REMARK                         _______ _______ _______ _____ _____    ______ ____
ROOT
ATOM      1  C   UNL     1       3.321   4.971  17.392  0.00  0.00    +0.000 C 
ENDROOT
BRANCH   1   5
ATOM      2  C   UNL     1       7.518   6.025  18.691  0.00  0.00    +0.000 C 
ATOM      3  C   UNL     1       6.846   6.512  17.404  0.00  0.00    +0.000 C 
ATOM      4  C   UNL     1       5.297   6.397  17.489  0.00  0.00    +0.000 C 
ATOM      5  N   UNL     1       4.795   5.008  17.420  0.00  0.00    +0.000 NA
ATOM      6  C   UNL     1       5.356   4.339  16.229  0.00  0.00    +0.000 C 
ATOM      7  C   UNL     1       6.890   4.454  16.128  0.00  0.00    +0.000 C 
ATOM      8  N   UNL     1       7.391   5.838  16.204  0.00  0.00    +0.000 NA
ATOM      9  H   UNL     1       7.043   6.334  15.384  0.00  0.00    +0.000 HD
ENDBRANCH   1   5
BRANCH   1  10
ATOM     10  C   UNL     1       2.668   4.303  18.593  0.00  0.00    +0.000 A 
ATOM     11  C   UNL     1       2.526   2.909  18.585  0.00  0.00    +0.000 A 
ATOM     12  F   UNL     1       3.103   2.174  17.625  0.00  0.00    +0.000 F 
ATOM     13  C   UNL     1       1.802   2.225  19.576  0.00  0.00    +0.000 A 
ATOM     14  C   UNL     1       1.252   2.940  20.630  0.00  0.00    +0.000 A 
ATOM     15  C   UNL     1       1.454   4.316  20.710  0.00  0.00    +0.000 A 
ATOM     16  C   UNL     1       2.154   4.993  19.692  0.00  0.00    +0.000 A 
ATOM     17 CL   UNL     1       2.348   6.703  19.891  0.00  0.00    +0.000 Cl
ENDBRANCH   1  10
TORSDOF 2
ENDMDL
MODEL 2
REMARK VINA RESULT:      -7.0      1.727      2.244
REMARK  Name = 
REMARK  3 active torsions:
REMARK  status: ('A' for Active; 'I' for Inactive)
REMARK    1  A    between atoms: C_1  and  C_2
REMARK    2  A    between atoms: N_4  and  C_5
REMARK    3  A    between atoms: C_5  and  C_6
REMARK                            x       y       z     vdW  Elec       q    Type
REMARK                         _______ _______ _______ _____ _____    ______ ____
ROOT
ATOM      1  C   UNL     1       4.132   2.958  18.033  0.00  0.00    +0.000 C 
ENDROOT
BRANCH   1   5
ATOM      2  C   UNL     1       5.162   6.607  15.575  0.00  0.00    +0.000 C 
ATOM      3  C   UNL     1       6.028   5.349  15.689  0.00  0.00    +0.000 C 
ATOM      4  C   UNL     1       5.199   4.126  16.176  0.00  0.00    +0.000 C 
ATOM      5  N   UNL     1       4.817   4.191  17.603  0.00  0.00    +0.000 NA
ATOM      6  C   UNL     1       6.020   4.433  18.424  0.00  0.00    +0.000 C 
ATOM      7  C   UNL     1       6.856   5.637  17.947  0.00  0.00    +0.000 C 
ATOM      8  N   UNL     1       7.230   5.575  16.522  0.00  0.00    +0.000 NA
ATOM      9  H   UNL     1       7.847   4.771  16.403  0.00  0.00    +0.000 HD
ENDBRANCH   1   5
BRANCH   1  10
ATOM     10  C   UNL     1       3.134   3.134  19.168  0.00  0.00    +0.000 A 
ATOM     11  C   UNL     1       3.462   2.621  20.430  0.00  0.00    +0.000 A 
ATOM     12  F   UNL     1       4.691   2.142  20.668  0.00  0.00    +0.000 F 
ATOM     13  C   UNL     1       2.543   2.602  21.492  0.00  0.00    +0.000 A 
ATOM     14  C   UNL     1       1.284   3.157  21.310  0.00  0.00    +0.000 A 
ATOM     15  C   UNL     1       0.963   3.755  20.094  0.00  0.00    +0.000 A 
ATOM     16  C   UNL     1       1.883   3.737  19.027  0.00  0.00    +0.000 A 
ATOM     17 CL   UNL     1       1.382   4.508  17.559  0.00  0.00    +0.000 Cl
ENDBRANCH   1  10
TORSDOF 2
ENDMDL
MODEL 3
REMARK VINA RESULT:      -7.0      1.876      2.216
REMARK  Name = 
REMARK  3 active torsions:
REMARK  status: ('A' for Active; 'I' for Inactive)
REMARK    1  A    between atoms: C_1  and  C_2
REMARK    2  A    between atoms: N_4  and  C_5
REMARK    3  A    between atoms: C_5  and  C_6
REMARK                            x       y       z     vdW  Elec       q    Type
REMARK                         _______ _______ _______ _____ _____    ______ ____
ROOT
ATOM      1  C   UNL     1       3.458   4.876  17.454  0.00  0.00    +0.000 C 
ENDROOT
BRANCH   1   5
ATOM      2  C   UNL     1       7.631   6.222  18.543  0.00  0.00    +0.000 C 
ATOM      3  C   UNL     1       6.883   6.619  17.268  0.00  0.00    +0.000 C 
ATOM      4  C   UNL     1       5.348   6.418  17.419  0.00  0.00    +0.000 C 
ATOM      5  N   UNL     1       4.927   5.000  17.421  0.00  0.00    +0.000 NA
ATOM      6  C   UNL     1       5.481   4.320  16.234  0.00  0.00    +0.000 C 
ATOM      7  C   UNL     1       7.000   4.519  16.066  0.00  0.00    +0.000 C 
ATOM      8  N   UNL     1       7.421   5.932  16.072  0.00  0.00    +0.000 NA
ATOM      9  H   UNL     1       7.012   6.375  15.249  0.00  0.00    +0.000 HD
ENDBRANCH   1   5
BRANCH   1  10
ATOM     10  C   UNL     1       2.882   4.358  18.764  0.00  0.00    +0.000 A 
ATOM     11  C   UNL     1       2.388   5.287  19.689  0.00  0.00    +0.000 A 
ATOM     12  F   UNL     1       2.270   6.579  19.354  0.00  0.00    +0.000 F 
ATOM     13  C   UNL     1       1.980   4.914  20.980  0.00  0.00    +0.000 A 
ATOM     14  C   UNL     1       2.015   3.574  21.342  0.00  0.00    +0.000 A 
ATOM     15  C   UNL     1       2.417   2.619  20.411  0.00  0.00    +0.000 A 
ATOM     16  C   UNL     1       2.854   3.011  19.131  0.00  0.00    +0.000 A 
ATOM     17 CL   UNL     1       3.331   1.742  18.053  0.00  0.00    +0.000 Cl
ENDBRANCH   1  10
TORSDOF 2
ENDMDL
MODEL 4
REMARK VINA RESULT:      -6.8      2.159      2.880
REMARK  Name = 
REMARK  3 active torsions:
REMARK  status: ('A' for Active; 'I' for Inactive)
REMARK    1  A    between atoms: C_1  and  C_2
REMARK    2  A    between atoms: N_4  and  C_5
REMARK    3  A    between atoms: C_5  and  C_6
REMARK                            x       y       z     vdW  Elec       q    Type
REMARK                         _______ _______ _______ _____ _____    ______ ____
ROOT
ATOM      1  C   UNL     1       5.065   3.930  19.355  0.00  0.00    +0.000 C 
ENDROOT
BRANCH   1   5
ATOM      2  C   UNL     1       5.077   6.499  15.638  0.00  0.00    +0.000 C 
ATOM      3  C   UNL     1       6.119   5.428  15.972  0.00  0.00    +0.000 C 
ATOM      4  C   UNL     1       5.581   4.413  17.021  0.00  0.00    +0.000 C 
ATOM      5  N   UNL     1       5.472   4.966  18.388  0.00  0.00    +0.000 NA
ATOM      6  C   UNL     1       6.761   5.568  18.780  0.00  0.00    +0.000 C 
ATOM      7  C   UNL     1       7.311   6.569  17.745  0.00  0.00    +0.000 C 
ATOM      8  N   UNL     1       7.413   6.020  16.381  0.00  0.00    +0.000 NA
ATOM      9  H   UNL     1       8.104   5.270  16.404  0.00  0.00    +0.000 HD
ENDBRANCH   1   5
BRANCH   1  10
ATOM     10  C   UNL     1       3.563   3.725  19.490  0.00  0.00    +0.000 A 
ATOM     11  C   UNL     1       2.795   4.763  20.035  0.00  0.00    +0.000 A 
ATOM     12  F   UNL     1       3.345   5.962  20.269  0.00  0.00    +0.000 F 
ATOM     13  C   UNL     1       1.432   4.607  20.337  0.00  0.00    +0.000 A 
ATOM     14  C   UNL     1       0.804   3.405  20.039  0.00  0.00    +0.000 A 
ATOM     15  C   UNL     1       1.523   2.388  19.415  0.00  0.00    +0.000 A 
ATOM     16  C   UNL     1       2.897   2.547  19.148  0.00  0.00    +0.000 A 
ATOM     17 CL   UNL     1       3.693   1.220  18.369  0.00  0.00    +0.000 Cl
ENDBRANCH   1  10
TORSDOF 2
ENDMDL
MODEL 5
REMARK VINA RESULT:      -6.8      2.170      2.867
REMARK  Name = 
REMARK  3 active torsions:
REMARK  status: ('A' for Active; 'I' for Inactive)
REMARK    1  A    between atoms: C_1  and  C_2
REMARK    2  A    between atoms: N_4  and  C_5
REMARK    3  A    between atoms: C_5  and  C_6
REMARK                            x       y       z     vdW  Elec       q    Type
REMARK                         _______ _______ _______ _____ _____    ______ ____
ROOT
ATOM      1  C   UNL     1       4.771   4.292  19.151  0.00  0.00    +0.000 C 
ENDROOT
BRANCH   1   5
ATOM      2  C   UNL     1       6.157   3.820  14.877  0.00  0.00    +0.000 C 
ATOM      3  C   UNL     1       6.824   4.716  15.925  0.00  0.00    +0.000 C 
ATOM      4  C   UNL     1       6.438   4.289  17.370  0.00  0.00    +0.000 C 
ATOM      5  N   UNL     1       5.043   4.617  17.739  0.00  0.00    +0.000 NA
ATOM      6  C   UNL     1       4.786   6.046  17.473  0.00  0.00    +0.000 C 
ATOM      7  C   UNL     1       5.174   6.484  16.047  0.00  0.00    +0.000 C 
ATOM      8  N   UNL     1       6.561   6.151  15.677  0.00  0.00    +0.000 NA
ATOM      9  H   UNL     1       7.177   6.689  16.286  0.00  0.00    +0.000 HD
ENDBRANCH   1   5
BRANCH   1  10
ATOM     10  C   UNL     1       3.336   3.887  19.457  0.00  0.00    +0.000 A 
ATOM     11  C   UNL     1       2.496   4.824  20.074  0.00  0.00    +0.000 A 
ATOM     12  F   UNL     1       2.897   6.093  20.233  0.00  0.00    +0.000 F 
ATOM     13  C   UNL     1       1.210   4.491  20.530  0.00  0.00    +0.000 A 
ATOM     14  C   UNL     1       0.726   3.207  20.317  0.00  0.00    +0.000 A 
ATOM     15  C   UNL     1       1.506   2.282  19.626  0.00  0.00    +0.000 A 
ATOM     16  C   UNL     1       2.807   2.621  19.204  0.00  0.00    +0.000 A 
ATOM     17 CL   UNL     1       3.689   1.396  18.354  0.00  0.00    +0.000 Cl
ENDBRANCH   1  10
TORSDOF 2
ENDMDL
MODEL 6
REMARK VINA RESULT:      -6.8      1.829      2.025
REMARK  Name = 
REMARK  3 active torsions:
REMARK  status: ('A' for Active; 'I' for Inactive)
REMARK    1  A    between atoms: C_1  and  C_2
REMARK    2  A    between atoms: N_4  and  C_5
REMARK    3  A    between atoms: C_5  and  C_6
REMARK                            x       y       z     vdW  Elec       q    Type
REMARK                         _______ _______ _______ _____ _____    ______ ____
ROOT
ATOM      1  C   UNL     1       3.733   3.473  17.337  0.00  0.00    +0.000 C 
ENDROOT
BRANCH   1   5
ATOM      2  C   UNL     1       7.300   5.738  18.940  0.00  0.00    +0.000 C 
ATOM      3  C   UNL     1       6.423   6.190  17.768  0.00  0.00    +0.000 C 
ATOM      4  C   UNL     1       5.037   5.486  17.787  0.00  0.00    +0.000 C 
ATOM      5  N   UNL     1       5.086   4.057  17.411  0.00  0.00    +0.000 NA
ATOM      6  C   UNL     1       5.788   3.910  16.120  0.00  0.00    +0.000 C 
ATOM      7  C   UNL     1       7.160   4.612  16.085  0.00  0.00    +0.000 C 
ATOM      8  N   UNL     1       7.111   6.035  16.467  0.00  0.00    +0.000 NA
ATOM      9  H   UNL     1       6.557   6.521  15.762  0.00  0.00    +0.000 HD
ENDBRANCH   1   5
BRANCH   1  10
ATOM     10  C   UNL     1       2.963   3.460  18.649  0.00  0.00    +0.000 A 
ATOM     11  C   UNL     1       1.783   4.211  18.737  0.00  0.00    +0.000 A 
ATOM     12  F   UNL     1       1.261   4.784  17.643  0.00  0.00    +0.000 F 
ATOM     13  C   UNL     1       1.091   4.381  19.947  0.00  0.00    +0.000 A 
ATOM     14  C   UNL     1       1.555   3.742  21.089  0.00  0.00    +0.000 A 
ATOM     15  C   UNL     1       2.675   2.917  21.011  0.00  0.00    +0.000 A 
ATOM     16  C   UNL     1       3.377   2.783  19.797  0.00  0.00    +0.000 A 
ATOM     17 CL   UNL     1       4.754   1.732  19.812  0.00  0.00    +0.000 Cl
ENDBRANCH   1  10
TORSDOF 2
ENDMDL
MODEL 7
REMARK VINA RESULT:      -6.7      1.972      2.504
REMARK  Name = 
REMARK  3 active torsions:
REMARK  status: ('A' for Active; 'I' for Inactive)
REMARK    1  A    between atoms: C_1  and  C_2
REMARK    2  A    between atoms: N_4  and  C_5
REMARK    3  A    between atoms: C_5  and  C_6
REMARK                            x       y       z     vdW  Elec       q    Type
REMARK                         _______ _______ _______ _____ _____    ______ ____
ROOT
ATOM      1  C   UNL     1       3.989   2.930  17.809  0.00  0.00    +0.000 C 
ENDROOT
BRANCH   1   5
ATOM      2  C   UNL     1       5.163   6.666  15.554  0.00  0.00    +0.000 C 
ATOM      3  C   UNL     1       6.033   5.413  15.696  0.00  0.00    +0.000 C 
ATOM      4  C   UNL     1       5.183   4.167  16.078  0.00  0.00    +0.000 C 
ATOM      5  N   UNL     1       4.690   4.183  17.472  0.00  0.00    +0.000 NA
ATOM      6  C   UNL     1       5.822   4.411  18.392  0.00  0.00    +0.000 C 
ATOM      7  C   UNL     1       6.679   5.637  18.019  0.00  0.00    +0.000 C 
ATOM      8  N   UNL     1       7.163   5.624  16.627  0.00  0.00    +0.000 NA
ATOM      9  H   UNL     1       7.797   4.830  16.532  0.00  0.00    +0.000 HD
ENDBRANCH   1   5
BRANCH   1  10
ATOM     10  C   UNL     1       3.061   3.012  19.012  0.00  0.00    +0.000 A 
ATOM     11  C   UNL     1       1.809   3.619  18.849  0.00  0.00    +0.000 A 
ATOM     12  F   UNL     1       1.376   3.961  17.627  0.00  0.00    +0.000 F 
ATOM     13  C   UNL     1       0.953   3.874  19.933  0.00  0.00    +0.000 A 
ATOM     14  C   UNL     1       1.330   3.467  21.205  0.00  0.00    +0.000 A 
ATOM     15  C   UNL     1       2.529   2.781  21.383  0.00  0.00    +0.000 A 
ATOM     16  C   UNL     1       3.392   2.561  20.291  0.00  0.00    +0.000 A 
ATOM     17 CL   UNL     1       4.857   1.698  20.624  0.00  0.00    +0.000 Cl
ENDBRANCH   1  10
TORSDOF 2
ENDMDL
MODEL 8
REMARK VINA RESULT:      -6.7      1.307      1.336
REMARK  Name = 
REMARK  3 active torsions:
REMARK  status: ('A' for Active; 'I' for Inactive)
REMARK    1  A    between atoms: C_1  and  C_2
REMARK    2  A    between atoms: N_4  and  C_5
REMARK    3  A    between atoms: C_5  and  C_6
REMARK                            x       y       z     vdW  Elec       q    Type
REMARK                         _______ _______ _______ _____ _____    ______ ____
ROOT
ATOM      1  C   UNL     1       4.040   3.501  17.584  0.00  0.00    +0.000 C 
ENDROOT
BRANCH   1   5
ATOM      2  C   UNL     1       7.710   5.785  18.902  0.00  0.00    +0.000 C 
ATOM      3  C   UNL     1       6.713   6.257  17.839  0.00  0.00    +0.000 C 
ATOM      4  C   UNL     1       5.347   5.525  17.971  0.00  0.00    +0.000 C 
ATOM      5  N   UNL     1       5.384   4.109  17.543  0.00  0.00    +0.000 NA
ATOM      6  C   UNL     1       5.956   4.019  16.186  0.00  0.00    +0.000 C 
ATOM      7  C   UNL     1       7.305   4.750  16.039  0.00  0.00    +0.000 C 
ATOM      8  N   UNL     1       7.271   6.158  16.472  0.00  0.00    +0.000 NA
ATOM      9  H   UNL     1       6.641   6.655  15.843  0.00  0.00    +0.000 HD
ENDBRANCH   1   5
BRANCH   1  10
ATOM     10  C   UNL     1       3.304   3.648  18.908  0.00  0.00    +0.000 A 
ATOM     11  C   UNL     1       3.635   2.776  19.954  0.00  0.00    +0.000 A 
ATOM     12  F   UNL     1       4.687   1.954  19.845  0.00  0.00    +0.000 F 
ATOM     13  C   UNL     1       2.906   2.737  21.154  0.00  0.00    +0.000 A 
ATOM     14  C   UNL     1       1.855   3.625  21.340  0.00  0.00    +0.000 A 
ATOM     15  C   UNL     1       1.562   4.562  20.352  0.00  0.00    +0.000 A 
ATOM     16  C   UNL     1       2.280   4.568  19.140  0.00  0.00    +0.000 A 
ATOM     17 CL   UNL     1       1.834   5.775  17.981  0.00  0.00    +0.000 Cl
ENDBRANCH   1  10
TORSDOF 2
ENDMDL
MODEL 9
REMARK VINA RESULT:      -6.7      1.321      1.954
REMARK  Name = 
REMARK  3 active torsions:
REMARK  status: ('A' for Active; 'I' for Inactive)
REMARK    1  A    between atoms: C_1  and  C_2
REMARK    2  A    between atoms: N_4  and  C_5
REMARK    3  A    between atoms: C_5  and  C_6
REMARK                            x       y       z     vdW  Elec       q    Type
REMARK                         _______ _______ _______ _____ _____    ______ ____
ROOT
ATOM      1  C   UNL     1       4.715   4.960  19.465  0.00  0.00    +0.000 C 
ENDROOT
BRANCH   1   5
ATOM      2  C   UNL     1       6.112   3.738  15.346  0.00  0.00    +0.000 C 
ATOM      3  C   UNL     1       6.755   4.830  16.206  0.00  0.00    +0.000 C 
ATOM      4  C   UNL     1       6.380   4.670  17.707  0.00  0.00    +0.000 C 
ATOM      5  N   UNL     1       4.978   5.024  18.016  0.00  0.00    +0.000 NA
ATOM      6  C   UNL     1       4.683   6.372  17.491  0.00  0.00    +0.000 C 
ATOM      7  C   UNL     1       5.059   6.547  16.006  0.00  0.00    +0.000 C 
ATOM      8  N   UNL     1       6.454   6.187  15.697  0.00  0.00    +0.000 NA
ATOM      9  H   UNL     1       7.056   6.845  16.193  0.00  0.00    +0.000 HD
ENDBRANCH   1   5
BRANCH   1  10
ATOM     10  C   UNL     1       3.382   4.336  19.854  0.00  0.00    +0.000 A 
ATOM     11  C   UNL     1       3.299   2.940  19.936  0.00  0.00    +0.000 A 
ATOM     12  F   UNL     1       4.406   2.188  19.845  0.00  0.00    +0.000 F 
ATOM     13  C   UNL     1       2.080   2.272  20.137  0.00  0.00    +0.000 A 
ATOM     14  C   UNL     1       0.921   3.015  20.313  0.00  0.00    +0.000 A 
ATOM     15  C   UNL     1       0.989   4.407  20.325  0.00  0.00    +0.000 A 
ATOM     16  C   UNL     1       2.213   5.062  20.090  0.00  0.00    +0.000 A 
ATOM     17 CL   UNL     1       2.185   6.794  20.126  0.00  0.00    +0.000 Cl
ENDBRANCH   1  10
TORSDOF 2
ENDMDL
