MODEL 1
REMARK VINA RESULT:      -7.3      0.000      0.000
REMARK  Name = 
REMARK  2 active torsions:
REMARK  status: ('A' for Active; 'I' for Inactive)
REMARK    1  A    between atoms: C_5  and  N_6
REMARK    2  A    between atoms: N_7  and  C_8
REMARK                            x       y       z     vdW  Elec       q    Type
REMARK                         _______ _______ _______ _____ _____    ______ ____
ROOT
ATOM      1  N   UNL     1       4.435   3.494  16.820  0.00  0.00    +0.000 NA
ATOM      2  N   UNL     1       3.260   3.383  17.282  0.00  0.00    +0.000 NA
ENDROOT
BRANCH   2   3
ATOM      3  C   UNL     1       2.884   3.572  18.610  0.00  0.00    +0.000 C 
ATOM      4  C   UNL     1       2.488   4.761  19.107  0.00  0.00    +0.000 C 
ATOM      5  C   UNL     1       2.446   6.095  18.417  0.00  0.00    +0.000 C 
ATOM      6  C   UNL     1       2.072   7.096  19.528  0.00  0.00    +0.000 C 
ATOM      7  C   UNL     1       1.689   6.285  20.760  0.00  0.00    +0.000 C 
ATOM      8  N   UNL     1       2.092   4.934  20.428  0.00  0.00    +0.000 N 
ATOM      9  C   UNL     1       1.965   3.861  21.403  0.00  0.00    +0.000 C 
ATOM     10  C   UNL     1       1.964   2.517  20.677  0.00  0.00    +0.000 C 
ATOM     11  C   UNL     1       3.101   2.492  19.642  0.00  0.00    +0.000 C 
ENDBRANCH   2   3
BRANCH   1  16
ATOM     12 CL   UNL     1       8.050   8.160  17.567  0.00  0.00    +0.000 Cl
ATOM     13  C   UNL     1       6.926   6.850  17.498  0.00  0.00    +0.000 A 
ATOM     14  C   UNL     1       5.905   6.918  16.552  0.00  0.00    +0.000 A 
ATOM     15  C   UNL     1       5.001   5.857  16.422  0.00  0.00    +0.000 A 
ATOM     16  C   UNL     1       5.210   4.647  17.086  0.00  0.00    +0.000 A 
ATOM     17  C   UNL     1       6.171   4.630  18.108  0.00  0.00    +0.000 A 
ATOM     18  C   UNL     1       7.009   5.734  18.334  0.00  0.00    +0.000 A 
ATOM     19 CL   UNL     1       8.116   5.667  19.659  0.00  0.00    +0.000 Cl
ENDBRANCH   1  16
TORSDOF 2
ENDMDL
MODEL 2
REMARK VINA RESULT:      -7.3      2.726      5.377
REMARK  Name = 
REMARK  2 active torsions:
REMARK  status: ('A' for Active; 'I' for Inactive)
REMARK    1  A    between atoms: C_5  and  N_6
REMARK    2  A    between atoms: N_7  and  C_8
REMARK                            x       y       z     vdW  Elec       q    Type
REMARK                         _______ _______ _______ _____ _____    ______ ____
ROOT
ATOM      1  N   UNL     1       2.452   4.401  17.723  0.00  0.00    +0.000 NA
ATOM      2  N   UNL     1       3.486   3.675  17.816  0.00  0.00    +0.000 NA
ENDROOT
BRANCH   2   3
ATOM      3  C   UNL     1       4.804   4.127  17.814  0.00  0.00    +0.000 C 
ATOM      4  C   UNL     1       5.518   4.330  16.689  0.00  0.00    +0.000 C 
ATOM      5  C   UNL     1       5.120   4.053  15.266  0.00  0.00    +0.000 C 
ATOM      6  C   UNL     1       6.396   4.326  14.446  0.00  0.00    +0.000 C 
ATOM      7  C   UNL     1       7.411   4.968  15.383  0.00  0.00    +0.000 C 
ATOM      8  N   UNL     1       6.825   4.803  16.698  0.00  0.00    +0.000 N 
ATOM      9  C   UNL     1       7.547   5.221  17.890  0.00  0.00    +0.000 C 
ATOM     10  C   UNL     1       6.558   5.414  19.037  0.00  0.00    +0.000 C 
ATOM     11  C   UNL     1       5.598   4.214  19.095  0.00  0.00    +0.000 C 
ENDBRANCH   2   3
BRANCH   1  16
ATOM     12 CL   UNL     1       1.192   9.082  21.174  0.00  0.00    +0.000 Cl
ATOM     13  C   UNL     1       1.721   7.776  20.174  0.00  0.00    +0.000 A 
ATOM     14  C   UNL     1       1.759   6.501  20.734  0.00  0.00    +0.000 A 
ATOM     15  C   UNL     1       2.129   5.403  19.950  0.00  0.00    +0.000 A 
ATOM     16  C   UNL     1       2.280   5.523  18.567  0.00  0.00    +0.000 A 
ATOM     17  C   UNL     1       2.345   6.820  18.037  0.00  0.00    +0.000 A 
ATOM     18  C   UNL     1       2.095   7.946  18.839  0.00  0.00    +0.000 A 
ATOM     19 CL   UNL     1       2.267   9.513  18.132  0.00  0.00    +0.000 Cl
ENDBRANCH   1  16
TORSDOF 2
ENDMDL
MODEL 3
REMARK VINA RESULT:      -7.1      2.471      5.199
REMARK  Name = 
REMARK  2 active torsions:
REMARK  status: ('A' for Active; 'I' for Inactive)
REMARK    1  A    between atoms: C_5  and  N_6
REMARK    2  A    between atoms: N_7  and  C_8
REMARK                            x       y       z     vdW  Elec       q    Type
REMARK                         _______ _______ _______ _____ _____    ______ ____
ROOT
ATOM      1  N   UNL     1       2.544   3.586  17.756  0.00  0.00    +0.000 NA
ATOM      2  N   UNL     1       3.693   3.133  17.476  0.00  0.00    +0.000 NA
ENDROOT
BRANCH   2   3
ATOM      3  C   UNL     1       4.750   3.863  16.935  0.00  0.00    +0.000 C 
ATOM      4  C   UNL     1       5.690   4.475  17.684  0.00  0.00    +0.000 C 
ATOM      5  C   UNL     1       5.768   4.582  19.181  0.00  0.00    +0.000 C 
ATOM      6  C   UNL     1       6.957   5.529  19.441  0.00  0.00    +0.000 C 
ATOM      7  C   UNL     1       7.661   5.750  18.109  0.00  0.00    +0.000 C 
ATOM      8  N   UNL     1       6.753   5.181  17.134  0.00  0.00    +0.000 N 
ATOM      9  C   UNL     1       7.038   5.275  15.710  0.00  0.00    +0.000 C 
ATOM     10  C   UNL     1       6.244   4.203  14.966  0.00  0.00    +0.000 C 
ATOM     11  C   UNL     1       4.790   4.201  15.465  0.00  0.00    +0.000 C 
ENDBRANCH   2   3
BRANCH   1  16
ATOM     12 CL   UNL     1       1.397   8.476  20.946  0.00  0.00    +0.000 Cl
ATOM     13  C   UNL     1       1.894   7.107  20.018  0.00  0.00    +0.000 A 
ATOM     14  C   UNL     1       1.907   5.864  20.648  0.00  0.00    +0.000 A 
ATOM     15  C   UNL     1       2.251   4.717  19.925  0.00  0.00    +0.000 A 
ATOM     16  C   UNL     1       2.399   4.757  18.536  0.00  0.00    +0.000 A 
ATOM     17  C   UNL     1       2.490   6.021  17.935  0.00  0.00    +0.000 A 
ATOM     18  C   UNL     1       2.266   7.194  18.674  0.00  0.00    +0.000 A 
ATOM     19 CL   UNL     1       2.470   8.717  17.881  0.00  0.00    +0.000 Cl
ENDBRANCH   1  16
TORSDOF 2
ENDMDL
MODEL 4
REMARK VINA RESULT:      -7.0      3.151      5.899
REMARK  Name = 
REMARK  2 active torsions:
REMARK  status: ('A' for Active; 'I' for Inactive)
REMARK    1  A    between atoms: C_5  and  N_6
REMARK    2  A    between atoms: N_7  and  C_8
REMARK                            x       y       z     vdW  Elec       q    Type
REMARK                         _______ _______ _______ _____ _____    ______ ____
ROOT
ATOM      1  N   UNL     1       3.139   7.299  18.183  0.00  0.00    +0.000 NA
ATOM      2  N   UNL     1       3.991   7.062  17.275  0.00  0.00    +0.000 NA
ENDROOT
BRANCH   2   3
ATOM      3  C   UNL     1       5.125   6.263  17.407  0.00  0.00    +0.000 C 
ATOM      4  C   UNL     1       5.649   5.544  16.394  0.00  0.00    +0.000 C 
ATOM      5  C   UNL     1       5.121   5.375  14.997  0.00  0.00    +0.000 C 
ATOM      6  C   UNL     1       6.044   4.319  14.358  0.00  0.00    +0.000 C 
ATOM      7  C   UNL     1       7.202   4.087  15.319  0.00  0.00    +0.000 C 
ATOM      8  N   UNL     1       6.794   4.769  16.530  0.00  0.00    +0.000 N 
ATOM      9  C   UNL     1       7.613   4.704  17.731  0.00  0.00    +0.000 C 
ATOM     10  C   UNL     1       7.252   5.868  18.652  0.00  0.00    +0.000 C 
ATOM     11  C   UNL     1       5.722   5.979  18.764  0.00  0.00    +0.000 C 
ENDBRANCH   2   3
BRANCH   1  16
ATOM     12 CL   UNL     1       1.190   2.694  21.408  0.00  0.00    +0.000 Cl
ATOM     13  C   UNL     1       1.600   4.038  20.403  0.00  0.00    +0.000 A 
ATOM     14  C   UNL     1       1.775   5.278  21.013  0.00  0.00    +0.000 A 
ATOM     15  C   UNL     1       2.158   6.386  20.249  0.00  0.00    +0.000 A 
ATOM     16  C   UNL     1       2.555   6.241  18.918  0.00  0.00    +0.000 A 
ATOM     17  C   UNL     1       2.273   5.018  18.292  0.00  0.00    +0.000 A 
ATOM     18  C   UNL     1       1.771   3.928  19.021  0.00  0.00    +0.000 A 
ATOM     19 CL   UNL     1       1.378   2.478  18.165  0.00  0.00    +0.000 Cl
ENDBRANCH   1  16
TORSDOF 2
ENDMDL
MODEL 5
REMARK VINA RESULT:      -7.0      3.197      5.874
REMARK  Name = 
REMARK  2 active torsions:
REMARK  status: ('A' for Active; 'I' for Inactive)
REMARK    1  A    between atoms: C_5  and  N_6
REMARK    2  A    between atoms: N_7  and  C_8
REMARK                            x       y       z     vdW  Elec       q    Type
REMARK                         _______ _______ _______ _____ _____    ______ ____
ROOT
ATOM      1  N   UNL     1       3.344   6.859  18.721  0.00  0.00    +0.000 NA
ATOM      2  N   UNL     1       4.311   7.033  17.920  0.00  0.00    +0.000 NA
ENDROOT
BRANCH   2   3
ATOM      3  C   UNL     1       5.434   6.217  17.807  0.00  0.00    +0.000 C 
ATOM      4  C   UNL     1       5.830   5.655  16.648  0.00  0.00    +0.000 C 
ATOM      5  C   UNL     1       5.151   5.699  15.308  0.00  0.00    +0.000 C 
ATOM      6  C   UNL     1       5.976   4.745  14.422  0.00  0.00    +0.000 C 
ATOM      7  C   UNL     1       7.227   4.366  15.205  0.00  0.00    +0.000 C 
ATOM      8  N   UNL     1       6.966   4.861  16.541  0.00  0.00    +0.000 N 
ATOM      9  C   UNL     1       7.908   4.614  17.622  0.00  0.00    +0.000 C 
ATOM     10  C   UNL     1       7.674   5.629  18.738  0.00  0.00    +0.000 C 
ATOM     11  C   UNL     1       6.169   5.730  19.033  0.00  0.00    +0.000 C 
ENDBRANCH   2   3
BRANCH   1  16
ATOM     12 CL   UNL     1       0.132   1.867  19.127  0.00  0.00    +0.000 Cl
ATOM     13  C   UNL     1       1.202   3.220  19.041  0.00  0.00    +0.000 A 
ATOM     14  C   UNL     1       1.444   3.781  17.789  0.00  0.00    +0.000 A 
ATOM     15  C   UNL     1       2.262   4.910  17.674  0.00  0.00    +0.000 A 
ATOM     16  C   UNL     1       2.692   5.607  18.805  0.00  0.00    +0.000 A 
ATOM     17  C   UNL     1       2.535   4.976  20.048  0.00  0.00    +0.000 A 
ATOM     18  C   UNL     1       1.818   3.774  20.166  0.00  0.00    +0.000 A 
ATOM     19 CL   UNL     1       1.731   3.018  21.719  0.00  0.00    +0.000 Cl
ENDBRANCH   1  16
TORSDOF 2
ENDMDL
MODEL 6
REMARK VINA RESULT:      -6.7      2.719      3.280
REMARK  Name = 
REMARK  2 active torsions:
REMARK  status: ('A' for Active; 'I' for Inactive)
REMARK    1  A    between atoms: C_5  and  N_6
REMARK    2  A    between atoms: N_7  and  C_8
REMARK                            x       y       z     vdW  Elec       q    Type
REMARK                         _______ _______ _______ _____ _____    ______ ____
ROOT
ATOM      1  N   UNL     1       6.154   5.165  18.221  0.00  0.00    +0.000 NA
ATOM      2  N   UNL     1       5.854   4.309  19.106  0.00  0.00    +0.000 NA
ENDROOT
BRANCH   2   3
ATOM      3  C   UNL     1       4.650   3.613  19.193  0.00  0.00    +0.000 C 
ATOM      4  C   UNL     1       3.486   4.186  19.561  0.00  0.00    +0.000 C 
ATOM      5  C   UNL     1       3.242   5.597  20.017  0.00  0.00    +0.000 C 
ATOM      6  C   UNL     1       1.764   5.614  20.454  0.00  0.00    +0.000 C 
ATOM      7  C   UNL     1       1.147   4.289  20.023  0.00  0.00    +0.000 C 
ATOM      8  N   UNL     1       2.286   3.488  19.622  0.00  0.00    +0.000 N 
ATOM      9  C   UNL     1       2.112   2.101  19.218  0.00  0.00    +0.000 C 
ATOM     10  C   UNL     1       3.317   1.662  18.389  0.00  0.00    +0.000 C 
ATOM     11  C   UNL     1       4.612   2.108  19.089  0.00  0.00    +0.000 C 
ENDBRANCH   2   3
BRANCH   1  16
ATOM     12 CL   UNL     1       5.700   3.440  12.545  0.00  0.00    +0.000 Cl
ATOM     13  C   UNL     1       5.804   4.100  14.137  0.00  0.00    +0.000 A 
ATOM     14  C   UNL     1       4.756   3.843  15.019  0.00  0.00    +0.000 A 
ATOM     15  C   UNL     1       4.819   4.312  16.336  0.00  0.00    +0.000 A 
ATOM     16  C   UNL     1       5.992   4.871  16.847  0.00  0.00    +0.000 A 
ATOM     17  C   UNL     1       6.993   5.220  15.929  0.00  0.00    +0.000 A 
ATOM     18  C   UNL     1       6.891   4.863  14.574  0.00  0.00    +0.000 A 
ATOM     19 CL   UNL     1       8.127   5.393  13.489  0.00  0.00    +0.000 Cl
ENDBRANCH   1  16
TORSDOF 2
ENDMDL
MODEL 7
REMARK VINA RESULT:      -6.7      2.921      4.058
REMARK  Name = 
REMARK  2 active torsions:
REMARK  status: ('A' for Active; 'I' for Inactive)
REMARK    1  A    between atoms: C_5  and  N_6
REMARK    2  A    between atoms: N_7  and  C_8
REMARK                            x       y       z     vdW  Elec       q    Type
REMARK                         _______ _______ _______ _____ _____    ______ ____
ROOT
ATOM      1  N   UNL     1       6.942   4.706  17.741  0.00  0.00    +0.000 NA
ATOM      2  N   UNL     1       6.100   4.391  18.634  0.00  0.00    +0.000 NA
ENDROOT
BRANCH   2   3
ATOM      3  C   UNL     1       4.756   4.758  18.655  0.00  0.00    +0.000 C 
ATOM      4  C   UNL     1       3.749   3.879  18.833  0.00  0.00    +0.000 C 
ATOM      5  C   UNL     1       3.825   2.383  18.955  0.00  0.00    +0.000 C 
ATOM      6  C   UNL     1       2.355   1.920  18.972  0.00  0.00    +0.000 C 
ATOM      7  C   UNL     1       1.486   3.166  19.092  0.00  0.00    +0.000 C 
ATOM      8  N   UNL     1       2.412   4.259  18.876  0.00  0.00    +0.000 N 
ATOM      9  C   UNL     1       1.940   5.634  18.829  0.00  0.00    +0.000 C 
ATOM     10  C   UNL     1       3.108   6.579  19.101  0.00  0.00    +0.000 C 
ATOM     11  C   UNL     1       4.323   6.150  18.262  0.00  0.00    +0.000 C 
ENDBRANCH   2   3
BRANCH   1  16
ATOM     12 CL   UNL     1       6.056   3.383  12.008  0.00  0.00    +0.000 Cl
ATOM     13  C   UNL     1       6.251   3.923  13.637  0.00  0.00    +0.000 A 
ATOM     14  C   UNL     1       5.390   3.403  14.602  0.00  0.00    +0.000 A 
ATOM     15  C   UNL     1       5.541   3.769  15.944  0.00  0.00    +0.000 A 
ATOM     16  C   UNL     1       6.654   4.497  16.372  0.00  0.00    +0.000 A 
ATOM     17  C   UNL     1       7.447   5.100  15.385  0.00  0.00    +0.000 A 
ATOM     18  C   UNL     1       7.233   4.839  14.021  0.00  0.00    +0.000 A 
ATOM     19 CL   UNL     1       8.202   5.678  12.862  0.00  0.00    +0.000 Cl
ENDBRANCH   1  16
TORSDOF 2
ENDMDL
MODEL 8
REMARK VINA RESULT:      -6.7      0.895      2.318
REMARK  Name = 
REMARK  2 active torsions:
REMARK  status: ('A' for Active; 'I' for Inactive)
REMARK    1  A    between atoms: C_5  and  N_6
REMARK    2  A    between atoms: N_7  and  C_8
REMARK                            x       y       z     vdW  Elec       q    Type
REMARK                         _______ _______ _______ _____ _____    ______ ____
ROOT
ATOM      1  N   UNL     1       4.766   4.205  16.717  0.00  0.00    +0.000 NA
ATOM      2  N   UNL     1       3.507   4.317  16.809  0.00  0.00    +0.000 NA
ENDROOT
BRANCH   2   3
ATOM      3  C   UNL     1       2.797   4.625  17.968  0.00  0.00    +0.000 C 
ATOM      4  C   UNL     1       2.315   3.691  18.813  0.00  0.00    +0.000 C 
ATOM      5  C   UNL     1       2.351   2.195  18.672  0.00  0.00    +0.000 C 
ATOM      6  C   UNL     1       1.506   1.674  19.852  0.00  0.00    +0.000 C 
ATOM      7  C   UNL     1       1.208   2.862  20.757  0.00  0.00    +0.000 C 
ATOM      8  N   UNL     1       1.628   4.009  19.979  0.00  0.00    +0.000 N 
ATOM      9  C   UNL     1       1.423   5.360  20.477  0.00  0.00    +0.000 C 
ATOM     10  C   UNL     1       2.371   6.315  19.754  0.00  0.00    +0.000 C 
ATOM     11  C   UNL     1       2.330   6.033  18.243  0.00  0.00    +0.000 C 
ENDBRANCH   2   3
BRANCH   1  16
ATOM     12 CL   UNL     1       8.724   8.303  18.433  0.00  0.00    +0.000 Cl
ATOM     13  C   UNL     1       7.492   7.144  18.082  0.00  0.00    +0.000 A 
ATOM     14  C   UNL     1       6.574   7.454  17.081  0.00  0.00    +0.000 A 
ATOM     15  C   UNL     1       5.589   6.527  16.723  0.00  0.00    +0.000 A 
ATOM     16  C   UNL     1       5.619   5.219  17.213  0.00  0.00    +0.000 A 
ATOM     17  C   UNL     1       6.475   4.955  18.291  0.00  0.00    +0.000 A 
ATOM     18  C   UNL     1       7.390   5.919  18.745  0.00  0.00    +0.000 A 
ATOM     19 CL   UNL     1       8.359   5.547  20.127  0.00  0.00    +0.000 Cl
ENDBRANCH   1  16
TORSDOF 2
ENDMDL
MODEL 9
REMARK VINA RESULT:      -6.7      3.085      5.811
REMARK  Name = 
REMARK  2 active torsions:
REMARK  status: ('A' for Active; 'I' for Inactive)
REMARK    1  A    between atoms: C_5  and  N_6
REMARK    2  A    between atoms: N_7  and  C_8
REMARK                            x       y       z     vdW  Elec       q    Type
REMARK                         _______ _______ _______ _____ _____    ______ ____
ROOT
ATOM      1  N   UNL     1       3.468   6.958  18.469  0.00  0.00    +0.000 NA
ATOM      2  N   UNL     1       4.091   7.201  17.393  0.00  0.00    +0.000 NA
ENDROOT
BRANCH   2   3
ATOM      3  C   UNL     1       5.056   6.384  16.806  0.00  0.00    +0.000 C 
ATOM      4  C   UNL     1       6.083   5.840  17.489  0.00  0.00    +0.000 C 
ATOM      5  C   UNL     1       6.458   6.041  18.930  0.00  0.00    +0.000 C 
ATOM      6  C   UNL     1       7.802   5.303  19.088  0.00  0.00    +0.000 C 
ATOM      7  C   UNL     1       8.041   4.514  17.808  0.00  0.00    +0.000 C 
ATOM      8  N   UNL     1       7.027   5.007  16.898  0.00  0.00    +0.000 N 
ATOM      9  C   UNL     1       6.980   4.549  15.518  0.00  0.00    +0.000 C 
ATOM     10  C   UNL     1       5.585   4.801  14.950  0.00  0.00    +0.000 C 
ATOM     11  C   UNL     1       5.136   6.228  15.306  0.00  0.00    +0.000 C 
ENDBRANCH   2   3
BRANCH   1  16
ATOM     12 CL   UNL     1       0.302   2.006  19.389  0.00  0.00    +0.000 Cl
ATOM     13  C   UNL     1       1.361   3.347  19.143  0.00  0.00    +0.000 A 
ATOM     14  C   UNL     1       1.469   3.863  17.853  0.00  0.00    +0.000 A 
ATOM     15  C   UNL     1       2.274   4.982  17.612  0.00  0.00    +0.000 A 
ATOM     16  C   UNL     1       2.825   5.714  18.666  0.00  0.00    +0.000 A 
ATOM     17  C   UNL     1       2.799   5.128  19.940  0.00  0.00    +0.000 A 
ATOM     18  C   UNL     1       2.095   3.935  20.176  0.00  0.00    +0.000 A 
ATOM     19 CL   UNL     1       2.172   3.235  21.754  0.00  0.00    +0.000 Cl
ENDBRANCH   1  16
TORSDOF 2
ENDMDL
