MODEL 1
REMARK VINA RESULT:      -7.9      0.000      0.000
REMARK  Name = 
REMARK  8 active torsions:
REMARK  status: ('A' for Active; 'I' for Inactive)
REMARK    1  A    between atoms: C_2  and  O_3
REMARK    2  A    between atoms: C_2  and  C_4
REMARK    3  A    between atoms: C_4  and  C_5
REMARK    4  A    between atoms: C_5  and  C_6
REMARK    5  A    between atoms: C_6  and  C_7
REMARK    6  A    between atoms: N_12  and  C_13
REMARK    7  A    between atoms: C_13  and  C_14
REMARK    8  A    between atoms: C_13  and  C_20
REMARK                            x       y       z     vdW  Elec       q    Type
REMARK                         _______ _______ _______ _____ _____    ______ ____
ROOT
ATOM      1  C   UNL     1       6.157   4.359  15.264  0.00  0.00    +0.000 C 
ATOM      2  O   UNL     1       6.413   3.155  15.187  0.00  0.00    +0.000 OA
ATOM      3  N   UNL     1       5.265   4.859  16.191  0.00  0.00    +0.000 N 
ATOM      4  C   UNL     1       4.657   3.944  17.163  0.00  0.00    +0.000 C 
ATOM      5  C   UNL     1       4.801   4.502  18.596  0.00  0.00    +0.000 C 
ATOM      6  N   UNL     1       4.304   5.902  18.773  0.00  0.00    +0.000 NA
ATOM      7  C   UNL     1       5.019   6.738  17.783  0.00  0.00    +0.000 C 
ATOM      8  C   UNL     1       4.858   6.264  16.330  0.00  0.00    +0.000 C 
ENDROOT
BRANCH   1   9
ATOM      9  C   UNL     1       6.858   5.352  14.351  0.00  0.00    +0.000 C 
BRANCH   9  10
ATOM     10  C   UNL     1       7.728   4.669  13.298  0.00  0.00    +0.000 C 
BRANCH  10  11
ATOM     11  C   UNL     1       7.021   4.512  11.946  0.00  0.00    +0.000 C 
BRANCH  11  13
ATOM     12  O   UNL     1       4.934   3.274  11.912  0.00  0.00    +0.000 OA
ATOM     13  C   UNL     1       6.155   3.274  11.874  0.00  0.00    +0.000 C 
BRANCH  13  14
ATOM     14  O   UNL     1       6.871   2.134  11.748  0.00  0.00    +0.000 OA
ATOM     15  H   UNL     1       7.577   2.032  12.416  0.00  0.00    +0.000 HD
ENDBRANCH  13  14
ENDBRANCH  11  13
ENDBRANCH  10  11
ENDBRANCH   9  10
ENDBRANCH   1   9
BRANCH   6  16
ATOM     16  C   UNL     1       2.813   5.977  18.651  0.00  0.00    +0.000 C 
BRANCH  16  17
ATOM     17  C   UNL     1       2.159   4.892  19.521  0.00  0.00    +0.000 A 
ATOM     18  C   UNL     1       2.529   4.719  20.865  0.00  0.00    +0.000 A 
ATOM     19  C   UNL     1       2.059   3.642  21.608  0.00  0.00    +0.000 A 
ATOM     20  C   UNL     1       1.227   2.699  21.016  0.00  0.00    +0.000 A 
ATOM     21  C   UNL     1       0.840   2.854  19.685  0.00  0.00    +0.000 A 
ATOM     22  C   UNL     1       1.292   3.951  18.945  0.00  0.00    +0.000 A 
ENDBRANCH  16  17
BRANCH  16  23
ATOM     23  C   UNL     1       2.209   7.371  18.904  0.00  0.00    +0.000 A 
ATOM     24  C   UNL     1       2.041   8.272  17.832  0.00  0.00    +0.000 A 
ATOM     25  C   UNL     1       1.445   9.525  18.026  0.00  0.00    +0.000 A 
ATOM     26  C   UNL     1       0.995   9.896  19.290  0.00  0.00    +0.000 A 
ATOM     27  C   UNL     1       1.182   9.036  20.366  0.00  0.00    +0.000 A 
ATOM     28  C   UNL     1       1.800   7.796  20.178  0.00  0.00    +0.000 A 
ENDBRANCH  16  23
ENDBRANCH   6  16
TORSDOF 8
ENDMDL
MODEL 2
REMARK VINA RESULT:      -7.6      0.521      1.087
REMARK  Name = 
REMARK  8 active torsions:
REMARK  status: ('A' for Active; 'I' for Inactive)
REMARK    1  A    between atoms: C_2  and  O_3
REMARK    2  A    between atoms: C_2  and  C_4
REMARK    3  A    between atoms: C_4  and  C_5
REMARK    4  A    between atoms: C_5  and  C_6
REMARK    5  A    between atoms: C_6  and  C_7
REMARK    6  A    between atoms: N_12  and  C_13
REMARK    7  A    between atoms: C_13  and  C_14
REMARK    8  A    between atoms: C_13  and  C_20
REMARK                            x       y       z     vdW  Elec       q    Type
REMARK                         _______ _______ _______ _____ _____    ______ ____
ROOT
ATOM      1  C   UNL     1       6.016   4.143  15.430  0.00  0.00    +0.000 C 
ATOM      2  O   UNL     1       6.295   2.943  15.501  0.00  0.00    +0.000 OA
ATOM      3  N   UNL     1       5.135   4.742  16.307  0.00  0.00    +0.000 N 
ATOM      4  C   UNL     1       4.569   3.949  17.403  0.00  0.00    +0.000 C 
ATOM      5  C   UNL     1       4.734   4.689  18.749  0.00  0.00    +0.000 C 
ATOM      6  N   UNL     1       4.213   6.091  18.758  0.00  0.00    +0.000 NA
ATOM      7  C   UNL     1       4.887   6.805  17.652  0.00  0.00    +0.000 C 
ATOM      8  C   UNL     1       4.703   6.146  16.276  0.00  0.00    +0.000 C 
ENDROOT
BRANCH   1   9
ATOM      9  C   UNL     1       6.675   5.022  14.380  0.00  0.00    +0.000 C 
BRANCH   9  10
ATOM     10  C   UNL     1       6.962   4.271  13.081  0.00  0.00    +0.000 C 
BRANCH  10  11
ATOM     11  C   UNL     1       5.704   3.663  12.450  0.00  0.00    +0.000 C 
BRANCH  11  13
ATOM     12  O   UNL     1       5.140   1.689  11.155  0.00  0.00    +0.000 OA
ATOM     13  C   UNL     1       5.992   2.415  11.645  0.00  0.00    +0.000 C 
BRANCH  13  14
ATOM     14  O   UNL     1       7.314   2.170  11.502  0.00  0.00    +0.000 OA
ATOM     15  H   UNL     1       7.872   2.972  11.527  0.00  0.00    +0.000 HD
ENDBRANCH  13  14
ENDBRANCH  11  13
ENDBRANCH  10  11
ENDBRANCH   9  10
ENDBRANCH   1   9
BRANCH   6  16
ATOM     16  C   UNL     1       2.719   6.123  18.666  0.00  0.00    +0.000 C 
BRANCH  16  17
ATOM     17  C   UNL     1       2.113   5.015  19.539  0.00  0.00    +0.000 A 
ATOM     18  C   UNL     1       2.527   4.830  20.869  0.00  0.00    +0.000 A 
ATOM     19  C   UNL     1       2.102   3.733  21.610  0.00  0.00    +0.000 A 
ATOM     20  C   UNL     1       1.270   2.782  21.032  0.00  0.00    +0.000 A 
ATOM     21  C   UNL     1       0.840   2.948  19.715  0.00  0.00    +0.000 A 
ATOM     22  C   UNL     1       1.246   4.064  18.977  0.00  0.00    +0.000 A 
ENDBRANCH  16  17
BRANCH  16  23
ATOM     23  C   UNL     1       2.079   7.498  18.941  0.00  0.00    +0.000 A 
ATOM     24  C   UNL     1       1.667   7.836  20.247  0.00  0.00    +0.000 A 
ATOM     25  C   UNL     1       1.131   9.099  20.533  0.00  0.00    +0.000 A 
ATOM     26  C   UNL     1       1.009  10.049  19.524  0.00  0.00    +0.000 A 
ATOM     27  C   UNL     1       1.377   9.724  18.224  0.00  0.00    +0.000 A 
ATOM     28  C   UNL     1       1.888   8.456  17.932  0.00  0.00    +0.000 A 
ENDBRANCH  16  23
ENDBRANCH   6  16
TORSDOF 8
ENDMDL
MODEL 3
REMARK VINA RESULT:      -7.5      1.188      3.968
REMARK  Name = 
REMARK  8 active torsions:
REMARK  status: ('A' for Active; 'I' for Inactive)
REMARK    1  A    between atoms: C_2  and  O_3
REMARK    2  A    between atoms: C_2  and  C_4
REMARK    3  A    between atoms: C_4  and  C_5
REMARK    4  A    between atoms: C_5  and  C_6
REMARK    5  A    between atoms: C_6  and  C_7
REMARK    6  A    between atoms: N_12  and  C_13
REMARK    7  A    between atoms: C_13  and  C_14
REMARK    8  A    between atoms: C_13  and  C_20
REMARK                            x       y       z     vdW  Elec       q    Type
REMARK                         _______ _______ _______ _____ _____    ______ ____
ROOT
ATOM      1  C   UNL     1       6.715   5.432  16.420  0.00  0.00    +0.000 C 
ATOM      2  O   UNL     1       7.495   6.346  16.145  0.00  0.00    +0.000 OA
ATOM      3  N   UNL     1       5.604   5.633  17.213  0.00  0.00    +0.000 N 
ATOM      4  C   UNL     1       5.298   6.988  17.683  0.00  0.00    +0.000 C 
ATOM      5  C   UNL     1       3.823   7.343  17.391  0.00  0.00    +0.000 C 
ATOM      6  N   UNL     1       2.830   6.347  17.900  0.00  0.00    +0.000 NA
ATOM      7  C   UNL     1       3.204   5.037  17.324  0.00  0.00    +0.000 C 
ATOM      8  C   UNL     1       4.645   4.604  17.638  0.00  0.00    +0.000 C 
ENDROOT
BRANCH   1   9
ATOM      9  C   UNL     1       6.935   4.038  15.854  0.00  0.00    +0.000 C 
BRANCH   9  10
ATOM     10  C   UNL     1       6.038   3.744  14.652  0.00  0.00    +0.000 C 
BRANCH  10  11
ATOM     11  C   UNL     1       6.655   4.192  13.321  0.00  0.00    +0.000 C 
BRANCH  11  13
ATOM     12  O   UNL     1       7.045   2.596  11.535  0.00  0.00    +0.000 OA
ATOM     13  C   UNL     1       6.268   3.300  12.162  0.00  0.00    +0.000 C 
BRANCH  13  14
ATOM     14  O   UNL     1       4.947   3.343  11.879  0.00  0.00    +0.000 OA
ATOM     15  H   UNL     1       4.388   3.625  12.629  0.00  0.00    +0.000 HD
ENDBRANCH  13  14
ENDBRANCH  11  13
ENDBRANCH  10  11
ENDBRANCH   9  10
ENDBRANCH   1   9
BRANCH   6  16
ATOM     16  C   UNL     1       2.768   6.346  19.396  0.00  0.00    +0.000 C 
BRANCH  16  17
ATOM     17  C   UNL     1       1.989   7.574  19.892  0.00  0.00    +0.000 A 
ATOM     18  C   UNL     1       1.409   7.597  21.171  0.00  0.00    +0.000 A 
ATOM     19  C   UNL     1       0.572   8.635  21.564  0.00  0.00    +0.000 A 
ATOM     20  C   UNL     1       0.274   9.662  20.677  0.00  0.00    +0.000 A 
ATOM     21  C   UNL     1       0.844   9.664  19.403  0.00  0.00    +0.000 A 
ATOM     22  C   UNL     1       1.707   8.634  19.017  0.00  0.00    +0.000 A 
ENDBRANCH  16  17
BRANCH  16  23
ATOM     23  C   UNL     1       2.256   5.037  20.026  0.00  0.00    +0.000 A 
ATOM     24  C   UNL     1       2.932   4.472  21.127  0.00  0.00    +0.000 A 
ATOM     25  C   UNL     1       2.457   3.311  21.751  0.00  0.00    +0.000 A 
ATOM     26  C   UNL     1       1.293   2.700  21.294  0.00  0.00    +0.000 A 
ATOM     27  C   UNL     1       0.631   3.221  20.189  0.00  0.00    +0.000 A 
ATOM     28  C   UNL     1       1.119   4.365  19.550  0.00  0.00    +0.000 A 
ENDBRANCH  16  23
ENDBRANCH   6  16
TORSDOF 8
ENDMDL
MODEL 4
REMARK VINA RESULT:      -7.5      1.326      3.951
REMARK  Name = 
REMARK  8 active torsions:
REMARK  status: ('A' for Active; 'I' for Inactive)
REMARK    1  A    between atoms: C_2  and  O_3
REMARK    2  A    between atoms: C_2  and  C_4
REMARK    3  A    between atoms: C_4  and  C_5
REMARK    4  A    between atoms: C_5  and  C_6
REMARK    5  A    between atoms: C_6  and  C_7
REMARK    6  A    between atoms: N_12  and  C_13
REMARK    7  A    between atoms: C_13  and  C_14
REMARK    8  A    between atoms: C_13  and  C_20
REMARK                            x       y       z     vdW  Elec       q    Type
REMARK                         _______ _______ _______ _____ _____    ______ ____
ROOT
ATOM      1  C   UNL     1       6.890   5.821  16.628  0.00  0.00    +0.000 C 
ATOM      2  O   UNL     1       7.600   6.801  16.391  0.00  0.00    +0.000 OA
ATOM      3  N   UNL     1       5.730   5.921  17.369  0.00  0.00    +0.000 N 
ATOM      4  C   UNL     1       5.287   7.241  17.827  0.00  0.00    +0.000 C 
ATOM      5  C   UNL     1       3.801   7.468  17.467  0.00  0.00    +0.000 C 
ATOM      6  N   UNL     1       2.876   6.387  17.928  0.00  0.00    +0.000 NA
ATOM      7  C   UNL     1       3.389   5.118  17.367  0.00  0.00    +0.000 C 
ATOM      8  C   UNL     1       4.846   4.809  17.746  0.00  0.00    +0.000 C 
ENDROOT
BRANCH   1   9
ATOM      9  C   UNL     1       7.256   4.455  16.070  0.00  0.00    +0.000 C 
BRANCH   9  10
ATOM     10  C   UNL     1       7.137   4.392  14.548  0.00  0.00    +0.000 C 
BRANCH  10  11
ATOM     11  C   UNL     1       5.895   3.626  14.076  0.00  0.00    +0.000 C 
BRANCH  11  13
ATOM     12  O   UNL     1       6.851   3.181  11.890  0.00  0.00    +0.000 OA
ATOM     13  C   UNL     1       5.869   3.410  12.579  0.00  0.00    +0.000 C 
BRANCH  13  14
ATOM     14  O   UNL     1       4.624   3.484  12.055  0.00  0.00    +0.000 OA
ATOM     15  H   UNL     1       4.604   3.737  11.112  0.00  0.00    +0.000 HD
ENDBRANCH  13  14
ENDBRANCH  11  13
ENDBRANCH  10  11
ENDBRANCH   9  10
ENDBRANCH   1   9
BRANCH   6  16
ATOM     16  C   UNL     1       2.746   6.371  19.419  0.00  0.00    +0.000 C 
BRANCH  16  17
ATOM     17  C   UNL     1       1.944   7.594  19.891  0.00  0.00    +0.000 A 
ATOM     18  C   UNL     1       1.367   7.634  21.171  0.00  0.00    +0.000 A 
ATOM     19  C   UNL     1       0.510   8.663  21.543  0.00  0.00    +0.000 A 
ATOM     20  C   UNL     1       0.191   9.665  20.635  0.00  0.00    +0.000 A 
ATOM     21  C   UNL     1       0.758   9.651  19.360  0.00  0.00    +0.000 A 
ATOM     22  C   UNL     1       1.640   8.630  18.994  0.00  0.00    +0.000 A 
ENDBRANCH  16  17
BRANCH  16  23
ATOM     23  C   UNL     1       2.207   5.056  20.012  0.00  0.00    +0.000 A 
ATOM     24  C   UNL     1       1.186   4.347  19.346  0.00  0.00    +0.000 A 
ATOM     25  C   UNL     1       0.715   3.122  19.836  0.00  0.00    +0.000 A 
ATOM     26  C   UNL     1       1.264   2.577  20.993  0.00  0.00    +0.000 A 
ATOM     27  C   UNL     1       2.247   3.276  21.684  0.00  0.00    +0.000 A 
ATOM     28  C   UNL     1       2.699   4.511  21.209  0.00  0.00    +0.000 A 
ENDBRANCH  16  23
ENDBRANCH   6  16
TORSDOF 8
ENDMDL
MODEL 5
REMARK VINA RESULT:      -7.5      1.306      4.088
REMARK  Name = 
REMARK  8 active torsions:
REMARK  status: ('A' for Active; 'I' for Inactive)
REMARK    1  A    between atoms: C_2  and  O_3
REMARK    2  A    between atoms: C_2  and  C_4
REMARK    3  A    between atoms: C_4  and  C_5
REMARK    4  A    between atoms: C_5  and  C_6
REMARK    5  A    between atoms: C_6  and  C_7
REMARK    6  A    between atoms: N_12  and  C_13
REMARK    7  A    between atoms: C_13  and  C_14
REMARK    8  A    between atoms: C_13  and  C_20
REMARK                            x       y       z     vdW  Elec       q    Type
REMARK                         _______ _______ _______ _____ _____    ______ ____
ROOT
ATOM      1  C   UNL     1       6.791   5.709  16.554  0.00  0.00    +0.000 C 
ATOM      2  O   UNL     1       7.519   6.674  16.310  0.00  0.00    +0.000 OA
ATOM      3  N   UNL     1       5.647   5.830  17.316  0.00  0.00    +0.000 N 
ATOM      4  C   UNL     1       5.242   7.157  17.790  0.00  0.00    +0.000 C 
ATOM      5  C   UNL     1       3.756   7.420  17.459  0.00  0.00    +0.000 C 
ATOM      6  N   UNL     1       2.815   6.357  17.929  0.00  0.00    +0.000 NA
ATOM      7  C   UNL     1       3.288   5.081  17.351  0.00  0.00    +0.000 C 
ATOM      8  C   UNL     1       4.744   4.736  17.702  0.00  0.00    +0.000 C 
ENDROOT
BRANCH   1   9
ATOM      9  C   UNL     1       7.116   4.339  15.980  0.00  0.00    +0.000 C 
BRANCH   9  10
ATOM     10  C   UNL     1       7.090   4.322  14.452  0.00  0.00    +0.000 C 
BRANCH  10  11
ATOM     11  C   UNL     1       5.710   3.974  13.880  0.00  0.00    +0.000 C 
BRANCH  11  13
ATOM     12  O   UNL     1       6.799   3.083  11.903  0.00  0.00    +0.000 OA
ATOM     13  C   UNL     1       5.775   3.436  12.468  0.00  0.00    +0.000 C 
BRANCH  13  14
ATOM     14  O   UNL     1       4.564   3.368  11.871  0.00  0.00    +0.000 OA
ATOM     15  H   UNL     1       3.907   3.994  12.231  0.00  0.00    +0.000 HD
ENDBRANCH  13  14
ENDBRANCH  11  13
ENDBRANCH  10  11
ENDBRANCH   9  10
ENDBRANCH   1   9
BRANCH   6  16
ATOM     16  C   UNL     1       2.711   6.334  19.423  0.00  0.00    +0.000 C 
BRANCH  16  17
ATOM     17  C   UNL     1       1.883   7.532  19.912  0.00  0.00    +0.000 A 
ATOM     18  C   UNL     1       1.583   8.605  19.056  0.00  0.00    +0.000 A 
ATOM     19  C   UNL     1       0.975   9.760  19.534  0.00  0.00    +0.000 A 
ATOM     20  C   UNL     1       0.674   9.879  20.886  0.00  0.00    +0.000 A 
ATOM     21  C   UNL     1       0.957   8.824  21.754  0.00  0.00    +0.000 A 
ATOM     22  C   UNL     1       1.545   7.652  21.269  0.00  0.00    +0.000 A 
ENDBRANCH  16  17
BRANCH  16  23
ATOM     23  C   UNL     1       2.219   5.002  20.021  0.00  0.00    +0.000 A 
ATOM     24  C   UNL     1       2.946   4.383  21.058  0.00  0.00    +0.000 A 
ATOM     25  C   UNL     1       2.492   3.199  21.655  0.00  0.00    +0.000 A 
ATOM     26  C   UNL     1       1.299   2.620  21.235  0.00  0.00    +0.000 A 
ATOM     27  C   UNL     1       0.585   3.196  20.191  0.00  0.00    +0.000 A 
ATOM     28  C   UNL     1       1.050   4.363  19.577  0.00  0.00    +0.000 A 
ENDBRANCH  16  23
ENDBRANCH   6  16
TORSDOF 8
ENDMDL
MODEL 6
REMARK VINA RESULT:      -7.4      0.534      1.436
REMARK  Name = 
REMARK  8 active torsions:
REMARK  status: ('A' for Active; 'I' for Inactive)
REMARK    1  A    between atoms: C_2  and  O_3
REMARK    2  A    between atoms: C_2  and  C_4
REMARK    3  A    between atoms: C_4  and  C_5
REMARK    4  A    between atoms: C_5  and  C_6
REMARK    5  A    between atoms: C_6  and  C_7
REMARK    6  A    between atoms: N_12  and  C_13
REMARK    7  A    between atoms: C_13  and  C_14
REMARK    8  A    between atoms: C_13  and  C_20
REMARK                            x       y       z     vdW  Elec       q    Type
REMARK                         _______ _______ _______ _____ _____    ______ ____
ROOT
ATOM      1  C   UNL     1       6.205   4.076  15.237  0.00  0.00    +0.000 C 
ATOM      2  O   UNL     1       6.521   2.890  15.355  0.00  0.00    +0.000 OA
ATOM      3  N   UNL     1       5.319   4.686  16.102  0.00  0.00    +0.000 N 
ATOM      4  C   UNL     1       4.793   3.925  17.240  0.00  0.00    +0.000 C 
ATOM      5  C   UNL     1       4.955   4.727  18.550  0.00  0.00    +0.000 C 
ATOM      6  N   UNL     1       4.391   6.112  18.507  0.00  0.00    +0.000 NA
ATOM      7  C   UNL     1       5.027   6.797  17.360  0.00  0.00    +0.000 C 
ATOM      8  C   UNL     1       4.843   6.074  16.017  0.00  0.00    +0.000 C 
ENDROOT
BRANCH   1   9
ATOM      9  C   UNL     1       6.821   4.929  14.140  0.00  0.00    +0.000 C 
BRANCH   9  10
ATOM     10  C   UNL     1       6.206   4.655  12.768  0.00  0.00    +0.000 C 
BRANCH  10  11
ATOM     11  C   UNL     1       6.699   3.344  12.143  0.00  0.00    +0.000 C 
BRANCH  11  13
ATOM     12  O   UNL     1       4.438   2.860  11.404  0.00  0.00    +0.000 OA
ATOM     13  C   UNL     1       5.571   2.469  11.640  0.00  0.00    +0.000 C 
BRANCH  13  14
ATOM     14  O   UNL     1       5.940   1.181  11.461  0.00  0.00    +0.000 OA
ATOM     15  H   UNL     1       5.697   0.591  12.200  0.00  0.00    +0.000 HD
ENDBRANCH  13  14
ENDBRANCH  11  13
ENDBRANCH  10  11
ENDBRANCH   9  10
ENDBRANCH   1   9
BRANCH   6  16
ATOM     16  C   UNL     1       2.895   6.096  18.437  0.00  0.00    +0.000 C 
BRANCH  16  17
ATOM     17  C   UNL     1       2.342   4.922  19.259  0.00  0.00    +0.000 A 
ATOM     18  C   UNL     1       1.419   4.019  18.705  0.00  0.00    +0.000 A 
ATOM     19  C   UNL     1       0.797   3.054  19.489  0.00  0.00    +0.000 A 
ATOM     20  C   UNL     1       1.065   2.984  20.851  0.00  0.00    +0.000 A 
ATOM     21  C   UNL     1       1.983   3.865  21.421  0.00  0.00    +0.000 A 
ATOM     22  C   UNL     1       2.629   4.819  20.629  0.00  0.00    +0.000 A 
ENDBRANCH  16  17
BRANCH  16  23
ATOM     23  C   UNL     1       2.212   7.430  18.793  0.00  0.00    +0.000 A 
ATOM     24  C   UNL     1       1.828   7.694  20.124  0.00  0.00    +0.000 A 
ATOM     25  C   UNL     1       1.254   8.920  20.483  0.00  0.00    +0.000 A 
ATOM     26  C   UNL     1       1.063   9.908  19.522  0.00  0.00    +0.000 A 
ATOM     27  C   UNL     1       1.403   9.656  18.199  0.00  0.00    +0.000 A 
ATOM     28  C   UNL     1       1.953   8.423  17.835  0.00  0.00    +0.000 A 
ENDBRANCH  16  23
ENDBRANCH   6  16
TORSDOF 8
ENDMDL
MODEL 7
REMARK VINA RESULT:      -7.3      4.295      8.337
REMARK  Name = 
REMARK  8 active torsions:
REMARK  status: ('A' for Active; 'I' for Inactive)
REMARK    1  A    between atoms: C_2  and  O_3
REMARK    2  A    between atoms: C_2  and  C_4
REMARK    3  A    between atoms: C_4  and  C_5
REMARK    4  A    between atoms: C_5  and  C_6
REMARK    5  A    between atoms: C_6  and  C_7
REMARK    6  A    between atoms: N_12  and  C_13
REMARK    7  A    between atoms: C_13  and  C_14
REMARK    8  A    between atoms: C_13  and  C_20
REMARK                            x       y       z     vdW  Elec       q    Type
REMARK                         _______ _______ _______ _____ _____    ______ ____
ROOT
ATOM      1  C   UNL     1       1.456   8.547  19.996  0.00  0.00    +0.000 C 
ATOM      2  O   UNL     1       1.220   9.669  19.542  0.00  0.00    +0.000 OA
ATOM      3  N   UNL     1       2.148   7.597  19.274  0.00  0.00    +0.000 N 
ATOM      4  C   UNL     1       2.686   7.953  17.957  0.00  0.00    +0.000 C 
ATOM      5  C   UNL     1       4.177   7.560  17.856  0.00  0.00    +0.000 C 
ATOM      6  N   UNL     1       4.471   6.136  18.204  0.00  0.00    +0.000 NA
ATOM      7  C   UNL     1       3.934   5.907  19.563  0.00  0.00    +0.000 C 
ATOM      8  C   UNL     1       2.437   6.222  19.705  0.00  0.00    +0.000 C 
ENDROOT
BRANCH   1   9
ATOM      9  C   UNL     1       1.017   8.182  21.405  0.00  0.00    +0.000 C 
BRANCH   9  10
ATOM     10  C   UNL     1      -0.387   8.690  21.733  0.00  0.00    +0.000 C 
BRANCH  10  11
ATOM     11  C   UNL     1      -0.389   9.806  22.784  0.00  0.00    +0.000 C 
BRANCH  11  13
ATOM     12  O   UNL     1      -1.631  11.759  22.053  0.00  0.00    +0.000 OA
ATOM     13  C   UNL     1      -0.561  11.184  22.182  0.00  0.00    +0.000 C 
BRANCH  13  14
ATOM     14  O   UNL     1       0.608  11.743  21.796  0.00  0.00    +0.000 OA
ATOM     15  H   UNL     1       0.701  11.844  20.830  0.00  0.00    +0.000 HD
ENDBRANCH  13  14
ENDBRANCH  11  13
ENDBRANCH  10  11
ENDBRANCH   9  10
ENDBRANCH   1   9
BRANCH   6  16
ATOM     16  C   UNL     1       3.921   5.193  17.179  0.00  0.00    +0.000 C 
BRANCH  16  17
ATOM     17  C   UNL     1       5.019   4.805  16.177  0.00  0.00    +0.000 A 
ATOM     18  C   UNL     1       6.371   5.082  16.439  0.00  0.00    +0.000 A 
ATOM     19  C   UNL     1       7.348   4.880  15.471  0.00  0.00    +0.000 A 
ATOM     20  C   UNL     1       6.993   4.417  14.209  0.00  0.00    +0.000 A 
ATOM     21  C   UNL     1       5.658   4.128  13.929  0.00  0.00    +0.000 A 
ATOM     22  C   UNL     1       4.678   4.307  14.910  0.00  0.00    +0.000 A 
ENDBRANCH  16  17
BRANCH  16  23
ATOM     23  C   UNL     1       3.191   3.962  17.750  0.00  0.00    +0.000 A 
ATOM     24  C   UNL     1       3.932   2.880  18.269  0.00  0.00    +0.000 A 
ATOM     25  C   UNL     1       3.292   1.774  18.842  0.00  0.00    +0.000 A 
ATOM     26  C   UNL     1       1.903   1.732  18.918  0.00  0.00    +0.000 A 
ATOM     27  C   UNL     1       1.154   2.773  18.382  0.00  0.00    +0.000 A 
ATOM     28  C   UNL     1       1.791   3.866  17.786  0.00  0.00    +0.000 A 
ENDBRANCH  16  23
ENDBRANCH   6  16
TORSDOF 8
ENDMDL
MODEL 8
REMARK VINA RESULT:      -7.3      4.412      8.507
REMARK  Name = 
REMARK  8 active torsions:
REMARK  status: ('A' for Active; 'I' for Inactive)
REMARK    1  A    between atoms: C_2  and  O_3
REMARK    2  A    between atoms: C_2  and  C_4
REMARK    3  A    between atoms: C_4  and  C_5
REMARK    4  A    between atoms: C_5  and  C_6
REMARK    5  A    between atoms: C_6  and  C_7
REMARK    6  A    between atoms: N_12  and  C_13
REMARK    7  A    between atoms: C_13  and  C_14
REMARK    8  A    between atoms: C_13  and  C_20
REMARK                            x       y       z     vdW  Elec       q    Type
REMARK                         _______ _______ _______ _____ _____    ______ ____
ROOT
ATOM      1  C   UNL     1       1.348   8.551  20.044  0.00  0.00    +0.000 C 
ATOM      2  O   UNL     1       1.102   9.683  19.619  0.00  0.00    +0.000 OA
ATOM      3  N   UNL     1       2.069   7.634  19.306  0.00  0.00    +0.000 N 
ATOM      4  C   UNL     1       2.624   8.038  18.010  0.00  0.00    +0.000 C 
ATOM      5  C   UNL     1       4.122   7.672  17.925  0.00  0.00    +0.000 C 
ATOM      6  N   UNL     1       4.433   6.243  18.235  0.00  0.00    +0.000 NA
ATOM      7  C   UNL     1       3.876   5.965  19.576  0.00  0.00    +0.000 C 
ATOM      8  C   UNL     1       2.371   6.252  19.701  0.00  0.00    +0.000 C 
ENDROOT
BRANCH   1   9
ATOM      9  C   UNL     1       0.890   8.137  21.433  0.00  0.00    +0.000 C 
BRANCH   9  10
ATOM     10  C   UNL     1       1.088   9.242  22.470  0.00  0.00    +0.000 C 
BRANCH  10  11
ATOM     11  C   UNL     1      -0.214   9.643  23.173  0.00  0.00    +0.000 C 
BRANCH  11  13
ATOM     12  O   UNL     1      -1.750  11.521  23.148  0.00  0.00    +0.000 OA
ATOM     13  C   UNL     1      -0.714  11.009  22.756  0.00  0.00    +0.000 C 
BRANCH  13  14
ATOM     14  O   UNL     1       0.118  11.635  21.893  0.00  0.00    +0.000 OA
ATOM     15  H   UNL     1      -0.179  11.606  20.963  0.00  0.00    +0.000 HD
ENDBRANCH  13  14
ENDBRANCH  11  13
ENDBRANCH  10  11
ENDBRANCH   9  10
ENDBRANCH   1   9
BRANCH   6  16
ATOM     16  C   UNL     1       3.917   5.323  17.172  0.00  0.00    +0.000 C 
BRANCH  16  17
ATOM     17  C   UNL     1       4.997   5.092  16.104  0.00  0.00    +0.000 A 
ATOM     18  C   UNL     1       4.690   4.470  14.883  0.00  0.00    +0.000 A 
ATOM     19  C   UNL     1       5.689   4.116  13.984  0.00  0.00    +0.000 A 
ATOM     20  C   UNL     1       7.022   4.354  14.295  0.00  0.00    +0.000 A 
ATOM     21  C   UNL     1       7.351   4.977  15.499  0.00  0.00    +0.000 A 
ATOM     22  C   UNL     1       6.345   5.358  16.392  0.00  0.00    +0.000 A 
ENDBRANCH  16  17
BRANCH  16  23
ATOM     23  C   UNL     1       3.316   4.002  17.689  0.00  0.00    +0.000 A 
ATOM     24  C   UNL     1       4.163   2.976  18.157  0.00  0.00    +0.000 A 
ATOM     25  C   UNL     1       3.639   1.788  18.681  0.00  0.00    +0.000 A 
ATOM     26  C   UNL     1       2.262   1.606  18.758  0.00  0.00    +0.000 A 
ATOM     27  C   UNL     1       1.410   2.590  18.271  0.00  0.00    +0.000 A 
ATOM     28  C   UNL     1       1.932   3.767  17.724  0.00  0.00    +0.000 A 
ENDBRANCH  16  23
ENDBRANCH   6  16
TORSDOF 8
ENDMDL
MODEL 9
REMARK VINA RESULT:      -7.1      1.491      4.020
REMARK  Name = 
REMARK  8 active torsions:
REMARK  status: ('A' for Active; 'I' for Inactive)
REMARK    1  A    between atoms: C_2  and  O_3
REMARK    2  A    between atoms: C_2  and  C_4
REMARK    3  A    between atoms: C_4  and  C_5
REMARK    4  A    between atoms: C_5  and  C_6
REMARK    5  A    between atoms: C_6  and  C_7
REMARK    6  A    between atoms: N_12  and  C_13
REMARK    7  A    between atoms: C_13  and  C_14
REMARK    8  A    between atoms: C_13  and  C_20
REMARK                            x       y       z     vdW  Elec       q    Type
REMARK                         _______ _______ _______ _____ _____    ______ ____
ROOT
ATOM      1  C   UNL     1       6.724   5.443  16.508  0.00  0.00    +0.000 C 
ATOM      2  O   UNL     1       7.466   6.372  16.183  0.00  0.00    +0.000 OA
ATOM      3  N   UNL     1       5.601   5.642  17.285  0.00  0.00    +0.000 N 
ATOM      4  C   UNL     1       5.236   7.007  17.676  0.00  0.00    +0.000 C 
ATOM      5  C   UNL     1       3.749   7.281  17.360  0.00  0.00    +0.000 C 
ATOM      6  N   UNL     1       2.796   6.275  17.923  0.00  0.00    +0.000 NA
ATOM      7  C   UNL     1       3.228   4.951  17.423  0.00  0.00    +0.000 C 
ATOM      8  C   UNL     1       4.684   4.598  17.765  0.00  0.00    +0.000 C 
ENDROOT
BRANCH   1   9
ATOM      9  C   UNL     1       7.006   4.030  16.023  0.00  0.00    +0.000 C 
BRANCH   9  10
ATOM     10  C   UNL     1       6.421   3.758  14.637  0.00  0.00    +0.000 C 
BRANCH  10  11
ATOM     11  C   UNL     1       6.331   5.018  13.767  0.00  0.00    +0.000 C 
BRANCH  11  13
ATOM     12  O   UNL     1       8.317   5.924  12.707  0.00  0.00    +0.000 OA
ATOM     13  C   UNL     1       7.423   5.092  12.723  0.00  0.00    +0.000 C 
BRANCH  13  14
ATOM     14  O   UNL     1       7.326   4.122  11.785  0.00  0.00    +0.000 OA
ATOM     15  H   UNL     1       7.304   3.217  12.151  0.00  0.00    +0.000 HD
ENDBRANCH  13  14
ENDBRANCH  11  13
ENDBRANCH  10  11
ENDBRANCH   9  10
ENDBRANCH   1   9
BRANCH   6  16
ATOM     16  C   UNL     1       2.727   6.356  19.416  0.00  0.00    +0.000 C 
BRANCH  16  17
ATOM     17  C   UNL     1       1.960   7.617  19.840  0.00  0.00    +0.000 A 
ATOM     18  C   UNL     1       1.409   7.734  21.127  0.00  0.00    +0.000 A 
ATOM     19  C   UNL     1       0.581   8.799  21.463  0.00  0.00    +0.000 A 
ATOM     20  C   UNL     1       0.264   9.761  20.511  0.00  0.00    +0.000 A 
ATOM     21  C   UNL     1       0.805   9.670  19.229  0.00  0.00    +0.000 A 
ATOM     22  C   UNL     1       1.659   8.613  18.898  0.00  0.00    +0.000 A 
ENDBRANCH  16  17
BRANCH  16  23
ATOM     23  C   UNL     1       2.197   5.089  20.113  0.00  0.00    +0.000 A 
ATOM     24  C   UNL     1       1.043   4.443  19.622  0.00  0.00    +0.000 A 
ATOM     25  C   UNL     1       0.572   3.260  20.206  0.00  0.00    +0.000 A 
ATOM     26  C   UNL     1       1.250   2.694  21.282  0.00  0.00    +0.000 A 
ATOM     27  C   UNL     1       2.369   3.333  21.802  0.00  0.00    +0.000 A 
ATOM     28  C   UNL     1       2.825   4.528  21.237  0.00  0.00    +0.000 A 
ENDBRANCH  16  23
ENDBRANCH   6  16
TORSDOF 8
ENDMDL
