MODEL 1
REMARK VINA RESULT:      -7.8      0.000      0.000
REMARK  Name = 
REMARK  6 active torsions:
REMARK  status: ('A' for Active; 'I' for Inactive)
REMARK    1  A    between atoms: C_1  and  O_2
REMARK    2  A    between atoms: O_2  and  C_3
REMARK    3  A    between atoms: C_9  and  C_10
REMARK    4  A    between atoms: C_10  and  N_12
REMARK    5  A    between atoms: N_12  and  C_13
REMARK    6  A    between atoms: C_17  and  C_18
REMARK                            x       y       z     vdW  Elec       q    Type
REMARK                         _______ _______ _______ _____ _____    ______ ____
ROOT
ATOM      1  N   UNL     1       3.527   5.064  19.257  0.00  0.00    +0.000 N 
ATOM      2  H   UNL     1       3.993   4.838  20.132  0.00  0.00    +0.000 HD
ENDROOT
BRANCH   1   3
ATOM      3  C   UNL     1       2.937   6.350  19.162  0.00  0.00    +0.000 A 
ATOM      4  C   UNL     1       3.104   7.105  18.002  0.00  0.00    +0.000 A 
ATOM      5  C   UNL     1       2.445   8.337  17.869  0.00  0.00    +0.000 A 
ATOM      6  C   UNL     1       1.658   8.829  18.911  0.00  0.00    +0.000 A 
ATOM      7  C   UNL     1       1.548   8.120  20.112  0.00  0.00    +0.000 A 
ATOM      8  C   UNL     1       2.215   6.889  20.231  0.00  0.00    +0.000 A 
BRANCH   7   9
ATOM      9  C   UNL     1       0.708   8.628  21.255  0.00  0.00    +0.000 C 
ATOM     10  F   UNL     1       0.243   9.894  21.051  0.00  0.00    +0.000 F 
ATOM     11  F   UNL     1      -0.394   7.862  21.482  0.00  0.00    +0.000 F 
ATOM     12  F   UNL     1       1.385   8.670  22.437  0.00  0.00    +0.000 F 
ENDBRANCH   7   9
ENDBRANCH   1   3
BRANCH   1  13
ATOM     13  C   UNL     1       3.676   4.133  18.223  0.00  0.00    +0.000 C 
ATOM     14  S   UNL     1       2.458   3.013  17.830  0.00  0.00    +0.000 S 
BRANCH  13  21
ATOM     15  C   UNL     1       6.207   4.585  17.901  0.00  0.00    +0.000 A 
ATOM     16  C   UNL     1       7.330   4.638  17.048  0.00  0.00    +0.000 A 
ATOM     17  C   UNL     1       7.207   4.403  15.680  0.00  0.00    +0.000 A 
ATOM     18  C   UNL     1       5.971   4.082  15.161  0.00  0.00    +0.000 A 
ATOM     19 CL   UNL     1       5.804   3.793  13.471  0.00  0.00    +0.000 Cl
ATOM     20  C   UNL     1       4.852   3.982  15.992  0.00  0.00    +0.000 A 
ATOM     21  C   UNL     1       4.944   4.246  17.384  0.00  0.00    +0.000 A 
BRANCH  15  23
ATOM     22  C   UNL     1       7.467   5.660  19.576  0.00  0.00    +0.000 C 
ATOM     23  O   UNL     1       6.348   4.836  19.249  0.00  0.00    +0.000 OA
ENDBRANCH  15  23
ENDBRANCH  13  21
ENDBRANCH   1  13
TORSDOF 5
ENDMDL
MODEL 2
REMARK VINA RESULT:      -7.5      5.351      7.564
REMARK  Name = 
REMARK  6 active torsions:
REMARK  status: ('A' for Active; 'I' for Inactive)
REMARK    1  A    between atoms: C_1  and  O_2
REMARK    2  A    between atoms: O_2  and  C_3
REMARK    3  A    between atoms: C_9  and  C_10
REMARK    4  A    between atoms: C_10  and  N_12
REMARK    5  A    between atoms: N_12  and  C_13
REMARK    6  A    between atoms: C_17  and  C_18
REMARK                            x       y       z     vdW  Elec       q    Type
REMARK                         _______ _______ _______ _____ _____    ______ ____
ROOT
ATOM      1  N   UNL     1       6.378   3.892  16.259  0.00  0.00    +0.000 N 
ATOM      2  H   UNL     1       6.389   2.921  16.562  0.00  0.00    +0.000 HD
ENDROOT
BRANCH   1   3
ATOM      3  C   UNL     1       6.500   4.126  14.866  0.00  0.00    +0.000 A 
ATOM      4  C   UNL     1       7.567   4.881  14.381  0.00  0.00    +0.000 A 
ATOM      5  C   UNL     1       7.741   5.037  12.997  0.00  0.00    +0.000 A 
ATOM      6  C   UNL     1       6.827   4.474  12.107  0.00  0.00    +0.000 A 
ATOM      7  C   UNL     1       5.707   3.783  12.582  0.00  0.00    +0.000 A 
ATOM      8  C   UNL     1       5.544   3.638  13.970  0.00  0.00    +0.000 A 
BRANCH   7   9
ATOM      9  C   UNL     1       4.701   3.168  11.643  0.00  0.00    +0.000 C 
ATOM     10  F   UNL     1       4.459   3.939  10.544  0.00  0.00    +0.000 F 
ATOM     11  F   UNL     1       5.097   1.957  11.165  0.00  0.00    +0.000 F 
ATOM     12  F   UNL     1       3.485   2.963  12.224  0.00  0.00    +0.000 F 
ENDBRANCH   7   9
ENDBRANCH   1   3
BRANCH   1  13
ATOM     13  C   UNL     1       6.082   4.840  17.244  0.00  0.00    +0.000 C 
ATOM     14  S   UNL     1       7.291   5.765  18.003  0.00  0.00    +0.000 S 
BRANCH  13  21
ATOM     15  C   UNL     1       3.634   4.076  17.618  0.00  0.00    +0.000 A 
ATOM     16  C   UNL     1       2.294   4.404  17.910  0.00  0.00    +0.000 A 
ATOM     17  C   UNL     1       1.894   5.731  18.069  0.00  0.00    +0.000 A 
ATOM     18  C   UNL     1       2.836   6.733  17.971  0.00  0.00    +0.000 A 
ATOM     19 CL   UNL     1       2.356   8.376  18.162  0.00  0.00    +0.000 Cl
ATOM     20  C   UNL     1       4.178   6.429  17.724  0.00  0.00    +0.000 A 
ATOM     21  C   UNL     1       4.604   5.090  17.527  0.00  0.00    +0.000 A 
BRANCH  15  23
ATOM     22  C   UNL     1       3.318   1.844  18.302  0.00  0.00    +0.000 C 
ATOM     23  O   UNL     1       4.004   2.760  17.448  0.00  0.00    +0.000 OA
ENDBRANCH  15  23
ENDBRANCH  13  21
ENDBRANCH   1  13
TORSDOF 5
ENDMDL
MODEL 3
REMARK VINA RESULT:      -7.4      4.926      7.049
REMARK  Name = 
REMARK  6 active torsions:
REMARK  status: ('A' for Active; 'I' for Inactive)
REMARK    1  A    between atoms: C_1  and  O_2
REMARK    2  A    between atoms: O_2  and  C_3
REMARK    3  A    between atoms: C_9  and  C_10
REMARK    4  A    between atoms: C_10  and  N_12
REMARK    5  A    between atoms: N_12  and  C_13
REMARK    6  A    between atoms: C_17  and  C_18
REMARK                            x       y       z     vdW  Elec       q    Type
REMARK                         _______ _______ _______ _____ _____    ______ ____
ROOT
ATOM      1  N   UNL     1       4.929   3.419  17.806  0.00  0.00    +0.000 N 
ATOM      2  H   UNL     1       5.451   2.799  18.420  0.00  0.00    +0.000 HD
ENDROOT
BRANCH   1   3
ATOM      3  C   UNL     1       5.644   4.003  16.730  0.00  0.00    +0.000 A 
ATOM      4  C   UNL     1       6.604   4.982  16.986  0.00  0.00    +0.000 A 
ATOM      5  C   UNL     1       7.377   5.494  15.934  0.00  0.00    +0.000 A 
ATOM      6  C   UNL     1       7.161   5.058  14.626  0.00  0.00    +0.000 A 
ATOM      7  C   UNL     1       6.147   4.136  14.344  0.00  0.00    +0.000 A 
ATOM      8  C   UNL     1       5.379   3.634  15.408  0.00  0.00    +0.000 A 
BRANCH   7   9
ATOM      9  C   UNL     1       5.890   3.649  12.942  0.00  0.00    +0.000 C 
ATOM     10  F   UNL     1       6.127   2.314  12.791  0.00  0.00    +0.000 F 
ATOM     11  F   UNL     1       4.603   3.843  12.544  0.00  0.00    +0.000 F 
ATOM     12  F   UNL     1       6.668   4.269  12.010  0.00  0.00    +0.000 F 
ENDBRANCH   7   9
ENDBRANCH   1   3
BRANCH   1  13
ATOM     13  C   UNL     1       3.548   3.476  18.022  0.00  0.00    +0.000 C 
ATOM     14  S   UNL     1       2.515   2.182  17.632  0.00  0.00    +0.000 S 
BRANCH  13  21
ATOM     15  C   UNL     1       2.596   4.741  20.073  0.00  0.00    +0.000 A 
ATOM     16  C   UNL     1       2.149   5.947  20.653  0.00  0.00    +0.000 A 
ATOM     17  C   UNL     1       2.076   7.122  19.907  0.00  0.00    +0.000 A 
ATOM     18  C   UNL     1       2.480   7.108  18.588  0.00  0.00    +0.000 A 
ATOM     19 CL   UNL     1       2.391   8.552  17.653  0.00  0.00    +0.000 Cl
ATOM     20  C   UNL     1       2.965   5.935  18.004  0.00  0.00    +0.000 A 
ATOM     21  C   UNL     1       3.021   4.719  18.733  0.00  0.00    +0.000 A 
BRANCH  15  23
ATOM     22  C   UNL     1       1.364   3.062  21.173  0.00  0.00    +0.000 C 
ATOM     23  O   UNL     1       2.645   3.587  20.825  0.00  0.00    +0.000 OA
ENDBRANCH  15  23
ENDBRANCH  13  21
ENDBRANCH   1  13
TORSDOF 5
ENDMDL
MODEL 4
REMARK VINA RESULT:      -7.1      0.818      1.141
REMARK  Name = 
REMARK  6 active torsions:
REMARK  status: ('A' for Active; 'I' for Inactive)
REMARK    1  A    between atoms: C_1  and  O_2
REMARK    2  A    between atoms: O_2  and  C_3
REMARK    3  A    between atoms: C_9  and  C_10
REMARK    4  A    between atoms: C_10  and  N_12
REMARK    5  A    between atoms: N_12  and  C_13
REMARK    6  A    between atoms: C_17  and  C_18
REMARK                            x       y       z     vdW  Elec       q    Type
REMARK                         _______ _______ _______ _____ _____    ______ ____
ROOT
ATOM      1  N   UNL     1       2.819   4.436  18.808  0.00  0.00    +0.000 N 
ATOM      2  H   UNL     1       1.984   3.857  18.848  0.00  0.00    +0.000 HD
ENDROOT
BRANCH   1   3
ATOM      3  C   UNL     1       2.624   5.840  18.839  0.00  0.00    +0.000 A 
ATOM      4  C   UNL     1       3.061   6.624  17.772  0.00  0.00    +0.000 A 
ATOM      5  C   UNL     1       2.788   8.000  17.758  0.00  0.00    +0.000 A 
ATOM      6  C   UNL     1       2.116   8.594  18.827  0.00  0.00    +0.000 A 
ATOM      7  C   UNL     1       1.744   7.833  19.941  0.00  0.00    +0.000 A 
ATOM      8  C   UNL     1       2.028   6.457  19.942  0.00  0.00    +0.000 A 
BRANCH   7   9
ATOM      9  C   UNL     1       1.021   8.448  21.111  0.00  0.00    +0.000 C 
ATOM     10  F   UNL     1       1.793   8.521  22.234  0.00  0.00    +0.000 F 
ATOM     11  F   UNL     1       0.605   9.720  20.866  0.00  0.00    +0.000 F 
ATOM     12  F   UNL     1      -0.093   7.753  21.475  0.00  0.00    +0.000 F 
ENDBRANCH   7   9
ENDBRANCH   1   3
BRANCH   1  13
ATOM     13  C   UNL     1       4.041   3.758  18.891  0.00  0.00    +0.000 C 
ATOM     14  S   UNL     1       4.280   2.448  19.948  0.00  0.00    +0.000 S 
BRANCH  13  21
ATOM     15  C   UNL     1       6.313   4.834  18.258  0.00  0.00    +0.000 A 
ATOM     16  C   UNL     1       7.266   5.160  17.271  0.00  0.00    +0.000 A 
ATOM     17  C   UNL     1       7.032   4.885  15.924  0.00  0.00    +0.000 A 
ATOM     18  C   UNL     1       5.861   4.254  15.561  0.00  0.00    +0.000 A 
ATOM     19 CL   UNL     1       5.557   3.912  13.900  0.00  0.00    +0.000 Cl
ATOM     20  C   UNL     1       4.920   3.884  16.526  0.00  0.00    +0.000 A 
ATOM     21  C   UNL     1       5.121   4.179  17.899  0.00  0.00    +0.000 A 
BRANCH  15  23
ATOM     22  C   UNL     1       7.866   5.638  19.836  0.00  0.00    +0.000 C 
ATOM     23  O   UNL     1       6.557   5.129  19.582  0.00  0.00    +0.000 OA
ENDBRANCH  15  23
ENDBRANCH  13  21
ENDBRANCH   1  13
TORSDOF 5
ENDMDL
MODEL 5
REMARK VINA RESULT:      -7.1      3.771      5.940
REMARK  Name = 
REMARK  6 active torsions:
REMARK  status: ('A' for Active; 'I' for Inactive)
REMARK    1  A    between atoms: C_1  and  O_2
REMARK    2  A    between atoms: O_2  and  C_3
REMARK    3  A    between atoms: C_9  and  C_10
REMARK    4  A    between atoms: C_10  and  N_12
REMARK    5  A    between atoms: N_12  and  C_13
REMARK    6  A    between atoms: C_17  and  C_18
REMARK                            x       y       z     vdW  Elec       q    Type
REMARK                         _______ _______ _______ _____ _____    ______ ____
ROOT
ATOM      1  N   UNL     1       4.829   3.370  18.108  0.00  0.00    +0.000 N 
ATOM      2  H   UNL     1       5.256   2.558  18.547  0.00  0.00    +0.000 HD
ENDROOT
BRANCH   1   3
ATOM      3  C   UNL     1       5.675   4.180  17.309  0.00  0.00    +0.000 A 
ATOM      4  C   UNL     1       5.920   3.828  15.982  0.00  0.00    +0.000 A 
ATOM      5  C   UNL     1       6.681   4.677  15.163  0.00  0.00    +0.000 A 
ATOM      6  C   UNL     1       7.227   5.851  15.684  0.00  0.00    +0.000 A 
ATOM      7  C   UNL     1       7.056   6.175  17.034  0.00  0.00    +0.000 A 
ATOM      8  C   UNL     1       6.295   5.314  17.842  0.00  0.00    +0.000 A 
BRANCH   7   9
ATOM      9  C   UNL     1       7.637   7.434  17.623  0.00  0.00    +0.000 C 
ATOM     10  F   UNL     1       6.687   8.364  17.933  0.00  0.00    +0.000 F 
ATOM     11  F   UNL     1       8.323   7.210  18.777  0.00  0.00    +0.000 F 
ATOM     12  F   UNL     1       8.508   8.064  16.785  0.00  0.00    +0.000 F 
ENDBRANCH   7   9
ENDBRANCH   1   3
BRANCH   1  13
ATOM     13  C   UNL     1       3.439   3.475  18.229  0.00  0.00    +0.000 C 
ATOM     14  S   UNL     1       2.393   2.213  17.776  0.00  0.00    +0.000 S 
BRANCH  13  21
ATOM     15  C   UNL     1       2.486   4.806  20.238  0.00  0.00    +0.000 A 
ATOM     16  C   UNL     1       2.034   6.029  20.776  0.00  0.00    +0.000 A 
ATOM     17  C   UNL     1       1.953   7.177  19.989  0.00  0.00    +0.000 A 
ATOM     18  C   UNL     1       2.354   7.118  18.671  0.00  0.00    +0.000 A 
ATOM     19 CL   UNL     1       2.255   8.528  17.686  0.00  0.00    +0.000 Cl
ATOM     20  C   UNL     1       2.844   5.928  18.127  0.00  0.00    +0.000 A 
ATOM     21  C   UNL     1       2.908   4.738  18.898  0.00  0.00    +0.000 A 
BRANCH  15  23
ATOM     22  C   UNL     1       1.276   3.063  21.261  0.00  0.00    +0.000 C 
ATOM     23  O   UNL     1       2.543   3.679  21.029  0.00  0.00    +0.000 OA
ENDBRANCH  15  23
ENDBRANCH  13  21
ENDBRANCH   1  13
TORSDOF 5
ENDMDL
MODEL 6
REMARK VINA RESULT:      -7.0      1.756      2.339
REMARK  Name = 
REMARK  6 active torsions:
REMARK  status: ('A' for Active; 'I' for Inactive)
REMARK    1  A    between atoms: C_1  and  O_2
REMARK    2  A    between atoms: O_2  and  C_3
REMARK    3  A    between atoms: C_9  and  C_10
REMARK    4  A    between atoms: C_10  and  N_12
REMARK    5  A    between atoms: N_12  and  C_13
REMARK    6  A    between atoms: C_17  and  C_18
REMARK                            x       y       z     vdW  Elec       q    Type
REMARK                         _______ _______ _______ _____ _____    ______ ____
ROOT
ATOM      1  N   UNL     1       3.952   4.183  19.541  0.00  0.00    +0.000 N 
ATOM      2  H   UNL     1       4.585   3.962  20.305  0.00  0.00    +0.000 HD
ENDROOT
BRANCH   1   3
ATOM      3  C   UNL     1       3.102   5.304  19.719  0.00  0.00    +0.000 A 
ATOM      4  C   UNL     1       2.329   5.409  20.875  0.00  0.00    +0.000 A 
ATOM      5  C   UNL     1       1.557   6.560  21.096  0.00  0.00    +0.000 A 
ATOM      6  C   UNL     1       1.530   7.581  20.145  0.00  0.00    +0.000 A 
ATOM      7  C   UNL     1       2.238   7.453  18.946  0.00  0.00    +0.000 A 
ATOM      8  C   UNL     1       3.003   6.293  18.736  0.00  0.00    +0.000 A 
BRANCH   7   9
ATOM      9  C   UNL     1       2.224   8.537  17.900  0.00  0.00    +0.000 C 
ATOM     10  F   UNL     1       3.144   8.336  16.913  0.00  0.00    +0.000 F 
ATOM     11  F   UNL     1       1.024   8.647  17.268  0.00  0.00    +0.000 F 
ATOM     12  F   UNL     1       2.494   9.772  18.408  0.00  0.00    +0.000 F 
ENDBRANCH   7   9
ENDBRANCH   1   3
BRANCH   1  13
ATOM     13  C   UNL     1       4.129   3.446  18.365  0.00  0.00    +0.000 C 
ATOM     14  S   UNL     1       3.102   2.158  17.940  0.00  0.00    +0.000 S 
BRANCH  13  21
ATOM     15  C   UNL     1       6.395   4.585  17.832  0.00  0.00    +0.000 A 
ATOM     16  C   UNL     1       7.364   4.969  16.882  0.00  0.00    +0.000 A 
ATOM     17  C   UNL     1       7.165   4.749  15.519  0.00  0.00    +0.000 A 
ATOM     18  C   UNL     1       6.014   4.115  15.102  0.00  0.00    +0.000 A 
ATOM     19 CL   UNL     1       5.754   3.840  13.422  0.00  0.00    +0.000 Cl
ATOM     20  C   UNL     1       5.059   3.688  16.028  0.00  0.00    +0.000 A 
ATOM     21  C   UNL     1       5.223   3.927  17.417  0.00  0.00    +0.000 A 
BRANCH  15  23
ATOM     22  C   UNL     1       7.696   5.705  19.445  0.00  0.00    +0.000 C 
ATOM     23  O   UNL     1       6.604   4.827  19.172  0.00  0.00    +0.000 OA
ENDBRANCH  15  23
ENDBRANCH  13  21
ENDBRANCH   1  13
TORSDOF 5
ENDMDL
MODEL 7
REMARK VINA RESULT:      -7.0      4.638      6.637
REMARK  Name = 
REMARK  6 active torsions:
REMARK  status: ('A' for Active; 'I' for Inactive)
REMARK    1  A    between atoms: C_1  and  O_2
REMARK    2  A    between atoms: O_2  and  C_3
REMARK    3  A    between atoms: C_9  and  C_10
REMARK    4  A    between atoms: C_10  and  N_12
REMARK    5  A    between atoms: N_12  and  C_13
REMARK    6  A    between atoms: C_17  and  C_18
REMARK                            x       y       z     vdW  Elec       q    Type
REMARK                         _______ _______ _______ _____ _____    ______ ____
ROOT
ATOM      1  N   UNL     1       5.338   3.540  19.093  0.00  0.00    +0.000 N 
ATOM      2  H   UNL     1       5.893   2.897  19.652  0.00  0.00    +0.000 HD
ENDROOT
BRANCH   1   3
ATOM      3  C   UNL     1       6.051   4.424  18.243  0.00  0.00    +0.000 A 
ATOM      4  C   UNL     1       6.800   5.462  18.795  0.00  0.00    +0.000 A 
ATOM      5  C   UNL     1       7.579   6.281  17.962  0.00  0.00    +0.000 A 
ATOM      6  C   UNL     1       7.574   6.085  16.581  0.00  0.00    +0.000 A 
ATOM      7  C   UNL     1       6.764   5.098  16.007  0.00  0.00    +0.000 A 
ATOM      8  C   UNL     1       5.987   4.289  16.853  0.00  0.00    +0.000 A 
BRANCH   7   9
ATOM      9  C   UNL     1       6.736   4.866  14.518  0.00  0.00    +0.000 C 
ATOM     10  F   UNL     1       6.672   3.544  14.188  0.00  0.00    +0.000 F 
ATOM     11  F   UNL     1       5.666   5.450  13.913  0.00  0.00    +0.000 F 
ATOM     12  F   UNL     1       7.839   5.352  13.882  0.00  0.00    +0.000 F 
ENDBRANCH   7   9
ENDBRANCH   1   3
BRANCH   1  13
ATOM     13  C   UNL     1       3.953   3.347  19.128  0.00  0.00    +0.000 C 
ATOM     14  S   UNL     1       3.242   1.831  18.830  0.00  0.00    +0.000 S 
BRANCH  13  21
ATOM     15  C   UNL     1       2.402   4.612  20.774  0.00  0.00    +0.000 A 
ATOM     16  C   UNL     1       1.671   5.773  21.100  0.00  0.00    +0.000 A 
ATOM     17  C   UNL     1       1.595   6.850  20.217  0.00  0.00    +0.000 A 
ATOM     18  C   UNL     1       2.277   6.786  19.020  0.00  0.00    +0.000 A 
ATOM     19 CL   UNL     1       2.190   8.107  17.918  0.00  0.00    +0.000 Cl
ATOM     20  C   UNL     1       3.042   5.663  18.693  0.00  0.00    +0.000 A 
ATOM     21  C   UNL     1       3.110   4.542  19.561  0.00  0.00    +0.000 A 
BRANCH  15  23
ATOM     22  C   UNL     1       1.281   2.734  21.649  0.00  0.00    +0.000 C 
ATOM     23  O   UNL     1       2.450   3.553  21.655  0.00  0.00    +0.000 OA
ENDBRANCH  15  23
ENDBRANCH  13  21
ENDBRANCH   1  13
TORSDOF 5
ENDMDL
MODEL 8
REMARK VINA RESULT:      -7.0      2.719      4.042
REMARK  Name = 
REMARK  6 active torsions:
REMARK  status: ('A' for Active; 'I' for Inactive)
REMARK    1  A    between atoms: C_1  and  O_2
REMARK    2  A    between atoms: O_2  and  C_3
REMARK    3  A    between atoms: C_9  and  C_10
REMARK    4  A    between atoms: C_10  and  N_12
REMARK    5  A    between atoms: N_12  and  C_13
REMARK    6  A    between atoms: C_17  and  C_18
REMARK                            x       y       z     vdW  Elec       q    Type
REMARK                         _______ _______ _______ _____ _____    ______ ____
ROOT
ATOM      1  N   UNL     1       5.859   3.746  18.995  0.00  0.00    +0.000 N 
ATOM      2  H   UNL     1       6.409   3.209  19.660  0.00  0.00    +0.000 HD
ENDROOT
BRANCH   1   3
ATOM      3  C   UNL     1       4.497   3.378  18.851  0.00  0.00    +0.000 A 
ATOM      4  C   UNL     1       4.119   2.505  17.832  0.00  0.00    +0.000 A 
ATOM      5  C   UNL     1       2.788   2.069  17.744  0.00  0.00    +0.000 A 
ATOM      6  C   UNL     1       1.834   2.537  18.648  0.00  0.00    +0.000 A 
ATOM      7  C   UNL     1       2.183   3.475  19.625  0.00  0.00    +0.000 A 
ATOM      8  C   UNL     1       3.518   3.906  19.699  0.00  0.00    +0.000 A 
BRANCH   7   9
ATOM      9  C   UNL     1       1.173   4.001  20.613  0.00  0.00    +0.000 C 
ATOM     10  F   UNL     1      -0.111   3.903  20.162  0.00  0.00    +0.000 F 
ATOM     11  F   UNL     1       1.200   3.337  21.800  0.00  0.00    +0.000 F 
ATOM     12  F   UNL     1       1.358   5.317  20.915  0.00  0.00    +0.000 F 
ENDBRANCH   7   9
ENDBRANCH   1   3
BRANCH   1  13
ATOM     13  C   UNL     1       6.486   4.867  18.441  0.00  0.00    +0.000 C 
ATOM     14  S   UNL     1       7.757   5.676  19.231  0.00  0.00    +0.000 S 
BRANCH  13  21
ATOM     15  C   UNL     1       5.225   6.363  16.742  0.00  0.00    +0.000 A 
ATOM     16  C   UNL     1       4.899   6.667  15.404  0.00  0.00    +0.000 A 
ATOM     17  C   UNL     1       5.347   5.868  14.353  0.00  0.00    +0.000 A 
ATOM     18  C   UNL     1       6.150   4.781  14.630  0.00  0.00    +0.000 A 
ATOM     19 CL   UNL     1       6.708   3.783  13.341  0.00  0.00    +0.000 Cl
ATOM     20  C   UNL     1       6.520   4.484  15.944  0.00  0.00    +0.000 A 
ATOM     21  C   UNL     1       6.052   5.264  17.034  0.00  0.00    +0.000 A 
BRANCH  15  23
ATOM     22  C   UNL     1       3.335   7.249  17.833  0.00  0.00    +0.000 C 
ATOM     23  O   UNL     1       4.758   7.157  17.767  0.00  0.00    +0.000 OA
ENDBRANCH  15  23
ENDBRANCH  13  21
ENDBRANCH   1  13
TORSDOF 5
ENDMDL
MODEL 9
REMARK VINA RESULT:      -6.9      1.520      2.195
REMARK  Name = 
REMARK  6 active torsions:
REMARK  status: ('A' for Active; 'I' for Inactive)
REMARK    1  A    between atoms: C_1  and  O_2
REMARK    2  A    between atoms: O_2  and  C_3
REMARK    3  A    between atoms: C_9  and  C_10
REMARK    4  A    between atoms: C_10  and  N_12
REMARK    5  A    between atoms: N_12  and  C_13
REMARK    6  A    between atoms: C_17  and  C_18
REMARK                            x       y       z     vdW  Elec       q    Type
REMARK                         _______ _______ _______ _____ _____    ______ ____
ROOT
ATOM      1  N   UNL     1       3.659   5.667  19.269  0.00  0.00    +0.000 N 
ATOM      2  H   UNL     1       4.547   5.716  19.762  0.00  0.00    +0.000 HD
ENDROOT
BRANCH   1   3
ATOM      3  C   UNL     1       2.677   6.625  19.629  0.00  0.00    +0.000 A 
ATOM      4  C   UNL     1       1.969   6.477  20.820  0.00  0.00    +0.000 A 
ATOM      5  C   UNL     1       1.063   7.471  21.223  0.00  0.00    +0.000 A 
ATOM      6  C   UNL     1       0.840   8.587  20.415  0.00  0.00    +0.000 A 
ATOM      7  C   UNL     1       1.484   8.708  19.180  0.00  0.00    +0.000 A 
ATOM      8  C   UNL     1       2.385   7.703  18.788  0.00  0.00    +0.000 A 
BRANCH   7   9
ATOM      9  C   UNL     1       1.260   9.900  18.285  0.00  0.00    +0.000 C 
ATOM     10  F   UNL     1       1.147  11.070  18.978  0.00  0.00    +0.000 F 
ATOM     11  F   UNL     1       2.273  10.093  17.398  0.00  0.00    +0.000 F 
ATOM     12  F   UNL     1       0.123   9.802  17.541  0.00  0.00    +0.000 F 
ENDBRANCH   7   9
ENDBRANCH   1   3
BRANCH   1  13
ATOM     13  C   UNL     1       3.597   4.767  18.200  0.00  0.00    +0.000 C 
ATOM     14  S   UNL     1       2.157   3.972  17.768  0.00  0.00    +0.000 S 
BRANCH  13  21
ATOM     15  C   UNL     1       6.168   4.703  17.880  0.00  0.00    +0.000 A 
ATOM     16  C   UNL     1       7.279   4.523  17.029  0.00  0.00    +0.000 A 
ATOM     17  C   UNL     1       7.112   4.302  15.663  0.00  0.00    +0.000 A 
ATOM     18  C   UNL     1       5.837   4.227  15.144  0.00  0.00    +0.000 A 
ATOM     19 CL   UNL     1       5.617   3.959  13.457  0.00  0.00    +0.000 Cl
ATOM     20  C   UNL     1       4.720   4.361  15.974  0.00  0.00    +0.000 A 
ATOM     21  C   UNL     1       4.863   4.616  17.363  0.00  0.00    +0.000 A 
BRANCH  15  23
ATOM     22  C   UNL     1       7.534   5.680  19.531  0.00  0.00    +0.000 C 
ATOM     23  O   UNL     1       6.355   4.935  19.225  0.00  0.00    +0.000 OA
ENDBRANCH  15  23
ENDBRANCH  13  21
ENDBRANCH   1  13
TORSDOF 5
ENDMDL
