MODEL 1
REMARK VINA RESULT:      -7.6      0.000      0.000
REMARK  Name = 
REMARK  5 active torsions:
REMARK  status: ('A' for Active; 'I' for Inactive)
REMARK    1  A    between atoms: C_1  and  C_2
REMARK    2  A    between atoms: C_4  and  C_5
REMARK    3  A    between atoms: C_5  and  C_6
REMARK    4  A    between atoms: C_25  and  C_26
REMARK    5  A    between atoms: C_27  and  C_28
REMARK                            x       y       z     vdW  Elec       q    Type
REMARK                         _______ _______ _______ _____ _____    ______ ____
ROOT
ATOM      1  C   UNL     1       3.766   7.350  17.154  0.00  0.00    +0.000 C 
ATOM      2  C   UNL     1       2.794   7.603  18.283  0.00  0.00    +0.000 A 
ATOM      3  N   UNL     1       2.658   6.512  19.075  0.00  0.00    +0.000 NA
ATOM      4  C   UNL     1       1.886   6.521  20.164  0.00  0.00    +0.000 A 
ATOM      5  N   UNL     1       1.187   7.674  20.471  0.00  0.00    +0.000 NA
ATOM      6  C   UNL     1       1.207   8.862  19.717  0.00  0.00    +0.000 A 
ATOM      7  N   UNL     1       0.517  10.097  20.134  0.00  0.00    +0.000 N 
ATOM      8  C   UNL     1      -0.725  10.636  19.513  0.00  0.00    +0.000 C 
ATOM      9  C   UNL     1      -1.649  11.440  20.589  0.00  0.00    +0.000 C 
ATOM     10  C   UNL     1      -0.861  12.648  20.994  0.00  0.00    +0.000 A 
ATOM     11  C   UNL     1      -1.428  13.928  20.889  0.00  0.00    +0.000 A 
ATOM     12  C   UNL     1      -0.643  14.984  20.480  0.00  0.00    +0.000 A 
ATOM     13  C   UNL     1       0.674  14.717  20.105  0.00  0.00    +0.000 A 
ATOM     14 CL   UNL     1       1.473  15.975  19.161  0.00  0.00    +0.000 Cl
ATOM     15  C   UNL     1       1.280  13.444  20.388  0.00  0.00    +0.000 A 
ATOM     16  C   UNL     1       0.523  12.379  20.999  0.00  0.00    +0.000 A 
ATOM     17  C   UNL     1       0.929  10.834  21.344  0.00  0.00    +0.000 C 
ATOM     18  C   UNL     1       0.270   9.749  22.408  0.00  0.00    +0.000 C 
ATOM     19  C   UNL     1       2.036   8.792  18.555  0.00  0.00    +0.000 A 
ATOM     20  C   UNL     1       2.283  10.002  17.729  0.00  0.00    +0.000 C 
ENDROOT
BRANCH   4  21
ATOM     21  C   UNL     1       1.821   5.199  20.925  0.00  0.00    +0.000 C 
BRANCH  21  22
ATOM     22  C   UNL     1       2.359   3.980  20.209  0.00  0.00    +0.000 A 
ATOM     23  C   UNL     1       1.514   3.226  19.377  0.00  0.00    +0.000 A 
ATOM     24  C   UNL     1       2.010   2.112  18.685  0.00  0.00    +0.000 A 
ATOM     25  C   UNL     1       3.351   1.752  18.807  0.00  0.00    +0.000 A 
ATOM     26  F   UNL     1       3.822   0.669  18.140  0.00  0.00    +0.000 F 
ATOM     27  C   UNL     1       4.208   2.511  19.610  0.00  0.00    +0.000 A 
ATOM     28  C   UNL     1       3.718   3.624  20.306  0.00  0.00    +0.000 A 
ENDBRANCH  21  22
ENDBRANCH   4  21
TORSDOF 2
ENDMDL
MODEL 2
REMARK VINA RESULT:      -7.4      2.437      4.282
REMARK  Name = 
REMARK  5 active torsions:
REMARK  status: ('A' for Active; 'I' for Inactive)
REMARK    1  A    between atoms: C_1  and  C_2
REMARK    2  A    between atoms: C_4  and  C_5
REMARK    3  A    between atoms: C_5  and  C_6
REMARK    4  A    between atoms: C_25  and  C_26
REMARK    5  A    between atoms: C_27  and  C_28
REMARK                            x       y       z     vdW  Elec       q    Type
REMARK                         _______ _______ _______ _____ _____    ______ ____
ROOT
ATOM      1  C   UNL     1      -2.347   9.675  17.708  0.00  0.00    +0.000 C 
ATOM      2  C   UNL     1      -1.044  10.298  18.152  0.00  0.00    +0.000 A 
ATOM      3  N   UNL     1       0.010   9.493  17.879  0.00  0.00    +0.000 NA
ATOM      4  C   UNL     1       1.267   9.860  18.141  0.00  0.00    +0.000 A 
ATOM      5  N   UNL     1       1.488  11.090  18.732  0.00  0.00    +0.000 NA
ATOM      6  C   UNL     1       0.486  12.006  19.102  0.00  0.00    +0.000 A 
ATOM      7  N   UNL     1       0.775  13.347  19.646  0.00  0.00    +0.000 N 
ATOM      8  C   UNL     1       0.589  13.752  21.068  0.00  0.00    +0.000 C 
ATOM      9  C   UNL     1       1.669  14.884  21.528  0.00  0.00    +0.000 C 
ATOM     10  C   UNL     1       1.352  16.110  20.729  0.00  0.00    +0.000 A 
ATOM     11  C   UNL     1       1.125  17.336  21.375  0.00  0.00    +0.000 A 
ATOM     12  C   UNL     1       0.148  18.182  20.899  0.00  0.00    +0.000 A 
ATOM     13  C   UNL     1      -0.638  17.743  19.833  0.00  0.00    +0.000 A 
ATOM     14 CL   UNL     1      -2.142  18.628  19.575  0.00  0.00    +0.000 Cl
ATOM     15  C   UNL     1      -0.275  16.575  19.078  0.00  0.00    +0.000 A 
ATOM     16  C   UNL     1       0.869  15.776  19.447  0.00  0.00    +0.000 A 
ATOM     17  C   UNL     1       1.445  14.377  18.830  0.00  0.00    +0.000 C 
ATOM     18  C   UNL     1       2.947  13.685  18.924  0.00  0.00    +0.000 C 
ATOM     19  C   UNL     1      -0.840  11.556  18.814  0.00  0.00    +0.000 A 
ATOM     20  C   UNL     1      -2.003  12.460  19.008  0.00  0.00    +0.000 C 
ENDROOT
BRANCH   4  21
ATOM     21  C   UNL     1       2.332   8.820  17.800  0.00  0.00    +0.000 C 
BRANCH  21  22
ATOM     22  C   UNL     1       2.288   7.527  18.583  0.00  0.00    +0.000 A 
ATOM     23  C   UNL     1       1.966   7.545  19.950  0.00  0.00    +0.000 A 
ATOM     24  C   UNL     1       1.892   6.349  20.678  0.00  0.00    +0.000 A 
ATOM     25  C   UNL     1       2.127   5.129  20.046  0.00  0.00    +0.000 A 
ATOM     26  F   UNL     1       2.061   3.977  20.758  0.00  0.00    +0.000 F 
ATOM     27  C   UNL     1       2.420   5.095  18.679  0.00  0.00    +0.000 A 
ATOM     28  C   UNL     1       2.497   6.287  17.947  0.00  0.00    +0.000 A 
ENDBRANCH  21  22
ENDBRANCH   4  21
TORSDOF 2
ENDMDL
MODEL 3
REMARK VINA RESULT:      -7.3      2.668      4.487
REMARK  Name = 
REMARK  5 active torsions:
REMARK  status: ('A' for Active; 'I' for Inactive)
REMARK    1  A    between atoms: C_1  and  C_2
REMARK    2  A    between atoms: C_4  and  C_5
REMARK    3  A    between atoms: C_5  and  C_6
REMARK    4  A    between atoms: C_25  and  C_26
REMARK    5  A    between atoms: C_27  and  C_28
REMARK                            x       y       z     vdW  Elec       q    Type
REMARK                         _______ _______ _______ _____ _____    ______ ____
ROOT
ATOM      1  C   UNL     1      -2.532   9.819  16.582  0.00  0.00    +0.000 C 
ATOM      2  C   UNL     1      -1.645  10.319  17.699  0.00  0.00    +0.000 A 
ATOM      3  N   UNL     1      -0.390   9.819  17.598  0.00  0.00    +0.000 NA
ATOM      4  C   UNL     1       0.579  10.163  18.450  0.00  0.00    +0.000 A 
ATOM      5  N   UNL     1       0.277  11.036  19.479  0.00  0.00    +0.000 NA
ATOM      6  C   UNL     1      -0.990  11.599  19.722  0.00  0.00    +0.000 A 
ATOM      7  N   UNL     1      -1.243  12.598  20.778  0.00  0.00    +0.000 N 
ATOM      8  C   UNL     1      -1.972  12.333  22.050  0.00  0.00    +0.000 C 
ATOM      9  C   UNL     1      -1.423  13.261  23.274  0.00  0.00    +0.000 C 
ATOM     10  C   UNL     1      -1.769  14.673  22.913  0.00  0.00    +0.000 A 
ATOM     11  C   UNL     1      -2.496  15.473  23.809  0.00  0.00    +0.000 A 
ATOM     12  C   UNL     1      -3.451  16.339  23.323  0.00  0.00    +0.000 A 
ATOM     13  C   UNL     1      -3.714  16.323  21.953  0.00  0.00    +0.000 A 
ATOM     14 CL   UNL     1      -5.229  17.077  21.455  0.00  0.00    +0.000 Cl
ATOM     15  C   UNL     1      -2.843  15.634  21.040  0.00  0.00    +0.000 A 
ATOM     16  C   UNL     1      -1.714  14.874  21.519  0.00  0.00    +0.000 A 
ATOM     17  C   UNL     1      -0.634  13.940  20.725  0.00  0.00    +0.000 C 
ATOM     18  C   UNL     1       0.884  13.430  21.152  0.00  0.00    +0.000 C 
ATOM     19  C   UNL     1      -1.992  11.185  18.790  0.00  0.00    +0.000 A 
ATOM     20  C   UNL     1      -3.346  11.797  18.816  0.00  0.00    +0.000 C 
ENDROOT
BRANCH   4  21
ATOM     21  C   UNL     1       1.925   9.482  18.212  0.00  0.00    +0.000 C 
BRANCH  21  22
ATOM     22  C   UNL     1       2.087   8.090  18.779  0.00  0.00    +0.000 A 
ATOM     23  C   UNL     1       1.736   7.831  20.115  0.00  0.00    +0.000 A 
ATOM     24  C   UNL     1       1.854   6.537  20.642  0.00  0.00    +0.000 A 
ATOM     25  C   UNL     1       2.310   5.493  19.839  0.00  0.00    +0.000 A 
ATOM     26  F   UNL     1       2.428   4.246  20.357  0.00  0.00    +0.000 F 
ATOM     27  C   UNL     1       2.635   5.732  18.500  0.00  0.00    +0.000 A 
ATOM     28  C   UNL     1       2.522   7.024  17.968  0.00  0.00    +0.000 A 
ENDBRANCH  21  22
ENDBRANCH   4  21
TORSDOF 2
ENDMDL
MODEL 4
REMARK VINA RESULT:      -7.3      2.892      4.748
REMARK  Name = 
REMARK  5 active torsions:
REMARK  status: ('A' for Active; 'I' for Inactive)
REMARK    1  A    between atoms: C_1  and  C_2
REMARK    2  A    between atoms: C_4  and  C_5
REMARK    3  A    between atoms: C_5  and  C_6
REMARK    4  A    between atoms: C_25  and  C_26
REMARK    5  A    between atoms: C_27  and  C_28
REMARK                            x       y       z     vdW  Elec       q    Type
REMARK                         _______ _______ _______ _____ _____    ______ ____
ROOT
ATOM      1  C   UNL     1       3.181  14.317  18.067  0.00  0.00    +0.000 C 
ATOM      2  C   UNL     1       2.151  13.356  18.613  0.00  0.00    +0.000 A 
ATOM      3  N   UNL     1       2.337  12.103  18.135  0.00  0.00    +0.000 NA
ATOM      4  C   UNL     1       1.573  11.077  18.519  0.00  0.00    +0.000 A 
ATOM      5  N   UNL     1       0.546  11.317  19.414  0.00  0.00    +0.000 NA
ATOM      6  C   UNL     1       0.219  12.572  19.960  0.00  0.00    +0.000 A 
ATOM      7  N   UNL     1      -0.828  12.762  20.982  0.00  0.00    +0.000 N 
ATOM      8  C   UNL     1      -2.160  13.384  20.738  0.00  0.00    +0.000 C 
ATOM      9  C   UNL     1      -3.312  12.761  21.709  0.00  0.00    +0.000 C 
ATOM     10  C   UNL     1      -2.944  13.163  23.103  0.00  0.00    +0.000 A 
ATOM     11  C   UNL     1      -3.874  13.834  23.914  0.00  0.00    +0.000 A 
ATOM     12  C   UNL     1      -3.443  14.842  24.748  0.00  0.00    +0.000 A 
ATOM     13  C   UNL     1      -2.098  15.211  24.690  0.00  0.00    +0.000 A 
ATOM     14 CL   UNL     1      -1.701  16.776  25.401  0.00  0.00    +0.000 Cl
ATOM     15  C   UNL     1      -1.137  14.400  23.993  0.00  0.00    +0.000 A 
ATOM     16  C   UNL     1      -1.546  13.221  23.268  0.00  0.00    +0.000 A 
ATOM     17  C   UNL     1      -0.693  12.187  22.333  0.00  0.00    +0.000 C 
ATOM     18  C   UNL     1      -1.012  10.631  21.864  0.00  0.00    +0.000 C 
ATOM     19  C   UNL     1       1.058  13.635  19.502  0.00  0.00    +0.000 A 
ATOM     20  C   UNL     1       0.941  14.995  20.088  0.00  0.00    +0.000 C 
ENDROOT
BRANCH   4  21
ATOM     21  C   UNL     1       1.899   9.740  17.858  0.00  0.00    +0.000 C 
BRANCH  21  22
ATOM     22  C   UNL     1       1.919   8.528  18.761  0.00  0.00    +0.000 A 
ATOM     23  C   UNL     1       2.518   7.335  18.321  0.00  0.00    +0.000 A 
ATOM     24  C   UNL     1       2.570   6.215  19.162  0.00  0.00    +0.000 A 
ATOM     25  C   UNL     1       2.037   6.279  20.448  0.00  0.00    +0.000 A 
ATOM     26  F   UNL     1       2.084   5.189  21.253  0.00  0.00    +0.000 F 
ATOM     27  C   UNL     1       1.463   7.468  20.908  0.00  0.00    +0.000 A 
ATOM     28  C   UNL     1       1.407   8.591  20.072  0.00  0.00    +0.000 A 
ENDBRANCH  21  22
ENDBRANCH   4  21
TORSDOF 2
ENDMDL
MODEL 5
REMARK VINA RESULT:      -6.9      3.473      5.782
REMARK  Name = 
REMARK  5 active torsions:
REMARK  status: ('A' for Active; 'I' for Inactive)
REMARK    1  A    between atoms: C_1  and  C_2
REMARK    2  A    between atoms: C_4  and  C_5
REMARK    3  A    between atoms: C_5  and  C_6
REMARK    4  A    between atoms: C_25  and  C_26
REMARK    5  A    between atoms: C_27  and  C_28
REMARK                            x       y       z     vdW  Elec       q    Type
REMARK                         _______ _______ _______ _____ _____    ______ ____
ROOT
ATOM      1  C   UNL     1      -3.479  10.590  16.860  0.00  0.00    +0.000 C 
ATOM      2  C   UNL     1      -2.650  11.108  18.012  0.00  0.00    +0.000 A 
ATOM      3  N   UNL     1      -1.341  10.791  17.864  0.00  0.00    +0.000 NA
ATOM      4  C   UNL     1      -0.414  11.189  18.738  0.00  0.00    +0.000 A 
ATOM      5  N   UNL     1      -0.814  11.923  19.840  0.00  0.00    +0.000 NA
ATOM      6  C   UNL     1      -2.141  12.288  20.135  0.00  0.00    +0.000 A 
ATOM      7  N   UNL     1      -2.508  13.151  21.274  0.00  0.00    +0.000 N 
ATOM      8  C   UNL     1      -3.175  12.684  22.522  0.00  0.00    +0.000 C 
ATOM      9  C   UNL     1      -2.736  13.571  23.818  0.00  0.00    +0.000 C 
ATOM     10  C   UNL     1      -3.273  14.948  23.582  0.00  0.00    +0.000 A 
ATOM     11  C   UNL     1      -4.086  15.565  24.546  0.00  0.00    +0.000 A 
ATOM     12  C   UNL     1      -5.155  16.333  24.140  0.00  0.00    +0.000 A 
ATOM     13  C   UNL     1      -5.435  16.398  22.775  0.00  0.00    +0.000 A 
ATOM     14 CL   UNL     1      -7.045  16.981  22.349  0.00  0.00    +0.000 Cl
ATOM     15  C   UNL     1      -4.494  15.912  21.802  0.00  0.00    +0.000 A 
ATOM     16  C   UNL     1      -3.267  15.273  22.210  0.00  0.00    +0.000 A 
ATOM     17  C   UNL     1      -2.084  14.563  21.334  0.00  0.00    +0.000 C 
ATOM     18  C   UNL     1      -0.506  14.227  21.710  0.00  0.00    +0.000 C 
ATOM     19  C   UNL     1      -3.092  11.824  19.175  0.00  0.00    +0.000 A 
ATOM     20  C   UNL     1      -4.516  12.244  19.259  0.00  0.00    +0.000 C 
ENDROOT
BRANCH   4  21
ATOM     21  C   UNL     1       1.007  10.718  18.438  0.00  0.00    +0.000 C 
BRANCH  21  22
ATOM     22  C   UNL     1       1.411   9.379  19.013  0.00  0.00    +0.000 A 
ATOM     23  C   UNL     1       1.002   9.021  20.309  0.00  0.00    +0.000 A 
ATOM     24  C   UNL     1       1.346   7.770  20.841  0.00  0.00    +0.000 A 
ATOM     25  C   UNL     1       2.086   6.865  20.082  0.00  0.00    +0.000 A 
ATOM     26  F   UNL     1       2.420   5.660  20.606  0.00  0.00    +0.000 F 
ATOM     27  C   UNL     1       2.474   7.199  18.781  0.00  0.00    +0.000 A 
ATOM     28  C   UNL     1       2.136   8.448  18.244  0.00  0.00    +0.000 A 
ENDBRANCH  21  22
ENDBRANCH   4  21
TORSDOF 2
ENDMDL
MODEL 6
REMARK VINA RESULT:      -6.9      2.583      4.465
REMARK  Name = 
REMARK  5 active torsions:
REMARK  status: ('A' for Active; 'I' for Inactive)
REMARK    1  A    between atoms: C_1  and  C_2
REMARK    2  A    between atoms: C_4  and  C_5
REMARK    3  A    between atoms: C_5  and  C_6
REMARK    4  A    between atoms: C_25  and  C_26
REMARK    5  A    between atoms: C_27  and  C_28
REMARK                            x       y       z     vdW  Elec       q    Type
REMARK                         _______ _______ _______ _____ _____    ______ ____
ROOT
ATOM      1  C   UNL     1      -2.705   9.666  17.425  0.00  0.00    +0.000 C 
ATOM      2  C   UNL     1      -1.548  10.352  18.112  0.00  0.00    +0.000 A 
ATOM      3  N   UNL     1      -0.376   9.719  17.861  0.00  0.00    +0.000 NA
ATOM      4  C   UNL     1       0.789  10.177  18.327  0.00  0.00    +0.000 A 
ATOM      5  N   UNL     1       0.787  11.317  19.109  0.00  0.00    +0.000 NA
ATOM      6  C   UNL     1      -0.358  12.050  19.476  0.00  0.00    +0.000 A 
ATOM      7  N   UNL     1      -0.301  13.313  20.236  0.00  0.00    +0.000 N 
ATOM      8  C   UNL     1      -0.688  13.470  21.666  0.00  0.00    +0.000 C 
ATOM      9  C   UNL     1       0.184  14.629  22.412  0.00  0.00    +0.000 C 
ATOM     10  C   UNL     1      -0.199  15.922  21.761  0.00  0.00    +0.000 A 
ATOM     11  C   UNL     1      -0.647  17.000  22.540  0.00  0.00    +0.000 A 
ATOM     12  C   UNL     1      -1.667  17.798  22.070  0.00  0.00    +0.000 A 
ATOM     13  C   UNL     1      -2.273  17.446  20.863  0.00  0.00    +0.000 A 
ATOM     14 CL   UNL     1      -3.841  18.189  20.547  0.00  0.00    +0.000 Cl
ATOM     15  C   UNL     1      -1.686  16.455  20.002  0.00  0.00    +0.000 A 
ATOM     16  C   UNL     1      -0.496  15.740  20.395  0.00  0.00    +0.000 A 
ATOM     17  C   UNL     1       0.316  14.524  19.663  0.00  0.00    +0.000 C 
ATOM     18  C   UNL     1       1.875  13.995  19.845  0.00  0.00    +0.000 C 
ATOM     19  C   UNL     1      -1.577  11.507  18.964  0.00  0.00    +0.000 A 
ATOM     20  C   UNL     1      -2.860  12.237  19.137  0.00  0.00    +0.000 C 
ENDROOT
BRANCH   4  21
ATOM     21  C   UNL     1       2.007   9.325  17.979  0.00  0.00    +0.000 C 
BRANCH  21  22
ATOM     22  C   UNL     1       2.132   8.000  18.695  0.00  0.00    +0.000 A 
ATOM     23  C   UNL     1       1.783   7.901  20.053  0.00  0.00    +0.000 A 
ATOM     24  C   UNL     1       1.866   6.669  20.718  0.00  0.00    +0.000 A 
ATOM     25  C   UNL     1       2.285   5.530  20.034  0.00  0.00    +0.000 A 
ATOM     26  F   UNL     1       2.369   4.344  20.686  0.00  0.00    +0.000 F 
ATOM     27  C   UNL     1       2.607   5.610  18.676  0.00  0.00    +0.000 A 
ATOM     28  C   UNL     1       2.529   6.838  18.005  0.00  0.00    +0.000 A 
ENDBRANCH  21  22
ENDBRANCH   4  21
TORSDOF 2
ENDMDL
MODEL 7
REMARK VINA RESULT:      -6.8      6.179      9.419
REMARK  Name = 
REMARK  5 active torsions:
REMARK  status: ('A' for Active; 'I' for Inactive)
REMARK    1  A    between atoms: C_1  and  C_2
REMARK    2  A    between atoms: C_4  and  C_5
REMARK    3  A    between atoms: C_5  and  C_6
REMARK    4  A    between atoms: C_25  and  C_26
REMARK    5  A    between atoms: C_27  and  C_28
REMARK                            x       y       z     vdW  Elec       q    Type
REMARK                         _______ _______ _______ _____ _____    ______ ____
ROOT
ATOM      1  C   UNL     1      -0.301   9.372  22.466  0.00  0.00    +0.000 C 
ATOM      2  C   UNL     1      -0.713  10.813  22.276  0.00  0.00    +0.000 A 
ATOM      3  N   UNL     1      -1.723  11.155  23.112  0.00  0.00    +0.000 NA
ATOM      4  C   UNL     1      -2.218  12.394  23.154  0.00  0.00    +0.000 A 
ATOM      5  N   UNL     1      -1.694  13.345  22.297  0.00  0.00    +0.000 NA
ATOM      6  C   UNL     1      -0.672  13.117  21.356  0.00  0.00    +0.000 A 
ATOM      7  N   UNL     1      -0.083  14.186  20.527  0.00  0.00    +0.000 N 
ATOM      8  C   UNL     1      -0.325  14.370  19.068  0.00  0.00    +0.000 C 
ATOM      9  C   UNL     1      -0.256  15.939  18.630  0.00  0.00    +0.000 C 
ATOM     10  C   UNL     1       1.161  16.371  18.847  0.00  0.00    +0.000 A 
ATOM     11  C   UNL     1       1.887  16.965  17.802  0.00  0.00    +0.000 A 
ATOM     12  C   UNL     1       3.222  16.662  17.647  0.00  0.00    +0.000 A 
ATOM     13  C   UNL     1       3.780  15.704  18.494  0.00  0.00    +0.000 A 
ATOM     14 CL   UNL     1       5.317  15.017  17.966  0.00  0.00    +0.000 Cl
ATOM     15  C   UNL     1       3.075  15.246  19.660  0.00  0.00    +0.000 A 
ATOM     16  C   UNL     1       1.737  15.704  19.948  0.00  0.00    +0.000 A 
ATOM     17  C   UNL     1       0.692  15.286  21.132  0.00  0.00    +0.000 C 
ATOM     18  C   UNL     1      -0.630  16.077  21.744  0.00  0.00    +0.000 C 
ATOM     19  C   UNL     1      -0.192  11.771  21.343  0.00  0.00    +0.000 A 
ATOM     20  C   UNL     1       0.982  11.397  20.512  0.00  0.00    +0.000 C 
ENDROOT
BRANCH   4  21
ATOM     21  C   UNL     1      -3.375  12.600  24.128  0.00  0.00    +0.000 C 
BRANCH  21  22
ATOM     22  C   UNL     1      -3.927  14.003  24.234  0.00  0.00    +0.000 A 
ATOM     23  C   UNL     1      -5.192  14.301  23.700  0.00  0.00    +0.000 A 
ATOM     24  C   UNL     1      -5.727  15.592  23.820  0.00  0.00    +0.000 A 
ATOM     25  C   UNL     1      -5.011  16.588  24.482  0.00  0.00    +0.000 A 
ATOM     26  F   UNL     1      -5.531  17.836  24.587  0.00  0.00    +0.000 F 
ATOM     27  C   UNL     1      -3.764  16.296  25.042  0.00  0.00    +0.000 A 
ATOM     28  C   UNL     1      -3.223  15.009  24.924  0.00  0.00    +0.000 A 
ENDBRANCH  21  22
ENDBRANCH   4  21
TORSDOF 2
ENDMDL
MODEL 8
REMARK VINA RESULT:      -6.7      2.178      4.170
REMARK  Name = 
REMARK  5 active torsions:
REMARK  status: ('A' for Active; 'I' for Inactive)
REMARK    1  A    between atoms: C_1  and  C_2
REMARK    2  A    between atoms: C_4  and  C_5
REMARK    3  A    between atoms: C_5  and  C_6
REMARK    4  A    between atoms: C_25  and  C_26
REMARK    5  A    between atoms: C_27  and  C_28
REMARK                            x       y       z     vdW  Elec       q    Type
REMARK                         _______ _______ _______ _____ _____    ______ ____
ROOT
ATOM      1  C   UNL     1      -2.019   9.821  17.970  0.00  0.00    +0.000 C 
ATOM      2  C   UNL     1      -1.019  10.441  18.918  0.00  0.00    +0.000 A 
ATOM      3  N   UNL     1      -0.325   9.495  19.595  0.00  0.00    +0.000 NA
ATOM      4  C   UNL     1       0.648   9.811  20.454  0.00  0.00    +0.000 A 
ATOM      5  N   UNL     1       0.930  11.147  20.671  0.00  0.00    +0.000 NA
ATOM      6  C   UNL     1       0.264  12.229  20.065  0.00  0.00    +0.000 A 
ATOM      7  N   UNL     1       0.663  13.636  20.258  0.00  0.00    +0.000 N 
ATOM      8  C   UNL     1      -0.086  14.633  21.073  0.00  0.00    +0.000 C 
ATOM      9  C   UNL     1       0.905  15.738  21.749  0.00  0.00    +0.000 C 
ATOM     10  C   UNL     1       1.490  16.522  20.615  0.00  0.00    +0.000 A 
ATOM     11  C   UNL     1       1.392  17.923  20.600  0.00  0.00    +0.000 A 
ATOM     12  C   UNL     1       1.163  18.573  19.407  0.00  0.00    +0.000 A 
ATOM     13  C   UNL     1       0.954  17.796  18.266  0.00  0.00    +0.000 A 
ATOM     14 CL   UNL     1       0.211  18.628  16.899  0.00  0.00    +0.000 Cl
ATOM     15  C   UNL     1       1.234  16.386  18.269  0.00  0.00    +0.000 A 
ATOM     16  C   UNL     1       1.666  15.716  19.472  0.00  0.00    +0.000 A 
ATOM     17  C   UNL     1       1.962  14.138  19.774  0.00  0.00    +0.000 C 
ATOM     18  C   UNL     1       2.855  13.408  20.963  0.00  0.00    +0.000 C 
ATOM     19  C   UNL     1      -0.776  11.834  19.169  0.00  0.00    +0.000 A 
ATOM     20  C   UNL     1      -1.481  12.844  18.337  0.00  0.00    +0.000 C 
ENDROOT
BRANCH   4  21
ATOM     21  C   UNL     1       1.305   8.625  21.156  0.00  0.00    +0.000 C 
BRANCH  21  22
ATOM     22  C   UNL     1       1.808   7.509  20.268  0.00  0.00    +0.000 A 
ATOM     23  C   UNL     1       1.738   6.177  20.709  0.00  0.00    +0.000 A 
ATOM     24  C   UNL     1       2.172   5.132  19.882  0.00  0.00    +0.000 A 
ATOM     25  C   UNL     1       2.667   5.406  18.608  0.00  0.00    +0.000 A 
ATOM     26  F   UNL     1       3.092   4.391  17.816  0.00  0.00    +0.000 F 
ATOM     27  C   UNL     1       2.716   6.725  18.147  0.00  0.00    +0.000 A 
ATOM     28  C   UNL     1       2.285   7.775  18.970  0.00  0.00    +0.000 A 
ENDBRANCH  21  22
ENDBRANCH   4  21
TORSDOF 2
ENDMDL
MODEL 9
REMARK VINA RESULT:      -6.7      3.863      6.487
REMARK  Name = 
REMARK  5 active torsions:
REMARK  status: ('A' for Active; 'I' for Inactive)
REMARK    1  A    between atoms: C_1  and  C_2
REMARK    2  A    between atoms: C_4  and  C_5
REMARK    3  A    between atoms: C_5  and  C_6
REMARK    4  A    between atoms: C_25  and  C_26
REMARK    5  A    between atoms: C_27  and  C_28
REMARK                            x       y       z     vdW  Elec       q    Type
REMARK                         _______ _______ _______ _____ _____    ______ ____
ROOT
ATOM      1  C   UNL     1      -3.986  11.026  17.824  0.00  0.00    +0.000 C 
ATOM      2  C   UNL     1      -3.025  11.692  18.781  0.00  0.00    +0.000 A 
ATOM      3  N   UNL     1      -1.737  11.464  18.430  0.00  0.00    +0.000 NA
ATOM      4  C   UNL     1      -0.715  11.997  19.106  0.00  0.00    +0.000 A 
ATOM      5  N   UNL     1      -0.989  12.782  20.210  0.00  0.00    +0.000 NA
ATOM      6  C   UNL     1      -2.275  13.068  20.706  0.00  0.00    +0.000 A 
ATOM      7  N   UNL     1      -2.522  13.986  21.834  0.00  0.00    +0.000 N 
ATOM      8  C   UNL     1      -2.930  13.568  23.205  0.00  0.00    +0.000 C 
ATOM      9  C   UNL     1      -2.361  14.582  24.348  0.00  0.00    +0.000 C 
ATOM     10  C   UNL     1      -3.047  15.894  24.120  0.00  0.00    +0.000 A 
ATOM     11  C   UNL     1      -3.739  16.520  25.169  0.00  0.00    +0.000 A 
ATOM     12  C   UNL     1      -4.924  17.172  24.905  0.00  0.00    +0.000 A 
ATOM     13  C   UNL     1      -5.432  17.109  23.606  0.00  0.00    +0.000 A 
ATOM     14 CL   UNL     1      -7.134  17.535  23.428  0.00  0.00    +0.000 Cl
ATOM     15  C   UNL     1      -4.626  16.622  22.519  0.00  0.00    +0.000 A 
ATOM     16  C   UNL     1      -3.297  16.110  22.750  0.00  0.00    +0.000 A 
ATOM     17  C   UNL     1      -2.219  15.426  21.731  0.00  0.00    +0.000 C 
ATOM     18  C   UNL     1      -0.577  15.240  21.850  0.00  0.00    +0.000 C 
ATOM     19  C   UNL     1      -3.329  12.460  19.955  0.00  0.00    +0.000 A 
ATOM     20  C   UNL     1      -4.750  12.777  20.256  0.00  0.00    +0.000 C 
ENDROOT
BRANCH   4  21
ATOM     21  C   UNL     1       0.672  11.612  18.596  0.00  0.00    +0.000 C 
BRANCH  21  22
ATOM     22  C   UNL     1       1.167  10.231  18.961  0.00  0.00    +0.000 A 
ATOM     23  C   UNL     1       0.899   9.705  20.237  0.00  0.00    +0.000 A 
ATOM     24  C   UNL     1       1.327   8.413  20.575  0.00  0.00    +0.000 A 
ATOM     25  C   UNL     1       2.013   7.635  19.644  0.00  0.00    +0.000 A 
ATOM     26  F   UNL     1       2.430   6.390  19.981  0.00  0.00    +0.000 F 
ATOM     27  C   UNL     1       2.260   8.137  18.362  0.00  0.00    +0.000 A 
ATOM     28  C   UNL     1       1.837   9.428  18.018  0.00  0.00    +0.000 A 
ENDBRANCH  21  22
ENDBRANCH   4  21
TORSDOF 2
ENDMDL
