MODEL 1
REMARK VINA RESULT:      -8.4      0.000      0.000
REMARK  Name = 
REMARK  5 active torsions:
REMARK  status: ('A' for Active; 'I' for Inactive)
REMARK    1  A    between atoms: C_1  and  C_2
REMARK    2  A    between atoms: C_2  and  N_3
REMARK    3  A    between atoms: C_2  and  C_16
REMARK    4  A    between atoms: C_4  and  C_6
REMARK    5  A    between atoms: C_9  and  N_10
REMARK                            x       y       z     vdW  Elec       q    Type
REMARK                         _______ _______ _______ _____ _____    ______ ____
ROOT
ATOM      1  N   UNL     1       4.993   3.086  19.033  0.00  0.00    +0.000 N 
ATOM      2  C   UNL     1       5.458   4.341  18.728  0.00  0.00    +0.000 C 
ATOM      3  O   UNL     1       5.468   5.264  19.535  0.00  0.00    +0.000 OA
ATOM      4  H   UNL     1       4.934   2.396  18.295  0.00  0.00    +0.000 HD
ENDROOT
BRANCH   2   5
ATOM      5  C   UNL     1       6.030   4.561  17.365  0.00  0.00    +0.000 A 
ATOM      6  C   UNL     1       5.521   3.722  16.354  0.00  0.00    +0.000 A 
ATOM      7  C   UNL     1       5.950   3.838  15.030  0.00  0.00    +0.000 A 
ATOM      8  C   UNL     1       6.902   4.799  14.702  0.00  0.00    +0.000 A 
ATOM      9  C   UNL     1       7.440   5.636  15.691  0.00  0.00    +0.000 A 
ATOM     10  C   UNL     1       7.008   5.511  17.022  0.00  0.00    +0.000 A 
ATOM     11 CL   UNL     1       7.779   6.558  18.163  0.00  0.00    +0.000 Cl
BRANCH   8  12
ATOM     12  N   UNL     1       7.358   4.938  13.310  0.00  0.00    +0.000 N 
ATOM     13  O   UNL     1       6.869   4.168  12.472  0.00  0.00    +0.000 OA
ATOM     14  O   UNL     1       8.195   5.815  13.064  0.00  0.00    +0.000 OA
ENDBRANCH   8  12
ENDBRANCH   2   5
BRANCH   1  16
ATOM     15  C   UNL     1       5.032   1.500  20.859  0.00  0.00    +0.000 C 
ATOM     16  C   UNL     1       4.344   2.752  20.304  0.00  0.00    +0.000 C 
BRANCH  16  17
ATOM     17  C   UNL     1       2.839   2.511  20.087  0.00  0.00    +0.000 C 
ATOM     18  C   UNL     1       2.418   2.081  18.662  0.00  0.00    +0.000 C 
ATOM     19  C   UNL     1       1.108   2.864  18.429  0.00  0.00    +0.000 C 
ATOM     20  C   UNL     1       1.477   4.303  18.043  0.00  0.00    +0.000 C 
ATOM     21  C   UNL     1       2.084   4.848  19.346  0.00  0.00    +0.000 C 
ATOM     22  C   UNL     1       1.874   3.693  20.351  0.00  0.00    +0.000 C 
ATOM     23  C   UNL     1       0.567   3.075  19.841  0.00  0.00    +0.000 C 
ENDBRANCH  16  17
ENDBRANCH   1  16
TORSDOF 4
ENDMDL
MODEL 2
REMARK VINA RESULT:      -7.9      1.373      1.696
REMARK  Name = 
REMARK  5 active torsions:
REMARK  status: ('A' for Active; 'I' for Inactive)
REMARK    1  A    between atoms: C_1  and  C_2
REMARK    2  A    between atoms: C_2  and  N_3
REMARK    3  A    between atoms: C_2  and  C_16
REMARK    4  A    between atoms: C_4  and  C_6
REMARK    5  A    between atoms: C_9  and  N_10
REMARK                            x       y       z     vdW  Elec       q    Type
REMARK                         _______ _______ _______ _____ _____    ______ ____
ROOT
ATOM      1  N   UNL     1       5.050   2.818  19.327  0.00  0.00    +0.000 N 
ATOM      2  C   UNL     1       5.411   4.083  18.935  0.00  0.00    +0.000 C 
ATOM      3  O   UNL     1       5.482   5.029  19.713  0.00  0.00    +0.000 OA
ATOM      4  H   UNL     1       4.929   2.105  18.619  0.00  0.00    +0.000 HD
ENDROOT
BRANCH   2   5
ATOM      5  C   UNL     1       5.788   4.290  17.504  0.00  0.00    +0.000 A 
ATOM      6  C   UNL     1       7.131   4.653  17.280  0.00  0.00    +0.000 A 
ATOM      7  C   UNL     1       7.623   4.854  15.989  0.00  0.00    +0.000 A 
ATOM      8  C   UNL     1       6.770   4.695  14.900  0.00  0.00    +0.000 A 
ATOM      9  C   UNL     1       5.424   4.352  15.094  0.00  0.00    +0.000 A 
ATOM     10  C   UNL     1       4.933   4.157  16.395  0.00  0.00    +0.000 A 
ATOM     11 CL   UNL     1       3.247   3.791  16.516  0.00  0.00    +0.000 Cl
BRANCH   8  12
ATOM     12  N   UNL     1       7.276   4.895  13.533  0.00  0.00    +0.000 N 
ATOM     13  O   UNL     1       6.792   4.189  12.638  0.00  0.00    +0.000 OA
ATOM     14  O   UNL     1       8.148   5.755  13.364  0.00  0.00    +0.000 OA
ENDBRANCH   8  12
ENDBRANCH   2   5
BRANCH   1  16
ATOM     15  C   UNL     1       5.294   1.200  21.109  0.00  0.00    +0.000 C 
ATOM     16  C   UNL     1       4.590   2.492  20.680  0.00  0.00    +0.000 C 
BRANCH  16  17
ATOM     17  C   UNL     1       3.060   2.325  20.696  0.00  0.00    +0.000 C 
ATOM     18  C   UNL     1       2.364   2.297  19.314  0.00  0.00    +0.000 C 
ATOM     19  C   UNL     1       1.078   3.120  19.549  0.00  0.00    +0.000 C 
ATOM     20  C   UNL     1       1.450   4.608  19.496  0.00  0.00    +0.000 C 
ATOM     21  C   UNL     1       2.312   4.778  20.757  0.00  0.00    +0.000 C 
ATOM     22  C   UNL     1       2.225   3.395  21.440  0.00  0.00    +0.000 C 
ATOM     23  C   UNL     1       0.815   2.943  21.043  0.00  0.00    +0.000 C 
ENDBRANCH  16  17
ENDBRANCH   1  16
TORSDOF 4
ENDMDL
MODEL 3
REMARK VINA RESULT:      -7.4      0.642      1.124
REMARK  Name = 
REMARK  5 active torsions:
REMARK  status: ('A' for Active; 'I' for Inactive)
REMARK    1  A    between atoms: C_1  and  C_2
REMARK    2  A    between atoms: C_2  and  N_3
REMARK    3  A    between atoms: C_2  and  C_16
REMARK    4  A    between atoms: C_4  and  C_6
REMARK    5  A    between atoms: C_9  and  N_10
REMARK                            x       y       z     vdW  Elec       q    Type
REMARK                         _______ _______ _______ _____ _____    ______ ____
ROOT
ATOM      1  N   UNL     1       5.145   3.293  18.920  0.00  0.00    +0.000 N 
ATOM      2  C   UNL     1       5.588   4.538  18.545  0.00  0.00    +0.000 C 
ATOM      3  O   UNL     1       5.613   5.496  19.309  0.00  0.00    +0.000 OA
ATOM      4  H   UNL     1       5.072   2.570  18.215  0.00  0.00    +0.000 HD
ENDROOT
BRANCH   2   5
ATOM      5  C   UNL     1       6.116   4.702  17.156  0.00  0.00    +0.000 A 
ATOM      6  C   UNL     1       5.653   3.759  16.218  0.00  0.00    +0.000 A 
ATOM      7  C   UNL     1       6.047   3.812  14.880  0.00  0.00    +0.000 A 
ATOM      8  C   UNL     1       6.919   4.815  14.463  0.00  0.00    +0.000 A 
ATOM      9  C   UNL     1       7.411   5.756  15.379  0.00  0.00    +0.000 A 
ATOM     10  C   UNL     1       7.015   5.695  16.725  0.00  0.00    +0.000 A 
ATOM     11 CL   UNL     1       7.727   6.873  17.773  0.00  0.00    +0.000 Cl
BRANCH   8  12
ATOM     12  N   UNL     1       7.338   4.887  13.055  0.00  0.00    +0.000 N 
ATOM     13  O   UNL     1       6.889   4.029  12.283  0.00  0.00    +0.000 OA
ATOM     14  O   UNL     1       8.106   5.800  12.730  0.00  0.00    +0.000 OA
ENDBRANCH   8  12
ENDBRANCH   2   5
BRANCH   1  16
ATOM     15  C   UNL     1       4.473   1.488  20.382  0.00  0.00    +0.000 C 
ATOM     16  C   UNL     1       4.539   3.010  20.223  0.00  0.00    +0.000 C 
BRANCH  16  17
ATOM     17  C   UNL     1       3.137   3.641  20.306  0.00  0.00    +0.000 C 
ATOM     18  C   UNL     1       2.040   2.776  20.971  0.00  0.00    +0.000 C 
ATOM     19  C   UNL     1       0.799   3.041  20.091  0.00  0.00    +0.000 C 
ATOM     20  C   UNL     1       0.920   2.177  18.828  0.00  0.00    +0.000 C 
ATOM     21  C   UNL     1       2.113   2.819  18.103  0.00  0.00    +0.000 C 
ATOM     22  C   UNL     1       2.449   4.046  18.979  0.00  0.00    +0.000 C 
ATOM     23  C   UNL     1       1.064   4.430  19.516  0.00  0.00    +0.000 C 
ENDBRANCH  16  17
ENDBRANCH   1  16
TORSDOF 4
ENDMDL
MODEL 4
REMARK VINA RESULT:      -7.0      3.991      7.203
REMARK  Name = 
REMARK  5 active torsions:
REMARK  status: ('A' for Active; 'I' for Inactive)
REMARK    1  A    between atoms: C_1  and  C_2
REMARK    2  A    between atoms: C_2  and  N_3
REMARK    3  A    between atoms: C_2  and  C_16
REMARK    4  A    between atoms: C_4  and  C_6
REMARK    5  A    between atoms: C_9  and  N_10
REMARK                            x       y       z     vdW  Elec       q    Type
REMARK                         _______ _______ _______ _____ _____    ______ ____
ROOT
ATOM      1  N   UNL     1       3.560   5.024  19.389  0.00  0.00    +0.000 N 
ATOM      2  C   UNL     1       2.458   5.667  18.882  0.00  0.00    +0.000 C 
ATOM      3  O   UNL     1       1.823   5.248  17.920  0.00  0.00    +0.000 OA
ATOM      4  H   UNL     1       4.085   5.471  20.130  0.00  0.00    +0.000 HD
ENDROOT
BRANCH   2   5
ATOM      5  C   UNL     1       1.986   6.902  19.581  0.00  0.00    +0.000 A 
ATOM      6  C   UNL     1       1.489   6.706  20.885  0.00  0.00    +0.000 A 
ATOM      7  C   UNL     1       1.039   7.776  21.659  0.00  0.00    +0.000 A 
ATOM      8  C   UNL     1       1.079   9.065  21.133  0.00  0.00    +0.000 A 
ATOM      9  C   UNL     1       1.551   9.288  19.831  0.00  0.00    +0.000 A 
ATOM     10  C   UNL     1       1.998   8.206  19.055  0.00  0.00    +0.000 A 
ATOM     11 CL   UNL     1       2.506   8.593  17.447  0.00  0.00    +0.000 Cl
BRANCH   8  12
ATOM     12  N   UNL     1       0.615  10.204  21.940  0.00  0.00    +0.000 N 
ATOM     13  O   UNL     1       0.531  11.303  21.377  0.00  0.00    +0.000 OA
ATOM     14  O   UNL     1       0.336   9.992  23.126  0.00  0.00    +0.000 OA
ENDBRANCH   8  12
ENDBRANCH   2   5
BRANCH   1  16
ATOM     15  C   UNL     1       4.136   2.709  19.786  0.00  0.00    +0.000 C 
ATOM     16  C   UNL     1       4.168   3.848  18.762  0.00  0.00    +0.000 C 
BRANCH  16  17
ATOM     17  C   UNL     1       5.610   4.165  18.324  0.00  0.00    +0.000 C 
ATOM     18  C   UNL     1       6.270   5.395  18.992  0.00  0.00    +0.000 C 
ATOM     19  C   UNL     1       7.044   6.055  17.830  0.00  0.00    +0.000 C 
ATOM     20  C   UNL     1       6.044   6.863  16.992  0.00  0.00    +0.000 C 
ATOM     21  C   UNL     1       5.174   5.761  16.365  0.00  0.00    +0.000 C 
ATOM     22  C   UNL     1       5.861   4.456  16.824  0.00  0.00    +0.000 C 
ATOM     23  C   UNL     1       7.331   4.887  16.889  0.00  0.00    +0.000 C 
ENDBRANCH  16  17
ENDBRANCH   1  16
TORSDOF 4
ENDMDL
MODEL 5
REMARK VINA RESULT:      -7.0      1.079      1.331
REMARK  Name = 
REMARK  5 active torsions:
REMARK  status: ('A' for Active; 'I' for Inactive)
REMARK    1  A    between atoms: C_1  and  C_2
REMARK    2  A    between atoms: C_2  and  N_3
REMARK    3  A    between atoms: C_2  and  C_16
REMARK    4  A    between atoms: C_4  and  C_6
REMARK    5  A    between atoms: C_9  and  N_10
REMARK                            x       y       z     vdW  Elec       q    Type
REMARK                         _______ _______ _______ _____ _____    ______ ____
ROOT
ATOM      1  N   UNL     1       4.867   3.257  19.043  0.00  0.00    +0.000 N 
ATOM      2  C   UNL     1       5.417   4.478  18.740  0.00  0.00    +0.000 C 
ATOM      3  O   UNL     1       5.619   5.347  19.581  0.00  0.00    +0.000 OA
ATOM      4  H   UNL     1       4.650   2.620  18.286  0.00  0.00    +0.000 HD
ENDROOT
BRANCH   2   5
ATOM      5  C   UNL     1       5.839   4.723  17.327  0.00  0.00    +0.000 A 
ATOM      6  C   UNL     1       6.949   3.974  16.890  0.00  0.00    +0.000 A 
ATOM      7  C   UNL     1       7.433   4.087  15.585  0.00  0.00    +0.000 A 
ATOM      8  C   UNL     1       6.808   4.960  14.698  0.00  0.00    +0.000 A 
ATOM      9  C   UNL     1       5.713   5.731  15.111  0.00  0.00    +0.000 A 
ATOM     10  C   UNL     1       5.234   5.617  16.427  0.00  0.00    +0.000 A 
ATOM     11 CL   UNL     1       3.914   6.657  16.839  0.00  0.00    +0.000 Cl
BRANCH   8  12
ATOM     12  N   UNL     1       7.302   5.084  13.317  0.00  0.00    +0.000 N 
ATOM     13  O   UNL     1       8.200   5.909  13.106  0.00  0.00    +0.000 OA
ATOM     14  O   UNL     1       6.793   4.355  12.458  0.00  0.00    +0.000 OA
ENDBRANCH   8  12
ENDBRANCH   2   5
BRANCH   1  16
ATOM     15  C   UNL     1       5.106   1.672  20.855  0.00  0.00    +0.000 C 
ATOM     16  C   UNL     1       4.347   2.912  20.369  0.00  0.00    +0.000 C 
BRANCH  16  17
ATOM     17  C   UNL     1       2.833   2.645  20.293  0.00  0.00    +0.000 C 
ATOM     18  C   UNL     1       2.322   1.987  18.989  0.00  0.00    +0.000 C 
ATOM     19  C   UNL     1       0.994   2.727  18.717  0.00  0.00    +0.000 C 
ATOM     20  C   UNL     1       1.328   4.081  18.076  0.00  0.00    +0.000 C 
ATOM     21  C   UNL     1       2.015   4.831  19.229  0.00  0.00    +0.000 C 
ATOM     22  C   UNL     1       1.879   3.858  20.421  0.00  0.00    +0.000 C 
ATOM     23  C   UNL     1       0.545   3.170  20.108  0.00  0.00    +0.000 C 
ENDBRANCH  16  17
ENDBRANCH   1  16
TORSDOF 4
ENDMDL
MODEL 6
REMARK VINA RESULT:      -7.0      2.883      3.790
REMARK  Name = 
REMARK  5 active torsions:
REMARK  status: ('A' for Active; 'I' for Inactive)
REMARK    1  A    between atoms: C_1  and  C_2
REMARK    2  A    between atoms: C_2  and  N_3
REMARK    3  A    between atoms: C_2  and  C_16
REMARK    4  A    between atoms: C_4  and  C_6
REMARK    5  A    between atoms: C_9  and  N_10
REMARK                            x       y       z     vdW  Elec       q    Type
REMARK                         _______ _______ _______ _____ _____    ______ ____
ROOT
ATOM      1  N   UNL     1       4.553   4.033  18.162  0.00  0.00    +0.000 N 
ATOM      2  C   UNL     1       5.597   4.346  17.326  0.00  0.00    +0.000 C 
ATOM      3  O   UNL     1       5.950   3.624  16.400  0.00  0.00    +0.000 OA
ATOM      4  H   UNL     1       4.371   4.632  18.957  0.00  0.00    +0.000 HD
ENDROOT
BRANCH   2   5
ATOM      5  C   UNL     1       6.286   5.656  17.529  0.00  0.00    +0.000 A 
ATOM      6  C   UNL     1       7.317   5.654  18.490  0.00  0.00    +0.000 A 
ATOM      7  C   UNL     1       8.059   6.805  18.761  0.00  0.00    +0.000 A 
ATOM      8  C   UNL     1       7.774   7.981  18.071  0.00  0.00    +0.000 A 
ATOM      9  C   UNL     1       6.741   8.017  17.123  0.00  0.00    +0.000 A 
ATOM     10  C   UNL     1       5.994   6.857  16.858  0.00  0.00    +0.000 A 
ATOM     11 CL   UNL     1       4.712   7.035  15.711  0.00  0.00    +0.000 Cl
BRANCH   8  12
ATOM     12  N   UNL     1       8.553   9.199  18.341  0.00  0.00    +0.000 N 
ATOM     13  O   UNL     1       9.297   9.191  19.330  0.00  0.00    +0.000 OA
ATOM     14  O   UNL     1       8.418  10.150  17.563  0.00  0.00    +0.000 OA
ENDBRANCH   8  12
ENDBRANCH   2   5
BRANCH   1  16
ATOM     15  C   UNL     1       2.762   2.863  17.034  0.00  0.00    +0.000 C 
ATOM     16  C   UNL     1       3.839   2.754  18.119  0.00  0.00    +0.000 C 
BRANCH  16  17
ATOM     17  C   UNL     1       3.218   2.445  19.493  0.00  0.00    +0.000 C 
ATOM     18  C   UNL     1       1.727   2.033  19.489  0.00  0.00    +0.000 C 
ATOM     19  C   UNL     1       1.156   2.756  20.728  0.00  0.00    +0.000 C 
ATOM     20  C   UNL     1       0.903   4.222  20.347  0.00  0.00    +0.000 C 
ATOM     21  C   UNL     1       2.329   4.761  20.147  0.00  0.00    +0.000 C 
ATOM     22  C   UNL     1       3.224   3.570  20.557  0.00  0.00    +0.000 C 
ATOM     23  C   UNL     1       2.370   2.902  21.642  0.00  0.00    +0.000 C 
ENDBRANCH  16  17
ENDBRANCH   1  16
TORSDOF 4
ENDMDL
MODEL 7
REMARK VINA RESULT:      -6.9      3.780      6.963
REMARK  Name = 
REMARK  5 active torsions:
REMARK  status: ('A' for Active; 'I' for Inactive)
REMARK    1  A    between atoms: C_1  and  C_2
REMARK    2  A    between atoms: C_2  and  N_3
REMARK    3  A    between atoms: C_2  and  C_16
REMARK    4  A    between atoms: C_4  and  C_6
REMARK    5  A    between atoms: C_9  and  N_10
REMARK                            x       y       z     vdW  Elec       q    Type
REMARK                         _______ _______ _______ _____ _____    ______ ____
ROOT
ATOM      1  N   UNL     1       3.525   4.703  17.851  0.00  0.00    +0.000 N 
ATOM      2  C   UNL     1       2.230   5.148  17.959  0.00  0.00    +0.000 C 
ATOM      3  O   UNL     1       1.284   4.586  17.418  0.00  0.00    +0.000 OA
ATOM      4  H   UNL     1       4.267   5.263  18.253  0.00  0.00    +0.000 HD
ENDROOT
BRANCH   2   5
ATOM      5  C   UNL     1       1.970   6.337  18.827  0.00  0.00    +0.000 A 
ATOM      6  C   UNL     1       1.910   7.573  18.155  0.00  0.00    +0.000 A 
ATOM      7  C   UNL     1       1.650   8.761  18.840  0.00  0.00    +0.000 A 
ATOM      8  C   UNL     1       1.448   8.724  20.218  0.00  0.00    +0.000 A 
ATOM      9  C   UNL     1       1.521   7.510  20.916  0.00  0.00    +0.000 A 
ATOM     10  C   UNL     1       1.788   6.319  20.221  0.00  0.00    +0.000 A 
ATOM     11 CL   UNL     1       1.909   4.893  21.193  0.00  0.00    +0.000 Cl
BRANCH   8  12
ATOM     12  N   UNL     1       1.165   9.967  20.953  0.00  0.00    +0.000 N 
ATOM     13  O   UNL     1       1.216   9.920  22.190  0.00  0.00    +0.000 OA
ATOM     14  O   UNL     1       0.898  10.977  20.292  0.00  0.00    +0.000 OA
ENDBRANCH   8  12
ENDBRANCH   2   5
BRANCH   1  16
ATOM     15  C   UNL     1       3.865   2.309  17.810  0.00  0.00    +0.000 C 
ATOM     16  C   UNL     1       3.928   3.596  16.980  0.00  0.00    +0.000 C 
BRANCH  16  17
ATOM     17  C   UNL     1       5.347   3.838  16.434  0.00  0.00    +0.000 C 
ATOM     18  C   UNL     1       6.400   4.315  17.463  0.00  0.00    +0.000 C 
ATOM     19  C   UNL     1       7.210   5.369  16.677  0.00  0.00    +0.000 C 
ATOM     20  C   UNL     1       6.408   6.678  16.672  0.00  0.00    +0.000 C 
ATOM     21  C   UNL     1       5.196   6.318  15.798  0.00  0.00    +0.000 C 
ATOM     22  C   UNL     1       5.517   4.888  15.309  0.00  0.00    +0.000 C 
ATOM     23  C   UNL     1       7.048   4.928  15.224  0.00  0.00    +0.000 C 
ENDBRANCH  16  17
ENDBRANCH   1  16
TORSDOF 4
ENDMDL
MODEL 8
REMARK VINA RESULT:      -6.9      4.915      8.181
REMARK  Name = 
REMARK  5 active torsions:
REMARK  status: ('A' for Active; 'I' for Inactive)
REMARK    1  A    between atoms: C_1  and  C_2
REMARK    2  A    between atoms: C_2  and  N_3
REMARK    3  A    between atoms: C_2  and  C_16
REMARK    4  A    between atoms: C_4  and  C_6
REMARK    5  A    between atoms: C_9  and  N_10
REMARK                            x       y       z     vdW  Elec       q    Type
REMARK                         _______ _______ _______ _____ _____    ______ ____
ROOT
ATOM      1  N   UNL     1       2.621   6.491  18.525  0.00  0.00    +0.000 N 
ATOM      2  C   UNL     1       2.310   7.818  18.357  0.00  0.00    +0.000 C 
ATOM      3  O   UNL     1       2.584   8.445  17.339  0.00  0.00    +0.000 OA
ATOM      4  H   UNL     1       2.442   6.060  19.423  0.00  0.00    +0.000 HD
ENDROOT
BRANCH   2   5
ATOM      5  C   UNL     1       1.552   8.502  19.449  0.00  0.00    +0.000 A 
ATOM      6  C   UNL     1       1.883   8.098  20.758  0.00  0.00    +0.000 A 
ATOM      7  C   UNL     1       1.269   8.673  21.872  0.00  0.00    +0.000 A 
ATOM      8  C   UNL     1       0.307   9.663  21.687  0.00  0.00    +0.000 A 
ATOM      9  C   UNL     1      -0.056  10.071  20.395  0.00  0.00    +0.000 A 
ATOM     10  C   UNL     1       0.562   9.486  19.278  0.00  0.00    +0.000 A 
ATOM     11 CL   UNL     1      -0.003  10.028  17.736  0.00  0.00    +0.000 Cl
BRANCH   8  12
ATOM     12  N   UNL     1      -0.343  10.283  22.852  0.00  0.00    +0.000 N 
ATOM     13  O   UNL     1      -1.185  11.164  22.631  0.00  0.00    +0.000 OA
ATOM     14  O   UNL     1      -0.012   9.885  23.974  0.00  0.00    +0.000 OA
ENDBRANCH   8  12
ENDBRANCH   2   5
BRANCH   1  16
ATOM     15  C   UNL     1       2.895   4.282  17.579  0.00  0.00    +0.000 C 
ATOM     16  C   UNL     1       3.420   5.722  17.567  0.00  0.00    +0.000 C 
BRANCH  16  17
ATOM     17  C   UNL     1       4.909   5.776  17.953  0.00  0.00    +0.000 C 
ATOM     18  C   UNL     1       5.761   6.848  17.231  0.00  0.00    +0.000 C 
ATOM     19  C   UNL     1       7.091   6.114  16.952  0.00  0.00    +0.000 C 
ATOM     20  C   UNL     1       6.894   5.227  15.716  0.00  0.00    +0.000 C 
ATOM     21  C   UNL     1       5.908   4.164  16.226  0.00  0.00    +0.000 C 
ATOM     22  C   UNL     1       5.760   4.502  17.726  0.00  0.00    +0.000 C 
ATOM     23  C   UNL     1       7.150   5.060  18.056  0.00  0.00    +0.000 C 
ENDBRANCH  16  17
ENDBRANCH   1  16
TORSDOF 4
ENDMDL
MODEL 9
REMARK VINA RESULT:      -6.9      4.280      7.270
REMARK  Name = 
REMARK  5 active torsions:
REMARK  status: ('A' for Active; 'I' for Inactive)
REMARK    1  A    between atoms: C_1  and  C_2
REMARK    2  A    between atoms: C_2  and  N_3
REMARK    3  A    between atoms: C_2  and  C_16
REMARK    4  A    between atoms: C_4  and  C_6
REMARK    5  A    between atoms: C_9  and  N_10
REMARK                            x       y       z     vdW  Elec       q    Type
REMARK                         _______ _______ _______ _____ _____    ______ ____
ROOT
ATOM      1  N   UNL     1       3.318   5.445  18.113  0.00  0.00    +0.000 N 
ATOM      2  C   UNL     1       3.259   6.776  17.782  0.00  0.00    +0.000 C 
ATOM      3  O   UNL     1       3.791   7.240  16.780  0.00  0.00    +0.000 OA
ATOM      4  H   UNL     1       2.929   5.146  18.999  0.00  0.00    +0.000 HD
ENDROOT
BRANCH   2   5
ATOM      5  C   UNL     1       2.457   7.679  18.662  0.00  0.00    +0.000 A 
ATOM      6  C   UNL     1       2.170   8.949  18.124  0.00  0.00    +0.000 A 
ATOM      7  C   UNL     1       1.409   9.883  18.829  0.00  0.00    +0.000 A 
ATOM      8  C   UNL     1       0.924   9.555  20.093  0.00  0.00    +0.000 A 
ATOM      9  C   UNL     1       1.209   8.305  20.662  0.00  0.00    +0.000 A 
ATOM     10  C   UNL     1       1.980   7.372  19.949  0.00  0.00    +0.000 A 
ATOM     11 CL   UNL     1       2.313   5.887  20.772  0.00  0.00    +0.000 Cl
BRANCH   8  12
ATOM     12  N   UNL     1       0.114  10.525  20.844  0.00  0.00    +0.000 N 
ATOM     13  O   UNL     1       0.607  11.001  21.876  0.00  0.00    +0.000 OA
ATOM     14  O   UNL     1      -1.005  10.807  20.399  0.00  0.00    +0.000 OA
ENDBRANCH   8  12
ENDBRANCH   2   5
BRANCH   1  16
ATOM     15  C   UNL     1       3.391   3.122  17.443  0.00  0.00    +0.000 C 
ATOM     16  C   UNL     1       4.125   4.466  17.380  0.00  0.00    +0.000 C 
BRANCH  16  17
ATOM     17  C   UNL     1       5.530   4.363  18.000  0.00  0.00    +0.000 C 
ATOM     18  C   UNL     1       5.846   5.362  19.139  0.00  0.00    +0.000 C 
ATOM     19  C   UNL     1       7.307   5.773  18.853  0.00  0.00    +0.000 C 
ATOM     20  C   UNL     1       7.294   6.825  17.736  0.00  0.00    +0.000 C 
ATOM     21  C   UNL     1       6.826   6.010  16.520  0.00  0.00    +0.000 C 
ATOM     22  C   UNL     1       6.748   4.566  17.065  0.00  0.00    +0.000 C 
ATOM     23  C   UNL     1       7.873   4.568  18.106  0.00  0.00    +0.000 C 
ENDBRANCH  16  17
ENDBRANCH   1  16
TORSDOF 4
ENDMDL
