MODEL 1
REMARK VINA RESULT:      -7.8      0.000      0.000
REMARK  Name = 
REMARK  6 active torsions:
REMARK  status: ('A' for Active; 'I' for Inactive)
REMARK    1  A    between atoms: C_1  and  C_2
REMARK    2  A    between atoms: C_5  and  N_6
REMARK    3  A    between atoms: C_8  and  C_9
REMARK    4  A    between atoms: C_9  and  N_10
REMARK    5  A    between atoms: C_16  and  N_17
REMARK    6  A    between atoms: C_18  and  C_20
REMARK                            x       y       z     vdW  Elec       q    Type
REMARK                         _______ _______ _______ _____ _____    ______ ____
ROOT
ATOM      1  N   UNL     1       4.652   5.095  17.786  0.00  0.00    +0.000 N 
ATOM      2  N   UNL     1       5.676   4.458  17.166  0.00  0.00    +0.000 NA
ATOM      3  C   UNL     1       5.911   5.193  16.068  0.00  0.00    +0.000 A 
ATOM      4  C   UNL     1       5.109   6.361  16.041  0.00  0.00    +0.000 A 
ATOM      5  C   UNL     1       4.443   6.359  17.244  0.00  0.00    +0.000 A 
ENDROOT
BRANCH   1  10
ATOM      6  C   UNL     1       1.200   2.584  21.606  0.00  0.00    +0.000 C 
ATOM      7  C   UNL     1       2.157   3.199  20.627  0.00  0.00    +0.000 A 
ATOM      8  C   UNL     1       2.437   2.580  19.402  0.00  0.00    +0.000 A 
ATOM      9  C   UNL     1       3.276   3.196  18.469  0.00  0.00    +0.000 A 
ATOM     10  C   UNL     1       3.873   4.427  18.768  0.00  0.00    +0.000 A 
ATOM     11  C   UNL     1       3.608   5.044  19.999  0.00  0.00    +0.000 A 
ATOM     12  C   UNL     1       2.745   4.437  20.914  0.00  0.00    +0.000 A 
ENDBRANCH   1  10
BRANCH   5  13
ATOM     13  N   UNL     1       3.758   7.414  17.846  0.00  0.00    +0.000 N 
ATOM     14  C   UNL     1       2.337   7.492  17.935  0.00  0.00    +0.000 C 
ATOM     15  O   UNL     1       1.599   6.572  17.626  0.00  0.00    +0.000 OA
ATOM     16  H   UNL     1       4.308   8.205  18.193  0.00  0.00    +0.000 HD
BRANCH  14  17
ATOM     17  C   UNL     1       1.924   8.736  18.527  0.00  0.00    +0.000 A 
ATOM     18  C   UNL     1       1.884   9.997  17.906  0.00  0.00    +0.000 A 
ATOM     19  N   UNL     1       1.369  10.948  18.687  0.00  0.00    +0.000 NA
ATOM     20  N   UNL     1       1.033  10.306  19.828  0.00  0.00    +0.000 N 
ATOM     21  C   UNL     1       0.303  10.797  20.904  0.00  0.00    +0.000 A 
ATOM     22  C   UNL     1       0.024  10.002  21.945  0.00  0.00    +0.000 A 
ATOM     23  C   UNL     1       0.617   8.636  21.880  0.00  0.00    +0.000 A 
ATOM     24  N   UNL     1       1.267   8.124  20.873  0.00  0.00    +0.000 NA
ATOM     25  C   UNL     1       1.441   8.963  19.802  0.00  0.00    +0.000 A 
ENDBRANCH  14  17
ENDBRANCH   5  13
BRANCH   3  26
ATOM     26  C   UNL     1       6.949   4.771  15.059  0.00  0.00    +0.000 C 
BRANCH  26  27
ATOM     27  N   UNL     1       6.532   5.120  13.685  0.00  0.00    +0.000 NA
ATOM     28  C   UNL     1       5.448   4.226  13.232  0.00  0.00    +0.000 C 
ATOM     29  C   UNL     1       6.140   3.049  12.570  0.00  0.00    +0.000 C 
ATOM     30  C   UNL     1       7.326   3.691  11.886  0.00  0.00    +0.000 C 
ATOM     31  C   UNL     1       7.611   4.953  12.691  0.00  0.00    +0.000 C 
ENDBRANCH  26  27
ENDBRANCH   3  26
TORSDOF 5
ENDMDL
MODEL 2
REMARK VINA RESULT:      -7.6      1.444      2.199
REMARK  Name = 
REMARK  6 active torsions:
REMARK  status: ('A' for Active; 'I' for Inactive)
REMARK    1  A    between atoms: C_1  and  C_2
REMARK    2  A    between atoms: C_5  and  N_6
REMARK    3  A    between atoms: C_8  and  C_9
REMARK    4  A    between atoms: C_9  and  N_10
REMARK    5  A    between atoms: C_16  and  N_17
REMARK    6  A    between atoms: C_18  and  C_20
REMARK                            x       y       z     vdW  Elec       q    Type
REMARK                         _______ _______ _______ _____ _____    ______ ____
ROOT
ATOM      1  N   UNL     1       3.260   5.985  18.559  0.00  0.00    +0.000 N 
ATOM      2  N   UNL     1       4.393   5.618  17.912  0.00  0.00    +0.000 NA
ATOM      3  C   UNL     1       4.498   6.491  16.899  0.00  0.00    +0.000 A 
ATOM      4  C   UNL     1       3.490   7.484  16.961  0.00  0.00    +0.000 A 
ATOM      5  C   UNL     1       2.822   7.236  18.137  0.00  0.00    +0.000 A 
ENDROOT
BRANCH   1  10
ATOM      6  C   UNL     1       0.939   2.124  22.097  0.00  0.00    +0.000 C 
ATOM      7  C   UNL     1       1.495   3.181  21.188  0.00  0.00    +0.000 A 
ATOM      8  C   UNL     1       2.304   4.210  21.686  0.00  0.00    +0.000 A 
ATOM      9  C   UNL     1       2.874   5.149  20.821  0.00  0.00    +0.000 A 
ATOM     10  C   UNL     1       2.610   5.087  19.447  0.00  0.00    +0.000 A 
ATOM     11  C   UNL     1       1.788   4.068  18.946  0.00  0.00    +0.000 A 
ATOM     12  C   UNL     1       1.247   3.116  19.812  0.00  0.00    +0.000 A 
ENDBRANCH   1  10
BRANCH   5  13
ATOM     13  N   UNL     1       1.942   8.078  18.818  0.00  0.00    +0.000 N 
ATOM     14  C   UNL     1       1.633   9.407  18.404  0.00  0.00    +0.000 C 
ATOM     15  O   UNL     1       1.995   9.873  17.338  0.00  0.00    +0.000 OA
ATOM     16  H   UNL     1       1.541   7.740  19.697  0.00  0.00    +0.000 HD
BRANCH  14  17
ATOM     17  C   UNL     1       0.769  10.055  19.354  0.00  0.00    +0.000 A 
ATOM     18  C   UNL     1      -0.255  10.977  19.076  0.00  0.00    +0.000 A 
ATOM     19  N   UNL     1      -0.944  11.336  20.160  0.00  0.00    +0.000 NA
ATOM     20  N   UNL     1      -0.394  10.620  21.165  0.00  0.00    +0.000 N 
ATOM     21  C   UNL     1      -0.848  10.489  22.472  0.00  0.00    +0.000 A 
ATOM     22  C   UNL     1      -0.196   9.698  23.334  0.00  0.00    +0.000 A 
ATOM     23  C   UNL     1       1.050   9.073  22.806  0.00  0.00    +0.000 A 
ATOM     24  N   UNL     1       1.485   9.134  21.579  0.00  0.00    +0.000 NA
ATOM     25  C   UNL     1       0.721   9.889  20.725  0.00  0.00    +0.000 A 
ENDBRANCH  14  17
ENDBRANCH   5  13
BRANCH   3  26
ATOM     26  C   UNL     1       5.608   6.375  15.886  0.00  0.00    +0.000 C 
BRANCH  26  27
ATOM     27  N   UNL     1       6.112   4.988  15.801  0.00  0.00    +0.000 NA
ATOM     28  C   UNL     1       7.471   4.967  15.226  0.00  0.00    +0.000 C 
ATOM     29  C   UNL     1       7.278   4.838  13.727  0.00  0.00    +0.000 C 
ATOM     30  C   UNL     1       6.077   3.925  13.614  0.00  0.00    +0.000 C 
ATOM     31  C   UNL     1       5.302   4.131  14.912  0.00  0.00    +0.000 C 
ENDBRANCH  26  27
ENDBRANCH   3  26
TORSDOF 5
ENDMDL
MODEL 3
REMARK VINA RESULT:      -7.4      6.860     11.538
REMARK  Name = 
REMARK  6 active torsions:
REMARK  status: ('A' for Active; 'I' for Inactive)
REMARK    1  A    between atoms: C_1  and  C_2
REMARK    2  A    between atoms: C_5  and  N_6
REMARK    3  A    between atoms: C_8  and  C_9
REMARK    4  A    between atoms: C_9  and  N_10
REMARK    5  A    between atoms: C_16  and  N_17
REMARK    6  A    between atoms: C_18  and  C_20
REMARK                            x       y       z     vdW  Elec       q    Type
REMARK                         _______ _______ _______ _____ _____    ______ ____
ROOT
ATOM      1  N   UNL     1      -1.642  12.559  22.541  0.00  0.00    +0.000 N 
ATOM      2  N   UNL     1      -1.547  13.047  23.802  0.00  0.00    +0.000 NA
ATOM      3  C   UNL     1      -1.980  14.313  23.704  0.00  0.00    +0.000 A 
ATOM      4  C   UNL     1      -2.454  14.602  22.401  0.00  0.00    +0.000 A 
ATOM      5  C   UNL     1      -2.391  13.404  21.729  0.00  0.00    +0.000 A 
ENDROOT
BRANCH   1  10
ATOM      6  C   UNL     1       1.538   7.994  21.175  0.00  0.00    +0.000 C 
ATOM      7  C   UNL     1       0.647   9.154  21.511  0.00  0.00    +0.000 A 
ATOM      8  C   UNL     1      -0.068   9.192  22.715  0.00  0.00    +0.000 A 
ATOM      9  C   UNL     1      -0.841  10.308  23.049  0.00  0.00    +0.000 A 
ATOM     10  C   UNL     1      -0.932  11.388  22.162  0.00  0.00    +0.000 A 
ATOM     11  C   UNL     1      -0.230  11.349  20.950  0.00  0.00    +0.000 A 
ATOM     12  C   UNL     1       0.564  10.243  20.636  0.00  0.00    +0.000 A 
ENDBRANCH   1  10
BRANCH   5  13
ATOM     13  N   UNL     1      -3.001  13.065  20.522  0.00  0.00    +0.000 N 
ATOM     14  C   UNL     1      -4.284  12.448  20.425  0.00  0.00    +0.000 C 
ATOM     15  O   UNL     1      -5.024  12.299  21.382  0.00  0.00    +0.000 OA
ATOM     16  H   UNL     1      -2.472  13.216  19.659  0.00  0.00    +0.000 HD
BRANCH  14  17
ATOM     17  C   UNL     1      -4.605  12.138  19.058  0.00  0.00    +0.000 A 
ATOM     18  C   UNL     1      -5.745  12.546  18.343  0.00  0.00    +0.000 A 
ATOM     19  N   UNL     1      -5.719  12.175  17.062  0.00  0.00    +0.000 NA
ATOM     20  N   UNL     1      -4.533  11.543  16.915  0.00  0.00    +0.000 N 
ATOM     21  C   UNL     1      -3.932  11.112  15.738  0.00  0.00    +0.000 A 
ATOM     22  C   UNL     1      -2.724  10.535  15.774  0.00  0.00    +0.000 A 
ATOM     23  C   UNL     1      -2.155  10.332  17.136  0.00  0.00    +0.000 A 
ATOM     24  N   UNL     1      -2.665  10.759  18.257  0.00  0.00    +0.000 NA
ATOM     25  C   UNL     1      -3.860  11.421  18.142  0.00  0.00    +0.000 A 
ENDBRANCH  14  17
ENDBRANCH   5  13
BRANCH   3  26
ATOM     26  C   UNL     1      -1.963  15.234  24.898  0.00  0.00    +0.000 C 
BRANCH  26  27
ATOM     27  N   UNL     1      -0.584  15.646  25.235  0.00  0.00    +0.000 NA
ATOM     28  C   UNL     1      -0.514  16.122  26.630  0.00  0.00    +0.000 C 
ATOM     29  C   UNL     1      -0.793  17.612  26.569  0.00  0.00    +0.000 C 
ATOM     30  C   UNL     1      -0.119  18.033  25.282  0.00  0.00    +0.000 C 
ATOM     31  C   UNL     1      -0.101  16.777  24.417  0.00  0.00    +0.000 C 
ENDBRANCH  26  27
ENDBRANCH   3  26
TORSDOF 5
ENDMDL
MODEL 4
REMARK VINA RESULT:      -7.4      2.472      4.242
REMARK  Name = 
REMARK  6 active torsions:
REMARK  status: ('A' for Active; 'I' for Inactive)
REMARK    1  A    between atoms: C_1  and  C_2
REMARK    2  A    between atoms: C_5  and  N_6
REMARK    3  A    between atoms: C_8  and  C_9
REMARK    4  A    between atoms: C_9  and  N_10
REMARK    5  A    between atoms: C_16  and  N_17
REMARK    6  A    between atoms: C_18  and  C_20
REMARK                            x       y       z     vdW  Elec       q    Type
REMARK                         _______ _______ _______ _____ _____    ______ ____
ROOT
ATOM      1  N   UNL     1       6.155   6.065  16.578  0.00  0.00    +0.000 N 
ATOM      2  N   UNL     1       6.603   5.376  15.500  0.00  0.00    +0.000 NA
ATOM      3  C   UNL     1       5.749   4.347  15.383  0.00  0.00    +0.000 A 
ATOM      4  C   UNL     1       4.691   4.439  16.320  0.00  0.00    +0.000 A 
ATOM      5  C   UNL     1       4.883   5.646  16.951  0.00  0.00    +0.000 A 
ENDROOT
BRANCH   1  10
ATOM      6  C   UNL     1       9.264   9.880  19.510  0.00  0.00    +0.000 C 
ATOM      7  C   UNL     1       8.508   8.862  18.707  0.00  0.00    +0.000 A 
ATOM      8  C   UNL     1       8.529   7.506  19.054  0.00  0.00    +0.000 A 
ATOM      9  C   UNL     1       7.767   6.576  18.340  0.00  0.00    +0.000 A 
ATOM     10  C   UNL     1       6.999   6.993  17.246  0.00  0.00    +0.000 A 
ATOM     11  C   UNL     1       6.986   8.347  16.884  0.00  0.00    +0.000 A 
ATOM     12  C   UNL     1       7.727   9.274  17.621  0.00  0.00    +0.000 A 
ENDBRANCH   1  10
BRANCH   5  13
ATOM     13  N   UNL     1       3.978   6.352  17.744  0.00  0.00    +0.000 N 
ATOM     14  C   UNL     1       3.593   5.954  19.058  0.00  0.00    +0.000 C 
ATOM     15  O   UNL     1       4.132   5.044  19.663  0.00  0.00    +0.000 OA
ATOM     16  H   UNL     1       3.522   7.171  17.334  0.00  0.00    +0.000 HD
BRANCH  14  17
ATOM     17  C   UNL     1       2.581   6.829  19.586  0.00  0.00    +0.000 A 
ATOM     18  C   UNL     1       1.850   6.659  20.776  0.00  0.00    +0.000 A 
ATOM     19  N   UNL     1       1.044   7.686  21.045  0.00  0.00    +0.000 NA
ATOM     20  N   UNL     1       1.263   8.564  20.041  0.00  0.00    +0.000 N 
ATOM     21  C   UNL     1       0.805   9.871  19.931  0.00  0.00    +0.000 A 
ATOM     22  C   UNL     1       1.157  10.619  18.877  0.00  0.00    +0.000 A 
ATOM     23  C   UNL     1       1.973   9.921  17.844  0.00  0.00    +0.000 A 
ATOM     24  N   UNL     1       2.458   8.714  17.930  0.00  0.00    +0.000 NA
ATOM     25  C   UNL     1       2.135   8.033  19.076  0.00  0.00    +0.000 A 
ENDBRANCH  14  17
ENDBRANCH   5  13
BRANCH   3  26
ATOM     26  C   UNL     1       5.948   3.290  14.327  0.00  0.00    +0.000 C 
BRANCH  26  27
ATOM     27  N   UNL     1       5.894   3.872  12.969  0.00  0.00    +0.000 NA
ATOM     28  C   UNL     1       4.932   3.132  12.129  0.00  0.00    +0.000 C 
ATOM     29  C   UNL     1       5.733   2.027  11.468  0.00  0.00    +0.000 C 
ATOM     30  C   UNL     1       7.069   2.684  11.203  0.00  0.00    +0.000 C 
ATOM     31  C   UNL     1       7.181   3.787  12.250  0.00  0.00    +0.000 C 
ENDBRANCH  26  27
ENDBRANCH   3  26
TORSDOF 5
ENDMDL
MODEL 5
REMARK VINA RESULT:      -7.3      6.636     11.245
REMARK  Name = 
REMARK  6 active torsions:
REMARK  status: ('A' for Active; 'I' for Inactive)
REMARK    1  A    between atoms: C_1  and  C_2
REMARK    2  A    between atoms: C_5  and  N_6
REMARK    3  A    between atoms: C_8  and  C_9
REMARK    4  A    between atoms: C_9  and  N_10
REMARK    5  A    between atoms: C_16  and  N_17
REMARK    6  A    between atoms: C_18  and  C_20
REMARK                            x       y       z     vdW  Elec       q    Type
REMARK                         _______ _______ _______ _____ _____    ______ ____
ROOT
ATOM      1  N   UNL     1      -0.754  12.705  21.877  0.00  0.00    +0.000 N 
ATOM      2  N   UNL     1      -0.401  13.383  22.996  0.00  0.00    +0.000 NA
ATOM      3  C   UNL     1      -0.623  14.671  22.690  0.00  0.00    +0.000 A 
ATOM      4  C   UNL     1      -1.220  14.807  21.413  0.00  0.00    +0.000 A 
ATOM      5  C   UNL     1      -1.455  13.519  20.994  0.00  0.00    +0.000 A 
ENDROOT
BRANCH   1  10
ATOM      6  C   UNL     1       1.372   7.431  21.179  0.00  0.00    +0.000 C 
ATOM      7  C   UNL     1       0.751   8.787  21.346  0.00  0.00    +0.000 A 
ATOM      8  C   UNL     1       0.098   9.143  22.534  0.00  0.00    +0.000 A 
ATOM      9  C   UNL     1      -0.416  10.432  22.704  0.00  0.00    +0.000 A 
ATOM     10  C   UNL     1      -0.313  11.370  21.670  0.00  0.00    +0.000 A 
ATOM     11  C   UNL     1       0.326  11.015  20.475  0.00  0.00    +0.000 A 
ATOM     12  C   UNL     1       0.864   9.735  20.322  0.00  0.00    +0.000 A 
ENDBRANCH   1  10
BRANCH   5  13
ATOM     13  N   UNL     1      -2.278  13.093  19.952  0.00  0.00    +0.000 N 
ATOM     14  C   UNL     1      -3.593  12.574  20.138  0.00  0.00    +0.000 C 
ATOM     15  O   UNL     1      -4.171  12.595  21.211  0.00  0.00    +0.000 OA
ATOM     16  H   UNL     1      -1.892  13.101  19.004  0.00  0.00    +0.000 HD
BRANCH  14  17
ATOM     17  C   UNL     1      -4.157  12.136  18.890  0.00  0.00    +0.000 A 
ATOM     18  C   UNL     1      -5.406  12.494  18.352  0.00  0.00    +0.000 A 
ATOM     19  N   UNL     1      -5.611  11.996  17.132  0.00  0.00    +0.000 NA
ATOM     20  N   UNL     1      -4.474  11.326  16.841  0.00  0.00    +0.000 N 
ATOM     21  C   UNL     1      -4.096  10.767  15.627  0.00  0.00    +0.000 A 
ATOM     22  C   UNL     1      -2.904  10.170  15.505  0.00  0.00    +0.000 A 
ATOM     23  C   UNL     1      -2.099  10.091  16.757  0.00  0.00    +0.000 A 
ATOM     24  N   UNL     1      -2.397  10.640  17.901  0.00  0.00    +0.000 NA
ATOM     25  C   UNL     1      -3.592  11.313  17.934  0.00  0.00    +0.000 A 
ENDBRANCH  14  17
ENDBRANCH   5  13
BRANCH   3  26
ATOM     26  C   UNL     1      -0.282  15.770  23.664  0.00  0.00    +0.000 C 
BRANCH  26  27
ATOM     27  N   UNL     1      -0.827  15.482  25.008  0.00  0.00    +0.000 NA
ATOM     28  C   UNL     1      -2.288  15.684  25.027  0.00  0.00    +0.000 C 
ATOM     29  C   UNL     1      -2.495  17.137  25.411  0.00  0.00    +0.000 C 
ATOM     30  C   UNL     1      -1.388  17.386  26.411  0.00  0.00    +0.000 C 
ATOM     31  C   UNL     1      -0.298  16.382  26.053  0.00  0.00    +0.000 C 
ENDBRANCH  26  27
ENDBRANCH   3  26
TORSDOF 5
ENDMDL
MODEL 6
REMARK VINA RESULT:      -7.3      3.387     10.187
REMARK  Name = 
REMARK  6 active torsions:
REMARK  status: ('A' for Active; 'I' for Inactive)
REMARK    1  A    between atoms: C_1  and  C_2
REMARK    2  A    between atoms: C_5  and  N_6
REMARK    3  A    between atoms: C_8  and  C_9
REMARK    4  A    between atoms: C_9  and  N_10
REMARK    5  A    between atoms: C_16  and  N_17
REMARK    6  A    between atoms: C_18  and  C_20
REMARK                            x       y       z     vdW  Elec       q    Type
REMARK                         _______ _______ _______ _____ _____    ______ ____
ROOT
ATOM      1  N   UNL     1       0.904  11.844  20.907  0.00  0.00    +0.000 N 
ATOM      2  N   UNL     1       0.136  12.399  21.876  0.00  0.00    +0.000 NA
ATOM      3  C   UNL     1      -0.798  11.471  22.134  0.00  0.00    +0.000 A 
ATOM      4  C   UNL     1      -0.564  10.279  21.406  0.00  0.00    +0.000 A 
ATOM      5  C   UNL     1       0.636  10.487  20.766  0.00  0.00    +0.000 A 
ENDROOT
BRANCH   1  10
ATOM      6  C   UNL     1       4.074  15.380  17.702  0.00  0.00    +0.000 C 
ATOM      7  C   UNL     1       3.299  14.409  18.545  0.00  0.00    +0.000 A 
ATOM      8  C   UNL     1       3.448  14.380  19.937  0.00  0.00    +0.000 A 
ATOM      9  C   UNL     1       2.671  13.520  20.719  0.00  0.00    +0.000 A 
ATOM     10  C   UNL     1       1.757  12.652  20.108  0.00  0.00    +0.000 A 
ATOM     11  C   UNL     1       1.614  12.667  18.714  0.00  0.00    +0.000 A 
ATOM     12  C   UNL     1       2.373  13.550  17.942  0.00  0.00    +0.000 A 
ENDBRANCH   1  10
BRANCH   5  13
ATOM     13  N   UNL     1       1.460   9.539  20.160  0.00  0.00    +0.000 N 
ATOM     14  C   UNL     1       1.299   9.086  18.818  0.00  0.00    +0.000 C 
ATOM     15  O   UNL     1       0.518   9.597  18.032  0.00  0.00    +0.000 OA
ATOM     16  H   UNL     1       2.187   9.102  20.733  0.00  0.00    +0.000 HD
BRANCH  14  17
ATOM     17  C   UNL     1       2.240   8.044  18.508  0.00  0.00    +0.000 A 
ATOM     18  C   UNL     1       3.242   8.073  17.522  0.00  0.00    +0.000 A 
ATOM     19  N   UNL     1       4.019   6.989  17.534  0.00  0.00    +0.000 NA
ATOM     20  N   UNL     1       3.549   6.245  18.560  0.00  0.00    +0.000 N 
ATOM     21  C   UNL     1       4.107   5.099  19.113  0.00  0.00    +0.000 A 
ATOM     22  C   UNL     1       3.524   4.508  20.163  0.00  0.00    +0.000 A 
ATOM     23  C   UNL     1       2.236   5.116  20.603  0.00  0.00    +0.000 A 
ATOM     24  N   UNL     1       1.703   6.213  20.141  0.00  0.00    +0.000 NA
ATOM     25  C   UNL     1       2.398   6.818  19.126  0.00  0.00    +0.000 A 
ENDBRANCH  14  17
ENDBRANCH   5  13
BRANCH   3  26
ATOM     26  C   UNL     1      -1.905  11.738  23.123  0.00  0.00    +0.000 C 
BRANCH  26  27
ATOM     27  N   UNL     1      -2.621  12.990  22.799  0.00  0.00    +0.000 NA
ATOM     28  C   UNL     1      -3.191  13.589  24.021  0.00  0.00    +0.000 C 
ATOM     29  C   UNL     1      -4.581  12.996  24.156  0.00  0.00    +0.000 C 
ATOM     30  C   UNL     1      -5.049  12.893  22.721  0.00  0.00    +0.000 C 
ATOM     31  C   UNL     1      -3.772  12.783  21.896  0.00  0.00    +0.000 C 
ENDBRANCH  26  27
ENDBRANCH   3  26
TORSDOF 5
ENDMDL
MODEL 7
REMARK VINA RESULT:      -7.2      3.722      9.677
REMARK  Name = 
REMARK  6 active torsions:
REMARK  status: ('A' for Active; 'I' for Inactive)
REMARK    1  A    between atoms: C_1  and  C_2
REMARK    2  A    between atoms: C_5  and  N_6
REMARK    3  A    between atoms: C_8  and  C_9
REMARK    4  A    between atoms: C_9  and  N_10
REMARK    5  A    between atoms: C_16  and  N_17
REMARK    6  A    between atoms: C_18  and  C_20
REMARK                            x       y       z     vdW  Elec       q    Type
REMARK                         _______ _______ _______ _____ _____    ______ ____
ROOT
ATOM      1  N   UNL     1      -0.210  11.543  18.778  0.00  0.00    +0.000 N 
ATOM      2  N   UNL     1      -1.403  12.164  18.609  0.00  0.00    +0.000 NA
ATOM      3  C   UNL     1      -2.133  11.296  17.892  0.00  0.00    +0.000 A 
ATOM      4  C   UNL     1      -1.444  10.075  17.694  0.00  0.00    +0.000 A 
ATOM      5  C   UNL     1      -0.287  10.200  18.427  0.00  0.00    +0.000 A 
ENDROOT
BRANCH   1  10
ATOM      6  C   UNL     1       4.233  14.846  20.253  0.00  0.00    +0.000 C 
ATOM      7  C   UNL     1       3.107  13.923  19.884  0.00  0.00    +0.000 A 
ATOM      8  C   UNL     1       2.255  13.396  20.861  0.00  0.00    +0.000 A 
ATOM      9  C   UNL     1       1.168  12.594  20.500  0.00  0.00    +0.000 A 
ATOM     10  C   UNL     1       0.944  12.283  19.153  0.00  0.00    +0.000 A 
ATOM     11  C   UNL     1       1.804  12.795  18.172  0.00  0.00    +0.000 A 
ATOM     12  C   UNL     1       2.870  13.621  18.538  0.00  0.00    +0.000 A 
ENDBRANCH   1  10
BRANCH   5  13
ATOM     13  N   UNL     1       0.598   9.192  18.811  0.00  0.00    +0.000 N 
ATOM     14  C   UNL     1       1.786   8.862  18.094  0.00  0.00    +0.000 C 
ATOM     15  O   UNL     1       2.210   9.528  17.166  0.00  0.00    +0.000 OA
ATOM     16  H   UNL     1       0.349   8.621  19.622  0.00  0.00    +0.000 HD
BRANCH  14  17
ATOM     17  C   UNL     1       2.442   7.725  18.680  0.00  0.00    +0.000 A 
ATOM     18  C   UNL     1       2.160   7.131  19.923  0.00  0.00    +0.000 A 
ATOM     19  N   UNL     1       2.880   6.032  20.152  0.00  0.00    +0.000 NA
ATOM     20  N   UNL     1       3.626   5.874  19.037  0.00  0.00    +0.000 N 
ATOM     21  C   UNL     1       4.423   4.791  18.685  0.00  0.00    +0.000 A 
ATOM     22  C   UNL     1       5.066   4.784  17.510  0.00  0.00    +0.000 A 
ATOM     23  C   UNL     1       4.922   6.025  16.698  0.00  0.00    +0.000 A 
ATOM     24  N   UNL     1       4.152   7.041  16.970  0.00  0.00    +0.000 NA
ATOM     25  C   UNL     1       3.451   6.945  18.146  0.00  0.00    +0.000 A 
ENDBRANCH  14  17
ENDBRANCH   5  13
BRANCH   3  26
ATOM     26  C   UNL     1      -3.523  11.649  17.429  0.00  0.00    +0.000 C 
BRANCH  26  27
ATOM     27  N   UNL     1      -4.529  11.330  18.464  0.00  0.00    +0.000 NA
ATOM     28  C   UNL     1      -5.865  11.178  17.855  0.00  0.00    +0.000 C 
ATOM     29  C   UNL     1      -6.486  12.561  17.880  0.00  0.00    +0.000 C 
ATOM     30  C   UNL     1      -5.989  13.136  19.188  0.00  0.00    +0.000 C 
ATOM     31  C   UNL     1      -4.684  12.400  19.471  0.00  0.00    +0.000 C 
ENDBRANCH  26  27
ENDBRANCH   3  26
TORSDOF 5
ENDMDL
MODEL 8
REMARK VINA RESULT:      -7.2      1.660      2.519
REMARK  Name = 
REMARK  6 active torsions:
REMARK  status: ('A' for Active; 'I' for Inactive)
REMARK    1  A    between atoms: C_1  and  C_2
REMARK    2  A    between atoms: C_5  and  N_6
REMARK    3  A    between atoms: C_8  and  C_9
REMARK    4  A    between atoms: C_9  and  N_10
REMARK    5  A    between atoms: C_16  and  N_17
REMARK    6  A    between atoms: C_18  and  C_20
REMARK                            x       y       z     vdW  Elec       q    Type
REMARK                         _______ _______ _______ _____ _____    ______ ____
ROOT
ATOM      1  N   UNL     1       3.525   5.744  18.572  0.00  0.00    +0.000 N 
ATOM      2  N   UNL     1       4.665   5.435  17.907  0.00  0.00    +0.000 NA
ATOM      3  C   UNL     1       4.743   6.354  16.933  0.00  0.00    +0.000 A 
ATOM      4  C   UNL     1       3.710   7.316  17.040  0.00  0.00    +0.000 A 
ATOM      5  C   UNL     1       3.053   7.000  18.206  0.00  0.00    +0.000 A 
ENDROOT
BRANCH   1  10
ATOM      6  C   UNL     1       1.145   2.108  22.304  0.00  0.00    +0.000 C 
ATOM      7  C   UNL     1       1.735   3.026  21.274  0.00  0.00    +0.000 A 
ATOM      8  C   UNL     1       1.007   4.112  20.772  0.00  0.00    +0.000 A 
ATOM      9  C   UNL     1       1.590   5.002  19.865  0.00  0.00    +0.000 A 
ATOM     10  C   UNL     1       2.902   4.792  19.423  0.00  0.00    +0.000 A 
ATOM     11  C   UNL     1       3.630   3.698  19.911  0.00  0.00    +0.000 A 
ATOM     12  C   UNL     1       3.051   2.831  20.840  0.00  0.00    +0.000 A 
ENDBRANCH   1  10
BRANCH   5  13
ATOM     13  N   UNL     1       2.154   7.788  18.925  0.00  0.00    +0.000 N 
ATOM     14  C   UNL     1       1.721   9.082  18.508  0.00  0.00    +0.000 C 
ATOM     15  O   UNL     1       1.983   9.551  17.414  0.00  0.00    +0.000 OA
ATOM     16  H   UNL     1       1.832   7.440  19.831  0.00  0.00    +0.000 HD
BRANCH  14  17
ATOM     17  C   UNL     1       0.869   9.683  19.497  0.00  0.00    +0.000 A 
ATOM     18  C   UNL     1       1.047   9.670  20.892  0.00  0.00    +0.000 A 
ATOM     19  N   UNL     1       0.135  10.393  21.543  0.00  0.00    +0.000 NA
ATOM     20  N   UNL     1      -0.639  10.921  20.570  0.00  0.00    +0.000 N 
ATOM     21  C   UNL     1      -1.630  11.888  20.693  0.00  0.00    +0.000 A 
ATOM     22  C   UNL     1      -2.276  12.330  19.606  0.00  0.00    +0.000 A 
ATOM     23  C   UNL     1      -1.909  11.655  18.329  0.00  0.00    +0.000 A 
ATOM     24  N   UNL     1      -0.958  10.778  18.164  0.00  0.00    +0.000 NA
ATOM     25  C   UNL     1      -0.275  10.435  19.303  0.00  0.00    +0.000 A 
ENDBRANCH  14  17
ENDBRANCH   5  13
BRANCH   3  26
ATOM     26  C   UNL     1       5.853   6.311  15.913  0.00  0.00    +0.000 C 
BRANCH  26  27
ATOM     27  N   UNL     1       6.331   4.929  15.700  0.00  0.00    +0.000 NA
ATOM     28  C   UNL     1       7.562   4.927  14.887  0.00  0.00    +0.000 C 
ATOM     29  C   UNL     1       7.100   4.838  13.445  0.00  0.00    +0.000 C 
ATOM     30  C   UNL     1       5.897   3.925  13.528  0.00  0.00    +0.000 C 
ATOM     31  C   UNL     1       5.372   4.093  14.950  0.00  0.00    +0.000 C 
ENDBRANCH  26  27
ENDBRANCH   3  26
TORSDOF 5
ENDMDL
MODEL 9
REMARK VINA RESULT:      -7.1      6.846     11.641
REMARK  Name = 
REMARK  6 active torsions:
REMARK  status: ('A' for Active; 'I' for Inactive)
REMARK    1  A    between atoms: C_1  and  C_2
REMARK    2  A    between atoms: C_5  and  N_6
REMARK    3  A    between atoms: C_8  and  C_9
REMARK    4  A    between atoms: C_9  and  N_10
REMARK    5  A    between atoms: C_16  and  N_17
REMARK    6  A    between atoms: C_18  and  C_20
REMARK                            x       y       z     vdW  Elec       q    Type
REMARK                         _______ _______ _______ _____ _____    ______ ____
ROOT
ATOM      1  N   UNL     1      -1.538  12.677  22.603  0.00  0.00    +0.000 N 
ATOM      2  N   UNL     1      -1.469  13.199  23.852  0.00  0.00    +0.000 NA
ATOM      3  C   UNL     1      -1.945  14.447  23.720  0.00  0.00    +0.000 A 
ATOM      4  C   UNL     1      -2.419  14.687  22.407  0.00  0.00    +0.000 A 
ATOM      5  C   UNL     1      -2.309  13.475  21.765  0.00  0.00    +0.000 A 
ENDROOT
BRANCH   1  10
ATOM      6  C   UNL     1       1.190   7.895  21.020  0.00  0.00    +0.000 C 
ATOM      7  C   UNL     1       0.537   9.173  21.461  0.00  0.00    +0.000 A 
ATOM      8  C   UNL     1       0.626  10.335  20.685  0.00  0.00    +0.000 A 
ATOM      9  C   UNL     1      -0.044  11.501  21.071  0.00  0.00    +0.000 A 
ATOM     10  C   UNL     1      -0.785  11.523  22.259  0.00  0.00    +0.000 A 
ATOM     11  C   UNL     1      -0.865  10.366  23.046  0.00  0.00    +0.000 A 
ATOM     12  C   UNL     1      -0.217   9.197  22.640  0.00  0.00    +0.000 A 
ENDBRANCH   1  10
BRANCH   5  13
ATOM     13  N   UNL     1      -2.899  13.085  20.563  0.00  0.00    +0.000 N 
ATOM     14  C   UNL     1      -4.213  12.542  20.461  0.00  0.00    +0.000 C 
ATOM     15  O   UNL     1      -4.994  12.510  21.397  0.00  0.00    +0.000 OA
ATOM     16  H   UNL     1      -2.331  13.139  19.713  0.00  0.00    +0.000 HD
BRANCH  14  17
ATOM     17  C   UNL     1      -4.507  12.152  19.109  0.00  0.00    +0.000 A 
ATOM     18  C   UNL     1      -5.651  12.484  18.361  0.00  0.00    +0.000 A 
ATOM     19  N   UNL     1      -5.596  12.049  17.101  0.00  0.00    +0.000 NA
ATOM     20  N   UNL     1      -4.388  11.450  17.000  0.00  0.00    +0.000 N 
ATOM     21  C   UNL     1      -3.759  10.980  15.854  0.00  0.00    +0.000 A 
ATOM     22  C   UNL     1      -2.533  10.446  15.932  0.00  0.00    +0.000 A 
ATOM     23  C   UNL     1      -1.975  10.332  17.310  0.00  0.00    +0.000 A 
ATOM     24  N   UNL     1      -2.512  10.799  18.402  0.00  0.00    +0.000 NA
ATOM     25  C   UNL     1      -3.727  11.414  18.239  0.00  0.00    +0.000 A 
ENDBRANCH  14  17
ENDBRANCH   5  13
BRANCH   3  26
ATOM     26  C   UNL     1      -1.968  15.397  24.890  0.00  0.00    +0.000 C 
BRANCH  26  27
ATOM     27  N   UNL     1      -1.583  16.763  24.477  0.00  0.00    +0.000 NA
ATOM     28  C   UNL     1      -0.115  16.913  24.494  0.00  0.00    +0.000 C 
ATOM     29  C   UNL     1       0.231  17.391  25.891  0.00  0.00    +0.000 C 
ATOM     30  C   UNL     1      -0.922  18.309  26.233  0.00  0.00    +0.000 C 
ATOM     31  C   UNL     1      -2.089  17.809  25.390  0.00  0.00    +0.000 C 
ENDBRANCH  26  27
ENDBRANCH   3  26
TORSDOF 5
ENDMDL
