MODEL 1
REMARK VINA RESULT:      -8.4      0.000      0.000
REMARK  Name = 
REMARK  6 active torsions:
REMARK  status: ('A' for Active; 'I' for Inactive)
REMARK    1  A    between atoms: C_1  and  O_2
REMARK    2  A    between atoms: O_2  and  C_3
REMARK    3  A    between atoms: C_6  and  C_7
REMARK    4  A    between atoms: C_16  and  C_17
REMARK    5  A    between atoms: C_18  and  C_19
REMARK    6  A    between atoms: C_19  and  C_21
REMARK                            x       y       z     vdW  Elec       q    Type
REMARK                         _______ _______ _______ _____ _____    ______ ____
ROOT
ATOM      1  C   UNL     1       3.948   4.489  17.917  0.00  0.00    +0.000 A 
ATOM      2  C   UNL     1       4.207   3.898  19.153  0.00  0.00    +0.000 A 
ATOM      3  C   UNL     1       3.123   3.511  19.938  0.00  0.00    +0.000 A 
ATOM      4  C   UNL     1       3.033   3.671  21.324  0.00  0.00    +0.000 A 
ATOM      5  C   UNL     1       1.913   3.193  21.990  0.00  0.00    +0.000 A 
ATOM      6  C   UNL     1       1.060   2.324  21.313  0.00  0.00    +0.000 A 
ATOM      7  C   UNL     1       1.130   2.263  19.924  0.00  0.00    +0.000 A 
ATOM      8  C   UNL     1       1.964   3.149  19.264  0.00  0.00    +0.000 A 
ATOM      9  N   UNL     1       1.652   3.827  18.141  0.00  0.00    +0.000 NA
ATOM     10  C   UNL     1       2.575   4.708  17.706  0.00  0.00    +0.000 A 
ENDROOT
BRANCH   1  14
ATOM     11  C   UNL     1       7.046   5.389  15.063  0.00  0.00    +0.000 A 
ATOM     12  C   UNL     1       6.033   4.488  14.764  0.00  0.00    +0.000 A 
ATOM     13  C   UNL     1       5.013   4.248  15.680  0.00  0.00    +0.000 A 
ATOM     14  C   UNL     1       4.972   4.883  16.936  0.00  0.00    +0.000 A 
ATOM     15  C   UNL     1       5.993   5.813  17.209  0.00  0.00    +0.000 A 
ATOM     16  C   UNL     1       7.020   6.060  16.284  0.00  0.00    +0.000 A 
BRANCH  11  18
ATOM     17  C   UNL     1       7.649   5.090  12.800  0.00  0.00    +0.000 C 
ATOM     18  O   UNL     1       8.019   5.488  14.111  0.00  0.00    +0.000 OA
ENDBRANCH  11  18
ENDBRANCH   1  14
BRANCH  10  19
ATOM     19  C   UNL     1       2.197   6.164  17.710  0.00  0.00    +0.000 C 
ATOM     20  C   UNL     1       2.545   7.139  18.571  0.00  0.00    +0.000 C 
BRANCH  20  21
ATOM     21  C   UNL     1       2.122   8.546  18.215  0.00  0.00    +0.000 C 
ATOM     22  O   UNL     1       2.589   9.119  17.237  0.00  0.00    +0.000 OA
BRANCH  21  23
ATOM     23  C   UNL     1       1.204   9.287  19.142  0.00  0.00    +0.000 A 
ATOM     24  C   UNL     1       0.472  10.367  18.626  0.00  0.00    +0.000 A 
ATOM     25  C   UNL     1      -0.404  11.109  19.439  0.00  0.00    +0.000 A 
ATOM     26  C   UNL     1      -0.552  10.745  20.768  0.00  0.00    +0.000 A 
ATOM     27  F   UNL     1      -1.389  11.439  21.548  0.00  0.00    +0.000 F 
ATOM     28  C   UNL     1       0.144   9.661  21.294  0.00  0.00    +0.000 A 
ATOM     29  C   UNL     1       1.030   8.926  20.482  0.00  0.00    +0.000 A 
ENDBRANCH  21  23
ENDBRANCH  20  21
ENDBRANCH  10  19
TORSDOF 5
ENDMDL
MODEL 2
REMARK VINA RESULT:      -8.4      0.713      1.432
REMARK  Name = 
REMARK  6 active torsions:
REMARK  status: ('A' for Active; 'I' for Inactive)
REMARK    1  A    between atoms: C_1  and  O_2
REMARK    2  A    between atoms: O_2  and  C_3
REMARK    3  A    between atoms: C_6  and  C_7
REMARK    4  A    between atoms: C_16  and  C_17
REMARK    5  A    between atoms: C_18  and  C_19
REMARK    6  A    between atoms: C_19  and  C_21
REMARK                            x       y       z     vdW  Elec       q    Type
REMARK                         _______ _______ _______ _____ _____    ______ ____
ROOT
ATOM      1  C   UNL     1       4.067   4.174  17.825  0.00  0.00    +0.000 A 
ATOM      2  C   UNL     1       4.246   3.416  18.981  0.00  0.00    +0.000 A 
ATOM      3  C   UNL     1       3.151   3.225  19.821  0.00  0.00    +0.000 A 
ATOM      4  C   UNL     1       3.190   3.261  21.218  0.00  0.00    +0.000 A 
ATOM      5  C   UNL     1       2.029   3.003  21.935  0.00  0.00    +0.000 A 
ATOM      6  C   UNL     1       0.947   2.439  21.263  0.00  0.00    +0.000 A 
ATOM      7  C   UNL     1       0.913   2.504  19.873  0.00  0.00    +0.000 A 
ATOM      8  C   UNL     1       1.899   3.224  19.220  0.00  0.00    +0.000 A 
ATOM      9  N   UNL     1       1.696   4.068  18.188  0.00  0.00    +0.000 NA
ATOM     10  C   UNL     1       2.781   4.739  17.750  0.00  0.00    +0.000 A 
ENDROOT
BRANCH   1  14
ATOM     11  C   UNL     1       7.066   5.114  14.881  0.00  0.00    +0.000 A 
ATOM     12  C   UNL     1       7.328   5.239  16.239  0.00  0.00    +0.000 A 
ATOM     13  C   UNL     1       6.363   4.883  17.176  0.00  0.00    +0.000 A 
ATOM     14  C   UNL     1       5.094   4.405  16.797  0.00  0.00    +0.000 A 
ATOM     15  C   UNL     1       4.858   4.259  15.417  0.00  0.00    +0.000 A 
ATOM     16  C   UNL     1       5.833   4.614  14.471  0.00  0.00    +0.000 A 
BRANCH  11  18
ATOM     17  C   UNL     1       7.916   5.272  12.683  0.00  0.00    +0.000 C 
ATOM     18  O   UNL     1       8.068   5.555  14.066  0.00  0.00    +0.000 OA
ENDBRANCH  11  18
ENDBRANCH   1  14
BRANCH  10  19
ATOM     19  C   UNL     1       2.778   6.235  17.908  0.00  0.00    +0.000 C 
ATOM     20  C   UNL     1       1.753   7.104  17.837  0.00  0.00    +0.000 C 
BRANCH  20  21
ATOM     21  C   UNL     1       2.052   8.543  18.194  0.00  0.00    +0.000 C 
ATOM     22  O   UNL     1       2.846   9.206  17.537  0.00  0.00    +0.000 OA
BRANCH  21  23
ATOM     23  C   UNL     1       1.452   9.123  19.440  0.00  0.00    +0.000 A 
ATOM     24  C   UNL     1       1.482   8.352  20.612  0.00  0.00    +0.000 A 
ATOM     25  C   UNL     1       0.932   8.832  21.815  0.00  0.00    +0.000 A 
ATOM     26  C   UNL     1       0.369  10.097  21.834  0.00  0.00    +0.000 A 
ATOM     27  F   UNL     1      -0.149  10.567  22.976  0.00  0.00    +0.000 F 
ATOM     28  C   UNL     1       0.352  10.890  20.691  0.00  0.00    +0.000 A 
ATOM     29  C   UNL     1       0.892  10.404  19.484  0.00  0.00    +0.000 A 
ENDBRANCH  21  23
ENDBRANCH  20  21
ENDBRANCH  10  19
TORSDOF 5
ENDMDL
MODEL 3
REMARK VINA RESULT:      -7.9      3.500      7.696
REMARK  Name = 
REMARK  6 active torsions:
REMARK  status: ('A' for Active; 'I' for Inactive)
REMARK    1  A    between atoms: C_1  and  O_2
REMARK    2  A    between atoms: O_2  and  C_3
REMARK    3  A    between atoms: C_6  and  C_7
REMARK    4  A    between atoms: C_16  and  C_17
REMARK    5  A    between atoms: C_18  and  C_19
REMARK    6  A    between atoms: C_19  and  C_21
REMARK                            x       y       z     vdW  Elec       q    Type
REMARK                         _______ _______ _______ _____ _____    ______ ____
ROOT
ATOM      1  C   UNL     1       2.776   6.000  19.047  0.00  0.00    +0.000 A 
ATOM      2  C   UNL     1       2.001   4.846  19.153  0.00  0.00    +0.000 A 
ATOM      3  C   UNL     1       2.650   3.613  19.158  0.00  0.00    +0.000 A 
ATOM      4  C   UNL     1       2.208   2.467  18.492  0.00  0.00    +0.000 A 
ATOM      5  C   UNL     1       2.928   1.287  18.623  0.00  0.00    +0.000 A 
ATOM      6  C   UNL     1       3.888   1.206  19.629  0.00  0.00    +0.000 A 
ATOM      7  C   UNL     1       4.360   2.383  20.203  0.00  0.00    +0.000 A 
ATOM      8  C   UNL     1       3.939   3.591  19.675  0.00  0.00    +0.000 A 
ATOM      9  N   UNL     1       4.728   4.660  19.443  0.00  0.00    +0.000 NA
ATOM     10  C   UNL     1       4.138   5.712  18.841  0.00  0.00    +0.000 A 
ENDROOT
BRANCH   1  14
ATOM     11  C   UNL     1       1.016   9.924  19.272  0.00  0.00    +0.000 A 
ATOM     12  C   UNL     1       1.125   9.119  20.399  0.00  0.00    +0.000 A 
ATOM     13  C   UNL     1       1.742   7.874  20.315  0.00  0.00    +0.000 A 
ATOM     14  C   UNL     1       2.259   7.375  19.105  0.00  0.00    +0.000 A 
ATOM     15  C   UNL     1       2.164   8.219  17.980  0.00  0.00    +0.000 A 
ATOM     16  C   UNL     1       1.546   9.477  18.064  0.00  0.00    +0.000 A 
BRANCH  11  18
ATOM     17  C   UNL     1       0.624  11.783  20.676  0.00  0.00    +0.000 C 
ATOM     18  O   UNL     1       0.336  11.091  19.470  0.00  0.00    +0.000 OA
ENDBRANCH  11  18
ENDBRANCH   1  14
BRANCH  10  19
ATOM     19  C   UNL     1       4.623   6.084  17.467  0.00  0.00    +0.000 C 
ATOM     20  C   UNL     1       5.332   5.360  16.581  0.00  0.00    +0.000 C 
BRANCH  20  21
ATOM     21  C   UNL     1       5.536   5.967  15.211  0.00  0.00    +0.000 C 
ATOM     22  O   UNL     1       5.178   7.114  14.968  0.00  0.00    +0.000 OA
BRANCH  21  23
ATOM     23  C   UNL     1       6.081   5.109  14.108  0.00  0.00    +0.000 A 
ATOM     24  C   UNL     1       5.273   4.075  13.613  0.00  0.00    +0.000 A 
ATOM     25  C   UNL     1       5.723   3.228  12.583  0.00  0.00    +0.000 A 
ATOM     26  C   UNL     1       6.981   3.441  12.044  0.00  0.00    +0.000 A 
ATOM     27  F   UNL     1       7.415   2.647  11.058  0.00  0.00    +0.000 F 
ATOM     28  C   UNL     1       7.789   4.478  12.502  0.00  0.00    +0.000 A 
ATOM     29  C   UNL     1       7.343   5.317  13.542  0.00  0.00    +0.000 A 
ENDBRANCH  21  23
ENDBRANCH  20  21
ENDBRANCH  10  19
TORSDOF 5
ENDMDL
MODEL 4
REMARK VINA RESULT:      -7.9      3.196      7.353
REMARK  Name = 
REMARK  6 active torsions:
REMARK  status: ('A' for Active; 'I' for Inactive)
REMARK    1  A    between atoms: C_1  and  O_2
REMARK    2  A    between atoms: O_2  and  C_3
REMARK    3  A    between atoms: C_6  and  C_7
REMARK    4  A    between atoms: C_16  and  C_17
REMARK    5  A    between atoms: C_18  and  C_19
REMARK    6  A    between atoms: C_19  and  C_21
REMARK                            x       y       z     vdW  Elec       q    Type
REMARK                         _______ _______ _______ _____ _____    ______ ____
ROOT
ATOM      1  C   UNL     1       2.519   6.335  18.957  0.00  0.00    +0.000 A 
ATOM      2  C   UNL     1       1.626   5.296  18.698  0.00  0.00    +0.000 A 
ATOM      3  C   UNL     1       2.076   3.986  18.848  0.00  0.00    +0.000 A 
ATOM      4  C   UNL     1       1.774   2.925  17.989  0.00  0.00    +0.000 A 
ATOM      5  C   UNL     1       2.250   1.656  18.286  0.00  0.00    +0.000 A 
ATOM      6  C   UNL     1       2.760   1.421  19.561  0.00  0.00    +0.000 A 
ATOM      7  C   UNL     1       3.126   2.510  20.348  0.00  0.00    +0.000 A 
ATOM      8  C   UNL     1       3.075   3.776  19.790  0.00  0.00    +0.000 A 
ATOM      9  N   UNL     1       4.016   4.731  19.932  0.00  0.00    +0.000 NA
ATOM     10  C   UNL     1       3.817   5.867  19.234  0.00  0.00    +0.000 A 
ENDROOT
BRANCH   1  14
ATOM     11  C   UNL     1       1.278  10.458  18.880  0.00  0.00    +0.000 A 
ATOM     12  C   UNL     1       1.131   9.685  20.024  0.00  0.00    +0.000 A 
ATOM     13  C   UNL     1       1.584   8.369  20.045  0.00  0.00    +0.000 A 
ATOM     14  C   UNL     1       2.184   7.766  18.923  0.00  0.00    +0.000 A 
ATOM     15  C   UNL     1       2.349   8.576  17.782  0.00  0.00    +0.000 A 
ATOM     16  C   UNL     1       1.897   9.905  17.761  0.00  0.00    +0.000 A 
BRANCH  11  18
ATOM     17  C   UNL     1       0.394  12.150  20.270  0.00  0.00    +0.000 C 
ATOM     18  O   UNL     1       0.737  11.708  18.965  0.00  0.00    +0.000 OA
ENDBRANCH  11  18
ENDBRANCH   1  14
BRANCH  10  19
ATOM     19  C   UNL     1       4.810   6.200  18.156  0.00  0.00    +0.000 C 
ATOM     20  C   UNL     1       5.994   5.625  17.872  0.00  0.00    +0.000 C 
BRANCH  20  21
ATOM     21  C   UNL     1       6.697   6.094  16.617  0.00  0.00    +0.000 C 
ATOM     22  O   UNL     1       7.309   7.156  16.595  0.00  0.00    +0.000 OA
BRANCH  21  23
ATOM     23  C   UNL     1       6.542   5.298  15.355  0.00  0.00    +0.000 A 
ATOM     24  C   UNL     1       7.509   5.455  14.350  0.00  0.00    +0.000 A 
ATOM     25  C   UNL     1       7.423   4.744  13.139  0.00  0.00    +0.000 A 
ATOM     26  C   UNL     1       6.370   3.862  12.955  0.00  0.00    +0.000 A 
ATOM     27  F   UNL     1       6.283   3.175  11.810  0.00  0.00    +0.000 F 
ATOM     28  C   UNL     1       5.414   3.672  13.949  0.00  0.00    +0.000 A 
ATOM     29  C   UNL     1       5.494   4.393  15.156  0.00  0.00    +0.000 A 
ENDBRANCH  21  23
ENDBRANCH  20  21
ENDBRANCH  10  19
TORSDOF 5
ENDMDL
MODEL 5
REMARK VINA RESULT:      -7.8      0.783      1.146
REMARK  Name = 
REMARK  6 active torsions:
REMARK  status: ('A' for Active; 'I' for Inactive)
REMARK    1  A    between atoms: C_1  and  O_2
REMARK    2  A    between atoms: O_2  and  C_3
REMARK    3  A    between atoms: C_6  and  C_7
REMARK    4  A    between atoms: C_16  and  C_17
REMARK    5  A    between atoms: C_18  and  C_19
REMARK    6  A    between atoms: C_19  and  C_21
REMARK                            x       y       z     vdW  Elec       q    Type
REMARK                         _______ _______ _______ _____ _____    ______ ____
ROOT
ATOM      1  C   UNL     1       4.015   4.720  17.806  0.00  0.00    +0.000 A 
ATOM      2  C   UNL     1       4.203   3.927  18.938  0.00  0.00    +0.000 A 
ATOM      3  C   UNL     1       3.103   3.668  19.751  0.00  0.00    +0.000 A 
ATOM      4  C   UNL     1       3.118   3.655  21.149  0.00  0.00    +0.000 A 
ATOM      5  C   UNL     1       1.957   3.331  21.837  0.00  0.00    +0.000 A 
ATOM      6  C   UNL     1       0.906   2.754  21.127  0.00  0.00    +0.000 A 
ATOM      7  C   UNL     1       0.892   2.867  19.740  0.00  0.00    +0.000 A 
ATOM      8  C   UNL     1       1.861   3.645  19.130  0.00  0.00    +0.000 A 
ATOM      9  N   UNL     1       1.644   4.518  18.124  0.00  0.00    +0.000 NA
ATOM     10  C   UNL     1       2.711   5.241  17.729  0.00  0.00    +0.000 A 
ENDROOT
BRANCH   1  14
ATOM     11  C   UNL     1       7.103   5.345  14.870  0.00  0.00    +0.000 A 
ATOM     12  C   UNL     1       5.955   4.627  14.563  0.00  0.00    +0.000 A 
ATOM     13  C   UNL     1       4.946   4.478  15.511  0.00  0.00    +0.000 A 
ATOM     14  C   UNL     1       5.049   5.023  16.805  0.00  0.00    +0.000 A 
ATOM     15  C   UNL     1       6.208   5.772  17.086  0.00  0.00    +0.000 A 
ATOM     16  C   UNL     1       7.225   5.926  16.130  0.00  0.00    +0.000 A 
BRANCH  11  18
ATOM     17  C   UNL     1       7.643   4.822  12.631  0.00  0.00    +0.000 C 
ATOM     18  O   UNL     1       8.043   5.365  13.880  0.00  0.00    +0.000 OA
ENDBRANCH  11  18
ENDBRANCH   1  14
BRANCH  10  19
ATOM     19  C   UNL     1       2.653   6.729  17.940  0.00  0.00    +0.000 C 
ATOM     20  C   UNL     1       1.669   7.601  17.645  0.00  0.00    +0.000 C 
BRANCH  20  21
ATOM     21  C   UNL     1       1.853   9.024  18.123  0.00  0.00    +0.000 C 
ATOM     22  O   UNL     1       2.968   9.527  18.197  0.00  0.00    +0.000 OA
BRANCH  21  23
ATOM     23  C   UNL     1       0.659   9.784  18.620  0.00  0.00    +0.000 A 
ATOM     24  C   UNL     1       0.761  10.443  19.855  0.00  0.00    +0.000 A 
ATOM     25  C   UNL     1      -0.322  11.171  20.383  0.00  0.00    +0.000 A 
ATOM     26  C   UNL     1      -1.497  11.245  19.654  0.00  0.00    +0.000 A 
ATOM     27  F   UNL     1      -2.529  11.942  20.144  0.00  0.00    +0.000 F 
ATOM     28  C   UNL     1      -1.610  10.622  18.415  0.00  0.00    +0.000 A 
ATOM     29  C   UNL     1      -0.531   9.883  17.892  0.00  0.00    +0.000 A 
ENDBRANCH  21  23
ENDBRANCH  20  21
ENDBRANCH  10  19
TORSDOF 5
ENDMDL
MODEL 6
REMARK VINA RESULT:      -7.7      1.989      2.472
REMARK  Name = 
REMARK  6 active torsions:
REMARK  status: ('A' for Active; 'I' for Inactive)
REMARK    1  A    between atoms: C_1  and  O_2
REMARK    2  A    between atoms: O_2  and  C_3
REMARK    3  A    between atoms: C_6  and  C_7
REMARK    4  A    between atoms: C_16  and  C_17
REMARK    5  A    between atoms: C_18  and  C_19
REMARK    6  A    between atoms: C_19  and  C_21
REMARK                            x       y       z     vdW  Elec       q    Type
REMARK                         _______ _______ _______ _____ _____    ______ ____
ROOT
ATOM      1  C   UNL     1       4.359   5.302  18.503  0.00  0.00    +0.000 A 
ATOM      2  C   UNL     1       4.300   4.342  19.512  0.00  0.00    +0.000 A 
ATOM      3  C   UNL     1       3.131   3.595  19.644  0.00  0.00    +0.000 A 
ATOM      4  C   UNL     1       2.530   3.246  20.857  0.00  0.00    +0.000 A 
ATOM      5  C   UNL     1       1.390   2.453  20.845  0.00  0.00    +0.000 A 
ATOM      6  C   UNL     1       1.052   1.798  19.663  0.00  0.00    +0.000 A 
ATOM      7  C   UNL     1       1.613   2.239  18.468  0.00  0.00    +0.000 A 
ATOM      8  C   UNL     1       2.396   3.380  18.486  0.00  0.00    +0.000 A 
ATOM      9  N   UNL     1       2.347   4.377  17.578  0.00  0.00    +0.000 NA
ATOM     10  C   UNL     1       3.134   5.442  17.826  0.00  0.00    +0.000 A 
ENDROOT
BRANCH   1  14
ATOM     11  C   UNL     1       7.803   7.792  17.805  0.00  0.00    +0.000 A 
ATOM     12  C   UNL     1       7.845   6.747  18.718  0.00  0.00    +0.000 A 
ATOM     13  C   UNL     1       6.737   5.923  18.893  0.00  0.00    +0.000 A 
ATOM     14  C   UNL     1       5.540   6.117  18.179  0.00  0.00    +0.000 A 
ATOM     15  C   UNL     1       5.527   7.165  17.238  0.00  0.00    +0.000 A 
ATOM     16  C   UNL     1       6.645   7.994  17.057  0.00  0.00    +0.000 A 
BRANCH  11  18
ATOM     17  C   UNL     1       8.807   9.864  18.332  0.00  0.00    +0.000 C 
ATOM     18  O   UNL     1       8.928   8.565  17.772  0.00  0.00    +0.000 OA
ENDBRANCH  11  18
ENDBRANCH   1  14
BRANCH  10  19
ATOM     19  C   UNL     1       2.454   6.757  18.093  0.00  0.00    +0.000 C 
ATOM     20  C   UNL     1       2.220   7.381  19.264  0.00  0.00    +0.000 C 
BRANCH  20  21
ATOM     21  C   UNL     1       1.644   8.777  19.189  0.00  0.00    +0.000 C 
ATOM     22  O   UNL     1       1.859   9.499  18.222  0.00  0.00    +0.000 OA
BRANCH  21  23
ATOM     23  C   UNL     1       0.894   9.319  20.369  0.00  0.00    +0.000 A 
ATOM     24  C   UNL     1       0.067  10.436  20.173  0.00  0.00    +0.000 A 
ATOM     25  C   UNL     1      -0.661  10.999  21.237  0.00  0.00    +0.000 A 
ATOM     26  C   UNL     1      -0.566  10.421  22.493  0.00  0.00    +0.000 A 
ATOM     27  F   UNL     1      -1.261  10.944  23.510  0.00  0.00    +0.000 F 
ATOM     28  C   UNL     1       0.227   9.297  22.704  0.00  0.00    +0.000 A 
ATOM     29  C   UNL     1       0.966   8.741  21.641  0.00  0.00    +0.000 A 
ENDBRANCH  21  23
ENDBRANCH  20  21
ENDBRANCH  10  19
TORSDOF 5
ENDMDL
MODEL 7
REMARK VINA RESULT:      -7.6      6.942     10.799
REMARK  Name = 
REMARK  6 active torsions:
REMARK  status: ('A' for Active; 'I' for Inactive)
REMARK    1  A    between atoms: C_1  and  O_2
REMARK    2  A    between atoms: O_2  and  C_3
REMARK    3  A    between atoms: C_6  and  C_7
REMARK    4  A    between atoms: C_16  and  C_17
REMARK    5  A    between atoms: C_18  and  C_19
REMARK    6  A    between atoms: C_19  and  C_21
REMARK                            x       y       z     vdW  Elec       q    Type
REMARK                         _______ _______ _______ _____ _____    ______ ____
ROOT
ATOM      1  C   UNL     1      -4.943  12.649  20.116  0.00  0.00    +0.000 A 
ATOM      2  C   UNL     1      -6.109  12.221  20.749  0.00  0.00    +0.000 A 
ATOM      3  C   UNL     1      -6.621  12.999  21.785  0.00  0.00    +0.000 A 
ATOM      4  C   UNL     1      -7.161  12.502  22.975  0.00  0.00    +0.000 A 
ATOM      5  C   UNL     1      -7.683  13.391  23.905  0.00  0.00    +0.000 A 
ATOM      6  C   UNL     1      -7.916  14.705  23.506  0.00  0.00    +0.000 A 
ATOM      7  C   UNL     1      -7.287  15.179  22.359  0.00  0.00    +0.000 A 
ATOM      8  C   UNL     1      -6.368  14.363  21.722  0.00  0.00    +0.000 A 
ATOM      9  N   UNL     1      -5.174  14.760  21.237  0.00  0.00    +0.000 NA
ATOM     10  C   UNL     1      -4.389  13.788  20.730  0.00  0.00    +0.000 A 
ENDROOT
BRANCH   1  14
ATOM     11  C   UNL     1      -3.283  10.516  16.764  0.00  0.00    +0.000 A 
ATOM     12  C   UNL     1      -4.576  11.020  16.726  0.00  0.00    +0.000 A 
ATOM     13  C   UNL     1      -5.077  11.749  17.800  0.00  0.00    +0.000 A 
ATOM     14  C   UNL     1      -4.316  11.991  18.960  0.00  0.00    +0.000 A 
ATOM     15  C   UNL     1      -2.998  11.495  18.967  0.00  0.00    +0.000 A 
ATOM     16  C   UNL     1      -2.490  10.763  17.882  0.00  0.00    +0.000 A 
BRANCH  11  18
ATOM     17  C   UNL     1      -3.396  10.235  14.422  0.00  0.00    +0.000 C 
ATOM     18  O   UNL     1      -2.933   9.765  15.678  0.00  0.00    +0.000 OA
ENDBRANCH  11  18
ENDBRANCH   1  14
BRANCH  10  19
ATOM     19  C   UNL     1      -3.090  13.512  21.434  0.00  0.00    +0.000 C 
ATOM     20  C   UNL     1      -2.840  12.730  22.501  0.00  0.00    +0.000 C 
BRANCH  20  21
ATOM     21  C   UNL     1      -1.389  12.538  22.882  0.00  0.00    +0.000 C 
ATOM     22  O   UNL     1      -0.767  13.418  23.465  0.00  0.00    +0.000 OA
BRANCH  21  23
ATOM     23  C   UNL     1      -0.678  11.295  22.436  0.00  0.00    +0.000 A 
ATOM     24  C   UNL     1       0.085  11.354  21.261  0.00  0.00    +0.000 A 
ATOM     25  C   UNL     1       0.774  10.224  20.781  0.00  0.00    +0.000 A 
ATOM     26  C   UNL     1       0.704   9.043  21.502  0.00  0.00    +0.000 A 
ATOM     27  F   UNL     1       1.362   7.965  21.059  0.00  0.00    +0.000 F 
ATOM     28  C   UNL     1      -0.026   8.969  22.685  0.00  0.00    +0.000 A 
ATOM     29  C   UNL     1      -0.725  10.097  23.157  0.00  0.00    +0.000 A 
ENDBRANCH  21  23
ENDBRANCH  20  21
ENDBRANCH  10  19
TORSDOF 5
ENDMDL
MODEL 8
REMARK VINA RESULT:      -7.6      3.821      7.927
REMARK  Name = 
REMARK  6 active torsions:
REMARK  status: ('A' for Active; 'I' for Inactive)
REMARK    1  A    between atoms: C_1  and  O_2
REMARK    2  A    between atoms: O_2  and  C_3
REMARK    3  A    between atoms: C_6  and  C_7
REMARK    4  A    between atoms: C_16  and  C_17
REMARK    5  A    between atoms: C_18  and  C_19
REMARK    6  A    between atoms: C_19  and  C_21
REMARK                            x       y       z     vdW  Elec       q    Type
REMARK                         _______ _______ _______ _____ _____    ______ ____
ROOT
ATOM      1  C   UNL     1       1.113   9.432  19.923  0.00  0.00    +0.000 A 
ATOM      2  C   UNL     1       1.615   8.179  20.273  0.00  0.00    +0.000 A 
ATOM      3  C   UNL     1       2.173   7.389  19.270  0.00  0.00    +0.000 A 
ATOM      4  C   UNL     1       1.997   6.008  19.139  0.00  0.00    +0.000 A 
ATOM      5  C   UNL     1       2.654   5.335  18.119  0.00  0.00    +0.000 A 
ATOM      6  C   UNL     1       3.681   5.992  17.446  0.00  0.00    +0.000 A 
ATOM      7  C   UNL     1       3.764   7.379  17.538  0.00  0.00    +0.000 A 
ATOM      8  C   UNL     1       2.758   8.059  18.203  0.00  0.00    +0.000 A 
ATOM      9  N   UNL     1       2.177   9.201  17.783  0.00  0.00    +0.000 NA
ATOM     10  C   UNL     1       1.154   9.655  18.534  0.00  0.00    +0.000 A 
ENDROOT
BRANCH   1  14
ATOM     11  C   UNL     1      -0.740  12.252  22.598  0.00  0.00    +0.000 A 
ATOM     12  C   UNL     1      -0.917  10.884  22.761  0.00  0.00    +0.000 A 
ATOM     13  C   UNL     1      -0.269   9.987  21.916  0.00  0.00    +0.000 A 
ATOM     14  C   UNL     1       0.565  10.418  20.867  0.00  0.00    +0.000 A 
ATOM     15  C   UNL     1       0.753  11.807  20.736  0.00  0.00    +0.000 A 
ATOM     16  C   UNL     1       0.104  12.713  21.591  0.00  0.00    +0.000 A 
BRANCH  11  18
ATOM     17  C   UNL     1      -1.098  14.390  23.535  0.00  0.00    +0.000 C 
ATOM     18  O   UNL     1      -1.478  13.026  23.448  0.00  0.00    +0.000 OA
ENDBRANCH  11  18
ENDBRANCH   1  14
BRANCH  10  19
ATOM     19  C   UNL     1      -0.208   9.692  17.898  0.00  0.00    +0.000 C 
ATOM     20  C   UNL     1      -1.313  10.365  18.271  0.00  0.00    +0.000 C 
BRANCH  20  21
ATOM     21  C   UNL     1      -2.494  10.313  17.327  0.00  0.00    +0.000 C 
ATOM     22  O   UNL     1      -2.439   9.682  16.278  0.00  0.00    +0.000 OA
BRANCH  21  23
ATOM     23  C   UNL     1      -3.706  11.142  17.633  0.00  0.00    +0.000 A 
ATOM     24  C   UNL     1      -3.840  11.668  18.927  0.00  0.00    +0.000 A 
ATOM     25  C   UNL     1      -4.954  12.450  19.285  0.00  0.00    +0.000 A 
ATOM     26  C   UNL     1      -5.921  12.712  18.328  0.00  0.00    +0.000 A 
ATOM     27  F   UNL     1      -6.981  13.462  18.656  0.00  0.00    +0.000 F 
ATOM     28  C   UNL     1      -5.796  12.223  17.032  0.00  0.00    +0.000 A 
ATOM     29  C   UNL     1      -4.686  11.430  16.678  0.00  0.00    +0.000 A 
ENDBRANCH  21  23
ENDBRANCH  20  21
ENDBRANCH  10  19
TORSDOF 5
ENDMDL
MODEL 9
REMARK VINA RESULT:      -7.6      3.906      8.084
REMARK  Name = 
REMARK  6 active torsions:
REMARK  status: ('A' for Active; 'I' for Inactive)
REMARK    1  A    between atoms: C_1  and  O_2
REMARK    2  A    between atoms: O_2  and  C_3
REMARK    3  A    between atoms: C_6  and  C_7
REMARK    4  A    between atoms: C_16  and  C_17
REMARK    5  A    between atoms: C_18  and  C_19
REMARK    6  A    between atoms: C_19  and  C_21
REMARK                            x       y       z     vdW  Elec       q    Type
REMARK                         _______ _______ _______ _____ _____    ______ ____
ROOT
ATOM      1  C   UNL     1       0.936   9.588  19.828  0.00  0.00    +0.000 A 
ATOM      2  C   UNL     1       1.572   8.414  20.231  0.00  0.00    +0.000 A 
ATOM      3  C   UNL     1       2.163   7.616  19.254  0.00  0.00    +0.000 A 
ATOM      4  C   UNL     1       2.116   6.219  19.217  0.00  0.00    +0.000 A 
ATOM      5  C   UNL     1       2.793   5.545  18.210  0.00  0.00    +0.000 A 
ATOM      6  C   UNL     1       3.723   6.250  17.449  0.00  0.00    +0.000 A 
ATOM      7  C   UNL     1       3.674   7.642  17.452  0.00  0.00    +0.000 A 
ATOM      8  C   UNL     1       2.635   8.266  18.121  0.00  0.00    +0.000 A 
ATOM      9  N   UNL     1       1.928   9.318  17.659  0.00  0.00    +0.000 NA
ATOM     10  C   UNL     1       0.898   9.722  18.428  0.00  0.00    +0.000 A 
ENDROOT
BRANCH   1  14
ATOM     11  C   UNL     1      -1.070  12.400  22.399  0.00  0.00    +0.000 A 
ATOM     12  C   UNL     1      -1.158  11.032  22.624  0.00  0.00    +0.000 A 
ATOM     13  C   UNL     1      -0.461  10.142  21.811  0.00  0.00    +0.000 A 
ATOM     14  C   UNL     1       0.334  10.577  20.734  0.00  0.00    +0.000 A 
ATOM     15  C   UNL     1       0.432  11.969  20.541  0.00  0.00    +0.000 A 
ATOM     16  C   UNL     1      -0.267  12.868  21.363  0.00  0.00    +0.000 A 
BRANCH  11  18
ATOM     17  C   UNL     1      -3.104  12.606  23.581  0.00  0.00    +0.000 C 
ATOM     18  O   UNL     1      -1.849  13.162  23.222  0.00  0.00    +0.000 OA
ENDBRANCH  11  18
ENDBRANCH   1  14
BRANCH  10  19
ATOM     19  C   UNL     1      -0.486   9.587  17.856  0.00  0.00    +0.000 C 
ATOM     20  C   UNL     1      -1.502  10.471  17.845  0.00  0.00    +0.000 C 
BRANCH  20  21
ATOM     21  C   UNL     1      -2.731  10.090  17.051  0.00  0.00    +0.000 C 
ATOM     22  O   UNL     1      -2.641   9.407  16.037  0.00  0.00    +0.000 OA
BRANCH  21  23
ATOM     23  C   UNL     1      -4.061  10.655  17.452  0.00  0.00    +0.000 A 
ATOM     24  C   UNL     1      -4.537  11.781  16.763  0.00  0.00    +0.000 A 
ATOM     25  C   UNL     1      -5.775  12.366  17.090  0.00  0.00    +0.000 A 
ATOM     26  C   UNL     1      -6.535  11.801  18.100  0.00  0.00    +0.000 A 
ATOM     27  F   UNL     1      -7.717  12.344  18.414  0.00  0.00    +0.000 F 
ATOM     28  C   UNL     1      -6.094  10.668  18.779  0.00  0.00    +0.000 A 
ATOM     29  C   UNL     1      -4.849  10.091  18.459  0.00  0.00    +0.000 A 
ENDBRANCH  21  23
ENDBRANCH  20  21
ENDBRANCH  10  19
TORSDOF 5
ENDMDL
