MODEL 1
REMARK VINA RESULT:      -9.1      0.000      0.000
REMARK  Name = 
REMARK  6 active torsions:
REMARK  status: ('A' for Active; 'I' for Inactive)
REMARK    1  A    between atoms: C_1  and  C_2
REMARK    2  A    between atoms: C_2  and  C_4
REMARK    3  A    between atoms: C_7  and  N_8
REMARK    4  A    between atoms: C_12  and  C_14
REMARK    5  A    between atoms: C_16  and  N_17
REMARK    6  A    between atoms: C_22  and  N_23
REMARK                            x       y       z     vdW  Elec       q    Type
REMARK                         _______ _______ _______ _____ _____    ______ ____
ROOT
ATOM      1  N   UNL     1       0.923   9.658  20.261  0.00  0.00    +0.000 N 
ATOM      2  C   UNL     1       1.035   9.639  18.789  0.00  0.00    +0.000 C 
ATOM      3  C   UNL     1       2.336   8.904  18.370  0.00  0.00    +0.000 C 
ATOM      4  N   UNL     1       2.468   7.562  18.984  0.00  0.00    +0.000 N 
ATOM      5  C   UNL     1       3.127   6.556  18.243  0.00  0.00    +0.000 C 
ATOM      6  O   UNL     1       3.516   6.781  17.097  0.00  0.00    +0.000 OA
ATOM      7  C   UNL     1       2.231   7.566  20.437  0.00  0.00    +0.000 C 
ATOM      8  C   UNL     1       0.960   8.311  20.853  0.00  0.00    +0.000 C 
ENDROOT
BRANCH   1  12
ATOM      9  C   UNL     1      -2.047  11.904  22.298  0.00  0.00    +0.000 A 
ATOM     10  C   UNL     1      -1.956  11.981  20.902  0.00  0.00    +0.000 A 
ATOM     11  C   UNL     1      -0.955  11.266  20.209  0.00  0.00    +0.000 A 
ATOM     12  C   UNL     1      -0.047  10.453  20.895  0.00  0.00    +0.000 A 
ATOM     13  C   UNL     1      -0.183  10.376  22.296  0.00  0.00    +0.000 A 
ATOM     14  F   UNL     1       0.641   9.583  23.001  0.00  0.00    +0.000 F 
ATOM     15  C   UNL     1      -1.154  11.084  22.991  0.00  0.00    +0.000 A 
BRANCH   9  17
ATOM     16  C   UNL     1      -3.158  14.154  22.931  0.00  0.00    +0.000 C 
ATOM     17  C   UNL     1      -3.058  12.661  23.093  0.00  0.00    +0.000 C 
ATOM     18  O   UNL     1      -3.796  12.059  23.868  0.00  0.00    +0.000 OA
ENDBRANCH   9  17
ENDBRANCH   1  12
BRANCH   5  19
ATOM     19  C   UNL     1       3.360   5.175  18.809  0.00  0.00    +0.000 A 
ATOM     20  C   UNL     1       2.392   4.668  19.699  0.00  0.00    +0.000 A 
ATOM     21  C   UNL     1       2.502   3.381  20.239  0.00  0.00    +0.000 A 
ATOM     22  C   UNL     1       3.632   2.613  19.997  0.00  0.00    +0.000 A 
ATOM     23  C   UNL     1       4.650   3.153  19.212  0.00  0.00    +0.000 A 
ATOM     24  C   UNL     1       4.563   4.435  18.607  0.00  0.00    +0.000 A 
BRANCH  24  25
ATOM     25  N   UNL     1       5.677   4.882  17.921  0.00  0.00    +0.000 N 
ATOM     26  C   UNL     1       6.668   5.768  18.561  0.00  0.00    +0.000 C 
ATOM     27  C   UNL     1       7.019   6.901  17.588  0.00  0.00    +0.000 C 
ATOM     28  O   UNL     1       7.544   6.373  16.358  0.00  0.00    +0.000 OA
ATOM     29  C   UNL     1       6.557   5.544  15.713  0.00  0.00    +0.000 C 
ATOM     30  C   UNL     1       6.108   4.373  16.612  0.00  0.00    +0.000 C 
ENDBRANCH  24  25
BRANCH  21  31
ATOM     31  N   UNL     1       1.398   2.828  21.030  0.00  0.00    +0.000 N 
ATOM     32  O   UNL     1       0.301   2.700  20.466  0.00  0.00    +0.000 OA
ATOM     33  O   UNL     1       1.634   2.493  22.197  0.00  0.00    +0.000 OA
ENDBRANCH  21  31
ENDBRANCH   5  19
TORSDOF 5
ENDMDL
MODEL 2
REMARK VINA RESULT:      -8.9      0.764      1.139
REMARK  Name = 
REMARK  6 active torsions:
REMARK  status: ('A' for Active; 'I' for Inactive)
REMARK    1  A    between atoms: C_1  and  C_2
REMARK    2  A    between atoms: C_2  and  C_4
REMARK    3  A    between atoms: C_7  and  N_8
REMARK    4  A    between atoms: C_12  and  C_14
REMARK    5  A    between atoms: C_16  and  N_17
REMARK    6  A    between atoms: C_22  and  N_23
REMARK                            x       y       z     vdW  Elec       q    Type
REMARK                         _______ _______ _______ _____ _____    ______ ____
ROOT
ATOM      1  N   UNL     1       0.471  10.107  20.394  0.00  0.00    +0.000 N 
ATOM      2  C   UNL     1       0.437  10.123  18.918  0.00  0.00    +0.000 C 
ATOM      3  C   UNL     1       1.744   9.500  18.356  0.00  0.00    +0.000 C 
ATOM      4  N   UNL     1       2.040   8.163  18.920  0.00  0.00    +0.000 N 
ATOM      5  C   UNL     1       2.698   7.226  18.093  0.00  0.00    +0.000 C 
ATOM      6  O   UNL     1       2.953   7.501  16.922  0.00  0.00    +0.000 OA
ATOM      7  C   UNL     1       1.949   8.124  20.389  0.00  0.00    +0.000 C 
ATOM      8  C   UNL     1       0.672   8.757  20.946  0.00  0.00    +0.000 C 
ENDROOT
BRANCH   1  12
ATOM      9  C   UNL     1      -2.465  12.066  22.751  0.00  0.00    +0.000 A 
ATOM     10  C   UNL     1      -2.422  12.292  21.369  0.00  0.00    +0.000 A 
ATOM     11  C   UNL     1      -1.433  11.675  20.573  0.00  0.00    +0.000 A 
ATOM     12  C   UNL     1      -0.490  10.811  21.140  0.00  0.00    +0.000 A 
ATOM     13  C   UNL     1      -0.578  10.583  22.528  0.00  0.00    +0.000 A 
ATOM     14  F   UNL     1       0.282   9.736  23.118  0.00  0.00    +0.000 F 
ATOM     15  C   UNL     1      -1.537  11.194  23.324  0.00  0.00    +0.000 A 
BRANCH   9  17
ATOM     16  C   UNL     1      -3.526  14.216  23.724  0.00  0.00    +0.000 C 
ATOM     17  C   UNL     1      -3.461  12.714  23.654  0.00  0.00    +0.000 C 
ATOM     18  O   UNL     1      -4.216  12.017  24.327  0.00  0.00    +0.000 OA
ENDBRANCH   9  17
ENDBRANCH   1  12
BRANCH   5  19
ATOM     19  C   UNL     1       3.093   5.858  18.600  0.00  0.00    +0.000 A 
ATOM     20  C   UNL     1       2.303   5.293  19.621  0.00  0.00    +0.000 A 
ATOM     21  C   UNL     1       2.567   4.012  20.121  0.00  0.00    +0.000 A 
ATOM     22  C   UNL     1       3.689   3.311  19.700  0.00  0.00    +0.000 A 
ATOM     23  C   UNL     1       4.542   3.913  18.776  0.00  0.00    +0.000 A 
ATOM     24  C   UNL     1       4.291   5.190  18.208  0.00  0.00    +0.000 A 
BRANCH  24  25
ATOM     25  N   UNL     1       5.260   5.704  17.365  0.00  0.00    +0.000 N 
ATOM     26  C   UNL     1       5.374   5.254  15.965  0.00  0.00    +0.000 C 
ATOM     27  C   UNL     1       6.853   4.995  15.648  0.00  0.00    +0.000 C 
ATOM     28  O   UNL     1       7.634   6.185  15.855  0.00  0.00    +0.000 OA
ATOM     29  C   UNL     1       7.556   6.595  17.234  0.00  0.00    +0.000 C 
ATOM     30  C   UNL     1       6.103   6.865  17.676  0.00  0.00    +0.000 C 
ENDBRANCH  24  25
BRANCH  21  31
ATOM     31  N   UNL     1       1.630   3.393  21.064  0.00  0.00    +0.000 N 
ATOM     32  O   UNL     1       0.521   3.055  20.626  0.00  0.00    +0.000 OA
ATOM     33  O   UNL     1       2.013   3.216  22.227  0.00  0.00    +0.000 OA
ENDBRANCH  21  31
ENDBRANCH   5  19
TORSDOF 5
ENDMDL
MODEL 3
REMARK VINA RESULT:      -8.8      1.195      1.713
REMARK  Name = 
REMARK  6 active torsions:
REMARK  status: ('A' for Active; 'I' for Inactive)
REMARK    1  A    between atoms: C_1  and  C_2
REMARK    2  A    between atoms: C_2  and  C_4
REMARK    3  A    between atoms: C_7  and  N_8
REMARK    4  A    between atoms: C_12  and  C_14
REMARK    5  A    between atoms: C_16  and  N_17
REMARK    6  A    between atoms: C_22  and  N_23
REMARK                            x       y       z     vdW  Elec       q    Type
REMARK                         _______ _______ _______ _____ _____    ______ ____
ROOT
ATOM      1  N   UNL     1       0.452  10.001  20.482  0.00  0.00    +0.000 N 
ATOM      2  C   UNL     1       0.349   9.964  19.009  0.00  0.00    +0.000 C 
ATOM      3  C   UNL     1       1.647   9.361  18.407  0.00  0.00    +0.000 C 
ATOM      4  N   UNL     1       2.010   8.053  19.002  0.00  0.00    +0.000 N 
ATOM      5  C   UNL     1       2.658   7.108  18.177  0.00  0.00    +0.000 C 
ATOM      6  O   UNL     1       2.850   7.349  16.985  0.00  0.00    +0.000 OA
ATOM      7  C   UNL     1       1.988   8.063  20.474  0.00  0.00    +0.000 C 
ATOM      8  C   UNL     1       0.719   8.678  21.069  0.00  0.00    +0.000 C 
ENDROOT
BRANCH   1  12
ATOM      9  C   UNL     1      -2.340  12.287  22.716  0.00  0.00    +0.000 A 
ATOM     10  C   UNL     1      -1.665  11.225  23.330  0.00  0.00    +0.000 A 
ATOM     11  C   UNL     1      -0.757  10.433  22.595  0.00  0.00    +0.000 A 
ATOM     12  C   UNL     1      -0.495  10.702  21.248  0.00  0.00    +0.000 A 
ATOM     13  C   UNL     1      -1.170  11.794  20.667  0.00  0.00    +0.000 A 
ATOM     14  F   UNL     1      -0.931  12.118  19.385  0.00  0.00    +0.000 F 
ATOM     15  C   UNL     1      -2.076  12.573  21.375  0.00  0.00    +0.000 A 
BRANCH   9  17
ATOM     16  C   UNL     1      -4.207  12.530  24.492  0.00  0.00    +0.000 C 
ATOM     17  C   UNL     1      -3.339  13.141  23.425  0.00  0.00    +0.000 C 
ATOM     18  O   UNL     1      -3.439  14.329  23.133  0.00  0.00    +0.000 OA
ENDBRANCH   9  17
ENDBRANCH   1  12
BRANCH   5  19
ATOM     19  C   UNL     1       3.118   5.771  18.710  0.00  0.00    +0.000 A 
ATOM     20  C   UNL     1       2.372   5.201  19.760  0.00  0.00    +0.000 A 
ATOM     21  C   UNL     1       2.698   3.946  20.287  0.00  0.00    +0.000 A 
ATOM     22  C   UNL     1       3.838   3.279  19.861  0.00  0.00    +0.000 A 
ATOM     23  C   UNL     1       4.648   3.890  18.905  0.00  0.00    +0.000 A 
ATOM     24  C   UNL     1       4.335   5.141  18.310  0.00  0.00    +0.000 A 
BRANCH  24  25
ATOM     25  N   UNL     1       5.265   5.671  17.434  0.00  0.00    +0.000 N 
ATOM     26  C   UNL     1       5.350   5.211  16.035  0.00  0.00    +0.000 C 
ATOM     27  C   UNL     1       6.825   4.986  15.678  0.00  0.00    +0.000 C 
ATOM     28  O   UNL     1       7.581   6.197  15.851  0.00  0.00    +0.000 OA
ATOM     29  C   UNL     1       7.532   6.619  17.229  0.00  0.00    +0.000 C 
ATOM     30  C   UNL     1       6.087   6.856  17.711  0.00  0.00    +0.000 C 
ENDBRANCH  24  25
BRANCH  21  31
ATOM     31  N   UNL     1       1.805   3.314  21.265  0.00  0.00    +0.000 N 
ATOM     32  O   UNL     1       0.674   2.987  20.876  0.00  0.00    +0.000 OA
ATOM     33  O   UNL     1       2.244   3.117  22.405  0.00  0.00    +0.000 OA
ENDBRANCH  21  31
ENDBRANCH   5  19
TORSDOF 5
ENDMDL
MODEL 4
REMARK VINA RESULT:      -8.8      3.057      9.235
REMARK  Name = 
REMARK  6 active torsions:
REMARK  status: ('A' for Active; 'I' for Inactive)
REMARK    1  A    between atoms: C_1  and  C_2
REMARK    2  A    between atoms: C_2  and  C_4
REMARK    3  A    between atoms: C_7  and  N_8
REMARK    4  A    between atoms: C_12  and  C_14
REMARK    5  A    between atoms: C_16  and  N_17
REMARK    6  A    between atoms: C_22  and  N_23
REMARK                            x       y       z     vdW  Elec       q    Type
REMARK                         _______ _______ _______ _____ _____    ______ ____
ROOT
ATOM      1  N   UNL     1       1.265   8.431  18.919  0.00  0.00    +0.000 N 
ATOM      2  C   UNL     1       0.945   9.370  17.826  0.00  0.00    +0.000 C 
ATOM      3  C   UNL     1      -0.403  10.082  18.123  0.00  0.00    +0.000 C 
ATOM      4  N   UNL     1      -0.444  10.709  19.464  0.00  0.00    +0.000 N 
ATOM      5  C   UNL     1      -1.202  11.892  19.619  0.00  0.00    +0.000 C 
ATOM      6  O   UNL     1      -1.750  12.411  18.648  0.00  0.00    +0.000 OA
ATOM      7  C   UNL     1      -0.002   9.805  20.538  0.00  0.00    +0.000 C 
ATOM      8  C   UNL     1       1.314   9.085  20.237  0.00  0.00    +0.000 C 
ENDROOT
BRANCH   1  12
ATOM      9  C   UNL     1       4.452   5.636  18.710  0.00  0.00    +0.000 A 
ATOM     10  C   UNL     1       4.406   6.704  17.804  0.00  0.00    +0.000 A 
ATOM     11  C   UNL     1       3.337   7.625  17.837  0.00  0.00    +0.000 A 
ATOM     12  C   UNL     1       2.315   7.506  18.784  0.00  0.00    +0.000 A 
ATOM     13  C   UNL     1       2.406   6.438  19.699  0.00  0.00    +0.000 A 
ATOM     14  F   UNL     1       1.468   6.297  20.651  0.00  0.00    +0.000 F 
ATOM     15  C   UNL     1       3.444   5.517  19.669  0.00  0.00    +0.000 A 
BRANCH   9  17
ATOM     16  C   UNL     1       6.765   4.834  17.872  0.00  0.00    +0.000 C 
ATOM     17  C   UNL     1       5.534   4.607  18.707  0.00  0.00    +0.000 C 
ATOM     18  O   UNL     1       5.409   3.591  19.385  0.00  0.00    +0.000 OA
ENDBRANCH   9  17
ENDBRANCH   1  12
BRANCH   5  19
ATOM     19  C   UNL     1      -1.349  12.570  20.961  0.00  0.00    +0.000 A 
ATOM     20  C   UNL     1      -2.570  12.399  21.644  0.00  0.00    +0.000 A 
ATOM     21  C   UNL     1      -2.780  12.954  22.911  0.00  0.00    +0.000 A 
ATOM     22  C   UNL     1      -1.827  13.787  23.480  0.00  0.00    +0.000 A 
ATOM     23  C   UNL     1      -0.665  14.059  22.759  0.00  0.00    +0.000 A 
ATOM     24  C   UNL     1      -0.388  13.483  21.491  0.00  0.00    +0.000 A 
BRANCH  24  25
ATOM     25  N   UNL     1       0.764  13.900  20.849  0.00  0.00    +0.000 N 
ATOM     26  C   UNL     1       0.939  15.300  20.421  0.00  0.00    +0.000 C 
ATOM     27  C   UNL     1       1.497  15.314  18.992  0.00  0.00    +0.000 C 
ATOM     28  O   UNL     1       2.752  14.613  18.928  0.00  0.00    +0.000 OA
ATOM     29  C   UNL     1       2.567  13.234  19.304  0.00  0.00    +0.000 C 
ATOM     30  C   UNL     1       1.986  13.094  20.726  0.00  0.00    +0.000 C 
ENDBRANCH  24  25
BRANCH  21  31
ATOM     31  N   UNL     1      -3.997  12.619  23.659  0.00  0.00    +0.000 N 
ATOM     32  O   UNL     1      -5.006  12.323  23.002  0.00  0.00    +0.000 OA
ATOM     33  O   UNL     1      -3.934  12.622  24.895  0.00  0.00    +0.000 OA
ENDBRANCH  21  31
ENDBRANCH   5  19
TORSDOF 5
ENDMDL
MODEL 5
REMARK VINA RESULT:      -8.7      0.850      1.187
REMARK  Name = 
REMARK  6 active torsions:
REMARK  status: ('A' for Active; 'I' for Inactive)
REMARK    1  A    between atoms: C_1  and  C_2
REMARK    2  A    between atoms: C_2  and  C_4
REMARK    3  A    between atoms: C_7  and  N_8
REMARK    4  A    between atoms: C_12  and  C_14
REMARK    5  A    between atoms: C_16  and  N_17
REMARK    6  A    between atoms: C_22  and  N_23
REMARK                            x       y       z     vdW  Elec       q    Type
REMARK                         _______ _______ _______ _____ _____    ______ ____
ROOT
ATOM      1  N   UNL     1       0.889   9.504  20.383  0.00  0.00    +0.000 N 
ATOM      2  C   UNL     1       0.964   9.502  18.909  0.00  0.00    +0.000 C 
ATOM      3  C   UNL     1       2.276   8.808  18.451  0.00  0.00    +0.000 C 
ATOM      4  N   UNL     1       2.462   7.466  19.049  0.00  0.00    +0.000 N 
ATOM      5  C   UNL     1       3.132   6.486  18.281  0.00  0.00    +0.000 C 
ATOM      6  O   UNL     1       3.486   6.734  17.129  0.00  0.00    +0.000 OA
ATOM      7  C   UNL     1       2.260   7.450  20.507  0.00  0.00    +0.000 C 
ATOM      8  C   UNL     1       0.979   8.153  20.961  0.00  0.00    +0.000 C 
ENDROOT
BRANCH   1  12
ATOM      9  C   UNL     1      -1.994  11.961  22.298  0.00  0.00    +0.000 A 
ATOM     10  C   UNL     1      -1.321  10.979  23.036  0.00  0.00    +0.000 A 
ATOM     11  C   UNL     1      -0.383  10.131  22.410  0.00  0.00    +0.000 A 
ATOM     12  C   UNL     1      -0.088  10.264  21.049  0.00  0.00    +0.000 A 
ATOM     13  C   UNL     1      -0.762  11.280  20.341  0.00  0.00    +0.000 A 
ATOM     14  F   UNL     1      -0.493  11.474  19.039  0.00  0.00    +0.000 F 
ATOM     15  C   UNL     1      -1.697  12.112  20.942  0.00  0.00    +0.000 A 
BRANCH   9  17
ATOM     16  C   UNL     1      -2.586  14.139  23.564  0.00  0.00    +0.000 C 
ATOM     17  C   UNL     1      -3.023  12.866  22.890  0.00  0.00    +0.000 C 
ATOM     18  O   UNL     1      -4.211  12.565  22.818  0.00  0.00    +0.000 OA
ENDBRANCH   9  17
ENDBRANCH   1  12
BRANCH   5  19
ATOM     19  C   UNL     1       3.418   5.107  18.828  0.00  0.00    +0.000 A 
ATOM     20  C   UNL     1       2.492   4.568  19.743  0.00  0.00    +0.000 A 
ATOM     21  C   UNL     1       2.653   3.281  20.268  0.00  0.00    +0.000 A 
ATOM     22  C   UNL     1       3.794   2.544  19.985  0.00  0.00    +0.000 A 
ATOM     23  C   UNL     1       4.773   3.117  19.174  0.00  0.00    +0.000 A 
ATOM     24  C   UNL     1       4.634   4.401  18.583  0.00  0.00    +0.000 A 
BRANCH  24  25
ATOM     25  N   UNL     1       5.713   4.883  17.866  0.00  0.00    +0.000 N 
ATOM     26  C   UNL     1       6.685   5.810  18.475  0.00  0.00    +0.000 C 
ATOM     27  C   UNL     1       6.971   6.947  17.485  0.00  0.00    +0.000 C 
ATOM     28  O   UNL     1       7.486   6.428  16.247  0.00  0.00    +0.000 OA
ATOM     29  C   UNL     1       6.514   5.558  15.633  0.00  0.00    +0.000 C 
ATOM     30  C   UNL     1       6.131   4.379  16.551  0.00  0.00    +0.000 C 
ENDBRANCH  24  25
BRANCH  21  31
ATOM     31  N   UNL     1       1.588   2.692  21.088  0.00  0.00    +0.000 N 
ATOM     32  O   UNL     1       0.445   2.668  20.608  0.00  0.00    +0.000 OA
ATOM     33  O   UNL     1       1.899   2.228  22.192  0.00  0.00    +0.000 OA
ENDBRANCH  21  31
ENDBRANCH   5  19
TORSDOF 5
ENDMDL
MODEL 6
REMARK VINA RESULT:      -8.7      3.256      9.325
REMARK  Name = 
REMARK  6 active torsions:
REMARK  status: ('A' for Active; 'I' for Inactive)
REMARK    1  A    between atoms: C_1  and  C_2
REMARK    2  A    between atoms: C_2  and  C_4
REMARK    3  A    between atoms: C_7  and  N_8
REMARK    4  A    between atoms: C_12  and  C_14
REMARK    5  A    between atoms: C_16  and  N_17
REMARK    6  A    between atoms: C_22  and  N_23
REMARK                            x       y       z     vdW  Elec       q    Type
REMARK                         _______ _______ _______ _____ _____    ______ ____
ROOT
ATOM      1  N   UNL     1       1.325   8.462  18.964  0.00  0.00    +0.000 N 
ATOM      2  C   UNL     1       0.891   9.326  17.848  0.00  0.00    +0.000 C 
ATOM      3  C   UNL     1      -0.413  10.074  18.239  0.00  0.00    +0.000 C 
ATOM      4  N   UNL     1      -0.305  10.793  19.530  0.00  0.00    +0.000 N 
ATOM      5  C   UNL     1      -1.036  11.993  19.682  0.00  0.00    +0.000 C 
ATOM      6  O   UNL     1      -1.685  12.450  18.742  0.00  0.00    +0.000 OA
ATOM      7  C   UNL     1       0.247   9.960  20.610  0.00  0.00    +0.000 C 
ATOM      8  C   UNL     1       1.520   9.205  20.219  0.00  0.00    +0.000 C 
ENDROOT
BRANCH   1  12
ATOM      9  C   UNL     1       4.444   5.606  18.611  0.00  0.00    +0.000 A 
ATOM     10  C   UNL     1       4.382   6.679  17.712  0.00  0.00    +0.000 A 
ATOM     11  C   UNL     1       3.334   7.621  17.794  0.00  0.00    +0.000 A 
ATOM     12  C   UNL     1       2.349   7.518  18.781  0.00  0.00    +0.000 A 
ATOM     13  C   UNL     1       2.456   6.442  19.686  0.00  0.00    +0.000 A 
ATOM     14  F   UNL     1       1.555   6.314  20.675  0.00  0.00    +0.000 F 
ATOM     15  C   UNL     1       3.473   5.501  19.609  0.00  0.00    +0.000 A 
BRANCH   9  17
ATOM     16  C   UNL     1       6.635   4.699  17.576  0.00  0.00    +0.000 C 
ATOM     17  C   UNL     1       5.504   4.556  18.557  0.00  0.00    +0.000 C 
ATOM     18  O   UNL     1       5.442   3.591  19.315  0.00  0.00    +0.000 OA
ENDBRANCH   9  17
ENDBRANCH   1  12
BRANCH   5  19
ATOM     19  C   UNL     1      -1.033  12.765  20.981  0.00  0.00    +0.000 A 
ATOM     20  C   UNL     1      -2.168  12.648  21.807  0.00  0.00    +0.000 A 
ATOM     21  C   UNL     1      -2.236  13.292  23.048  0.00  0.00    +0.000 A 
ATOM     22  C   UNL     1      -1.227  14.158  23.446  0.00  0.00    +0.000 A 
ATOM     23  C   UNL     1      -0.154  14.372  22.581  0.00  0.00    +0.000 A 
ATOM     24  C   UNL     1      -0.020  13.707  21.334  0.00  0.00    +0.000 A 
BRANCH  24  25
ATOM     25  N   UNL     1       1.051  14.071  20.539  0.00  0.00    +0.000 N 
ATOM     26  C   UNL     1       2.328  13.336  20.589  0.00  0.00    +0.000 C 
ATOM     27  C   UNL     1       3.480  14.348  20.636  0.00  0.00    +0.000 C 
ATOM     28  O   UNL     1       3.447  15.211  19.486  0.00  0.00    +0.000 OA
ATOM     29  C   UNL     1       2.216  15.961  19.465  0.00  0.00    +0.000 C 
ATOM     30  C   UNL     1       0.978  15.042  19.438  0.00  0.00    +0.000 C 
ENDBRANCH  24  25
BRANCH  21  31
ATOM     31  N   UNL     1      -3.360  13.017  23.950  0.00  0.00    +0.000 N 
ATOM     32  O   UNL     1      -3.739  13.941  24.685  0.00  0.00    +0.000 OA
ATOM     33  O   UNL     1      -3.880  11.896  23.900  0.00  0.00    +0.000 OA
ENDBRANCH  21  31
ENDBRANCH   5  19
TORSDOF 5
ENDMDL
MODEL 7
REMARK VINA RESULT:      -8.6      2.717      4.921
REMARK  Name = 
REMARK  6 active torsions:
REMARK  status: ('A' for Active; 'I' for Inactive)
REMARK    1  A    between atoms: C_1  and  C_2
REMARK    2  A    between atoms: C_2  and  C_4
REMARK    3  A    between atoms: C_7  and  N_8
REMARK    4  A    between atoms: C_12  and  C_14
REMARK    5  A    between atoms: C_16  and  N_17
REMARK    6  A    between atoms: C_22  and  N_23
REMARK                            x       y       z     vdW  Elec       q    Type
REMARK                         _______ _______ _______ _____ _____    ______ ____
ROOT
ATOM      1  N   UNL     1       1.010   9.651  19.656  0.00  0.00    +0.000 N 
ATOM      2  C   UNL     1       1.400   8.965  20.904  0.00  0.00    +0.000 C 
ATOM      3  C   UNL     1       1.515   7.437  20.649  0.00  0.00    +0.000 C 
ATOM      4  N   UNL     1       2.390   7.105  19.501  0.00  0.00    +0.000 N 
ATOM      5  C   UNL     1       3.128   5.902  19.557  0.00  0.00    +0.000 C 
ATOM      6  O   UNL     1       3.089   5.194  20.562  0.00  0.00    +0.000 OA
ATOM      7  C   UNL     1       2.077   7.885  18.292  0.00  0.00    +0.000 C 
ATOM      8  C   UNL     1       1.940   9.388  18.546  0.00  0.00    +0.000 C 
ENDROOT
BRANCH   1  12
ATOM      9  C   UNL     1      -0.150  13.731  19.506  0.00  0.00    +0.000 A 
ATOM     10  C   UNL     1       0.808  13.317  20.441  0.00  0.00    +0.000 A 
ATOM     11  C   UNL     1       1.183  11.959  20.527  0.00  0.00    +0.000 A 
ATOM     12  C   UNL     1       0.625  11.003  19.673  0.00  0.00    +0.000 A 
ATOM     13  C   UNL     1      -0.316  11.457  18.726  0.00  0.00    +0.000 A 
ATOM     14  F   UNL     1      -0.858  10.586  17.858  0.00  0.00    +0.000 F 
ATOM     15  C   UNL     1      -0.704  12.786  18.639  0.00  0.00    +0.000 A 
BRANCH   9  17
ATOM     16  C   UNL     1      -1.589  15.688  20.399  0.00  0.00    +0.000 C 
ATOM     17  C   UNL     1      -0.618  15.143  19.387  0.00  0.00    +0.000 C 
ATOM     18  O   UNL     1      -0.204  15.845  18.468  0.00  0.00    +0.000 OA
ENDBRANCH   9  17
ENDBRANCH   1  12
BRANCH   5  19
ATOM     19  C   UNL     1       4.002   5.452  18.409  0.00  0.00    +0.000 A 
ATOM     20  C   UNL     1       5.042   6.313  18.009  0.00  0.00    +0.000 A 
ATOM     21  C   UNL     1       5.927   5.960  16.984  0.00  0.00    +0.000 A 
ATOM     22  C   UNL     1       5.731   4.794  16.257  0.00  0.00    +0.000 A 
ATOM     23  C   UNL     1       4.634   3.992  16.569  0.00  0.00    +0.000 A 
ATOM     24  C   UNL     1       3.735   4.287  17.628  0.00  0.00    +0.000 A 
BRANCH  24  25
ATOM     25  N   UNL     1       2.644   3.451  17.777  0.00  0.00    +0.000 N 
ATOM     26  C   UNL     1       1.266   3.955  17.628  0.00  0.00    +0.000 C 
ATOM     27  C   UNL     1       0.411   3.404  18.777  0.00  0.00    +0.000 C 
ATOM     28  O   UNL     1       0.418   1.965  18.772  0.00  0.00    +0.000 OA
ATOM     29  C   UNL     1       1.760   1.477  18.963  0.00  0.00    +0.000 C 
ATOM     30  C   UNL     1       2.723   1.987  17.872  0.00  0.00    +0.000 C 
ENDBRANCH  24  25
BRANCH  21  31
ATOM     31  N   UNL     1       7.092   6.806  16.706  0.00  0.00    +0.000 N 
ATOM     32  O   UNL     1       7.945   6.363  15.922  0.00  0.00    +0.000 OA
ATOM     33  O   UNL     1       7.139   7.920  17.243  0.00  0.00    +0.000 OA
ENDBRANCH  21  31
ENDBRANCH   5  19
TORSDOF 5
ENDMDL
MODEL 8
REMARK VINA RESULT:      -8.6      1.257      1.618
REMARK  Name = 
REMARK  6 active torsions:
REMARK  status: ('A' for Active; 'I' for Inactive)
REMARK    1  A    between atoms: C_1  and  C_2
REMARK    2  A    between atoms: C_2  and  C_4
REMARK    3  A    between atoms: C_7  and  N_8
REMARK    4  A    between atoms: C_12  and  C_14
REMARK    5  A    between atoms: C_16  and  N_17
REMARK    6  A    between atoms: C_22  and  N_23
REMARK                            x       y       z     vdW  Elec       q    Type
REMARK                         _______ _______ _______ _____ _____    ______ ____
ROOT
ATOM      1  N   UNL     1       0.894   9.765  19.716  0.00  0.00    +0.000 N 
ATOM      2  C   UNL     1       1.090   9.656  18.257  0.00  0.00    +0.000 C 
ATOM      3  C   UNL     1       2.422   8.916  17.960  0.00  0.00    +0.000 C 
ATOM      4  N   UNL     1       2.536   7.618  18.665  0.00  0.00    +0.000 N 
ATOM      5  C   UNL     1       3.249   6.579  18.027  0.00  0.00    +0.000 C 
ATOM      6  O   UNL     1       3.700   6.738  16.894  0.00  0.00    +0.000 OA
ATOM      7  C   UNL     1       2.216   7.710  20.099  0.00  0.00    +0.000 C 
ATOM      8  C   UNL     1       0.914   8.458  20.394  0.00  0.00    +0.000 C 
ENDROOT
BRANCH   1  12
ATOM      9  C   UNL     1      -2.159  12.345  21.143  0.00  0.00    +0.000 A 
ATOM     10  C   UNL     1      -1.166  11.894  22.022  0.00  0.00    +0.000 A 
ATOM     11  C   UNL     1      -0.161  11.010  21.574  0.00  0.00    +0.000 A 
ATOM     12  C   UNL     1      -0.121  10.582  20.243  0.00  0.00    +0.000 A 
ATOM     13  C   UNL     1      -1.118  11.076  19.378  0.00  0.00    +0.000 A 
ATOM     14  F   UNL     1      -1.107  10.724  18.081  0.00  0.00    +0.000 F 
ATOM     15  C   UNL     1      -2.120  11.935  19.809  0.00  0.00    +0.000 A 
BRANCH   9  17
ATOM     16  C   UNL     1      -3.876  13.094  22.928  0.00  0.00    +0.000 C 
ATOM     17  C   UNL     1      -3.270  13.251  21.560  0.00  0.00    +0.000 C 
ATOM     18  O   UNL     1      -3.674  14.114  20.785  0.00  0.00    +0.000 OA
ENDBRANCH   9  17
ENDBRANCH   1  12
BRANCH   5  19
ATOM     19  C   UNL     1       3.466   5.240  18.693  0.00  0.00    +0.000 A 
ATOM     20  C   UNL     1       2.464   4.782  19.571  0.00  0.00    +0.000 A 
ATOM     21  C   UNL     1       2.559   3.535  20.198  0.00  0.00    +0.000 A 
ATOM     22  C   UNL     1       3.705   2.763  20.057  0.00  0.00    +0.000 A 
ATOM     23  C   UNL     1       4.752   3.262  19.284  0.00  0.00    +0.000 A 
ATOM     24  C   UNL     1       4.683   4.501  18.593  0.00  0.00    +0.000 A 
BRANCH  24  25
ATOM     25  N   UNL     1       5.823   4.914  17.929  0.00  0.00    +0.000 N 
ATOM     26  C   UNL     1       6.779   5.848  18.553  0.00  0.00    +0.000 C 
ATOM     27  C   UNL     1       7.165   6.920  17.526  0.00  0.00    +0.000 C 
ATOM     28  O   UNL     1       7.747   6.319  16.356  0.00  0.00    +0.000 OA
ATOM     29  C   UNL     1       6.795   5.442  15.724  0.00  0.00    +0.000 C 
ATOM     30  C   UNL     1       6.314   4.326  16.675  0.00  0.00    +0.000 C 
ENDBRANCH  24  25
BRANCH  21  31
ATOM     31  N   UNL     1       1.425   3.022  20.974  0.00  0.00    +0.000 N 
ATOM     32  O   UNL     1       1.641   2.693  22.150  0.00  0.00    +0.000 OA
ATOM     33  O   UNL     1       0.319   2.980  20.422  0.00  0.00    +0.000 OA
ENDBRANCH  21  31
ENDBRANCH   5  19
TORSDOF 5
ENDMDL
MODEL 9
REMARK VINA RESULT:      -8.6      1.160      1.680
REMARK  Name = 
REMARK  6 active torsions:
REMARK  status: ('A' for Active; 'I' for Inactive)
REMARK    1  A    between atoms: C_1  and  C_2
REMARK    2  A    between atoms: C_2  and  C_4
REMARK    3  A    between atoms: C_7  and  N_8
REMARK    4  A    between atoms: C_12  and  C_14
REMARK    5  A    between atoms: C_16  and  N_17
REMARK    6  A    between atoms: C_22  and  N_23
REMARK                            x       y       z     vdW  Elec       q    Type
REMARK                         _______ _______ _______ _____ _____    ______ ____
ROOT
ATOM      1  N   UNL     1       0.834  10.038  20.519  0.00  0.00    +0.000 N 
ATOM      2  C   UNL     1       0.566   9.941  19.071  0.00  0.00    +0.000 C 
ATOM      3  C   UNL     1       1.763   9.253  18.360  0.00  0.00    +0.000 C 
ATOM      4  N   UNL     1       2.138   7.959  18.974  0.00  0.00    +0.000 N 
ATOM      5  C   UNL     1       2.651   6.949  18.130  0.00  0.00    +0.000 C 
ATOM      6  O   UNL     1       2.717   7.128  16.915  0.00  0.00    +0.000 OA
ATOM      7  C   UNL     1       2.281   8.034  20.437  0.00  0.00    +0.000 C 
ATOM      8  C   UNL     1       1.113   8.732  21.137  0.00  0.00    +0.000 C 
ENDROOT
BRANCH   1  12
ATOM      9  C   UNL     1      -1.514  12.518  23.039  0.00  0.00    +0.000 A 
ATOM     10  C   UNL     1      -1.510  11.131  23.240  0.00  0.00    +0.000 A 
ATOM     11  C   UNL     1      -0.761  10.288  22.392  0.00  0.00    +0.000 A 
ATOM     12  C   UNL     1       0.008  10.815  21.350  0.00  0.00    +0.000 A 
ATOM     13  C   UNL     1       0.004  12.215  21.192  0.00  0.00    +0.000 A 
ATOM     14  F   UNL     1       0.752  12.778  20.227  0.00  0.00    +0.000 F 
ATOM     15  C   UNL     1      -0.738  13.056  22.010  0.00  0.00    +0.000 A 
BRANCH   9  17
ATOM     16  C   UNL     1      -1.720  14.794  24.254  0.00  0.00    +0.000 C 
ATOM     17  C   UNL     1      -2.311  13.463  23.876  0.00  0.00    +0.000 C 
ATOM     18  O   UNL     1      -3.439  13.146  24.243  0.00  0.00    +0.000 OA
ENDBRANCH   9  17
ENDBRANCH   1  12
BRANCH   5  19
ATOM     19  C   UNL     1       3.113   5.617  18.674  0.00  0.00    +0.000 A 
ATOM     20  C   UNL     1       2.369   5.054  19.730  0.00  0.00    +0.000 A 
ATOM     21  C   UNL     1       2.697   3.805  20.267  0.00  0.00    +0.000 A 
ATOM     22  C   UNL     1       3.839   3.137  19.847  0.00  0.00    +0.000 A 
ATOM     23  C   UNL     1       4.647   3.742  18.885  0.00  0.00    +0.000 A 
ATOM     24  C   UNL     1       4.331   4.987  18.280  0.00  0.00    +0.000 A 
BRANCH  24  25
ATOM     25  N   UNL     1       5.260   5.511  17.400  0.00  0.00    +0.000 N 
ATOM     26  C   UNL     1       5.364   5.021  16.013  0.00  0.00    +0.000 C 
ATOM     27  C   UNL     1       6.846   4.811  15.672  0.00  0.00    +0.000 C 
ATOM     28  O   UNL     1       7.582   6.038  15.824  0.00  0.00    +0.000 OA
ATOM     29  C   UNL     1       7.515   6.489  17.191  0.00  0.00    +0.000 C 
ATOM     30  C   UNL     1       6.061   6.715  17.656  0.00  0.00    +0.000 C 
ENDBRANCH  24  25
BRANCH  21  31
ATOM     31  N   UNL     1       1.806   3.179  21.250  0.00  0.00    +0.000 N 
ATOM     32  O   UNL     1       2.258   2.987  22.389  0.00  0.00    +0.000 OA
ATOM     33  O   UNL     1       0.651   2.911  20.895  0.00  0.00    +0.000 OA
ENDBRANCH  21  31
ENDBRANCH   5  19
TORSDOF 5
ENDMDL
