MODEL 1
REMARK VINA RESULT:      -7.5      0.000      0.000
REMARK  Name = 
REMARK  5 active torsions:
REMARK  status: ('A' for Active; 'I' for Inactive)
REMARK    1  A    between atoms: C_5  and  C_6
REMARK    2  A    between atoms: N_11  and  C_12
REMARK    3  A    between atoms: C_12  and  C_13
REMARK    4  A    between atoms: C_13  and  C_14
REMARK    5  A    between atoms: C_14  and  N_15
REMARK                            x       y       z     vdW  Elec       q    Type
REMARK                         _______ _______ _______ _____ _____    ______ ____
ROOT
ATOM      1  C   UNL     1       5.434   4.464  17.273  0.00  0.00    +0.000 A 
ATOM      2  C   UNL     1       5.782   4.275  15.946  0.00  0.00    +0.000 A 
ATOM      3  C   UNL     1       6.748   5.109  15.448  0.00  0.00    +0.000 A 
ATOM      4  N   UNL     1       7.339   6.071  16.172  0.00  0.00    +0.000 NA
ATOM      5  C   UNL     1       6.968   6.186  17.452  0.00  0.00    +0.000 A 
ATOM      6  N   UNL     1       7.604   7.110  18.260  0.00  0.00    +0.000 N 
ATOM      7  N   UNL     1       6.028   5.423  18.029  0.00  0.00    +0.000 NA
ATOM      8  H   UNL     1       7.145   7.161  19.159  0.00  0.00    +0.000 HD
ENDROOT
BRANCH   1  13
ATOM      9  C   UNL     1       2.202   2.566  17.919  0.00  0.00    +0.000 A 
ATOM     10  C   UNL     1       2.404   2.233  19.244  0.00  0.00    +0.000 A 
ATOM     11  N   UNL     1       3.525   2.550  19.924  0.00  0.00    +0.000 NA
ATOM     12  C   UNL     1       4.480   3.241  19.248  0.00  0.00    +0.000 A 
ATOM     13  C   UNL     1       4.384   3.655  17.915  0.00  0.00    +0.000 A 
ATOM     14  C   UNL     1       3.200   3.274  17.255  0.00  0.00    +0.000 A 
ENDBRANCH   1  13
BRANCH   6  15
ATOM     15  C   UNL     1       8.073   8.344  17.656  0.00  0.00    +0.000 C 
BRANCH  15  16
ATOM     16  C   UNL     1       8.696   9.286  18.689  0.00  0.00    +0.000 C 
BRANCH  16  17
ATOM     17  C   UNL     1       8.980  10.653  18.065  0.00  0.00    +0.000 C 
BRANCH  17  18
ATOM     18  N   UNL     1      10.163  11.290  18.607  0.00  0.00    +0.000 N 
ATOM     19  C   UNL     1      10.480  11.414  19.932  0.00  0.00    +0.000 A 
ATOM     20  C   UNL     1      11.704  12.042  19.946  0.00  0.00    +0.000 A 
ATOM     21  N   UNL     1      12.141  12.282  18.668  0.00  0.00    +0.000 NA
ATOM     22  C   UNL     1      11.198  11.809  17.884  0.00  0.00    +0.000 A 
ENDBRANCH  17  18
ENDBRANCH  16  17
ENDBRANCH  15  16
ENDBRANCH   6  15
TORSDOF 5
ENDMDL
MODEL 2
REMARK VINA RESULT:      -7.4      4.364      8.225
REMARK  Name = 
REMARK  5 active torsions:
REMARK  status: ('A' for Active; 'I' for Inactive)
REMARK    1  A    between atoms: C_5  and  C_6
REMARK    2  A    between atoms: N_11  and  C_12
REMARK    3  A    between atoms: C_12  and  C_13
REMARK    4  A    between atoms: C_13  and  C_14
REMARK    5  A    between atoms: C_14  and  N_15
REMARK                            x       y       z     vdW  Elec       q    Type
REMARK                         _______ _______ _______ _____ _____    ______ ____
ROOT
ATOM      1  C   UNL     1       4.393   6.056  17.509  0.00  0.00    +0.000 A 
ATOM      2  C   UNL     1       3.619   7.196  17.379  0.00  0.00    +0.000 A 
ATOM      3  C   UNL     1       2.760   7.467  18.412  0.00  0.00    +0.000 A 
ATOM      4  N   UNL     1       2.643   6.690  19.498  0.00  0.00    +0.000 NA
ATOM      5  C   UNL     1       3.434   5.613  19.567  0.00  0.00    +0.000 A 
ATOM      6  N   UNL     1       3.406   4.825  20.701  0.00  0.00    +0.000 N 
ATOM      7  N   UNL     1       4.301   5.261  18.605  0.00  0.00    +0.000 NA
ATOM      8  H   UNL     1       3.967   3.995  20.563  0.00  0.00    +0.000 HD
ENDROOT
BRANCH   1  13
ATOM      9  C   UNL     1       5.912   4.309  14.491  0.00  0.00    +0.000 A 
ATOM     10  C   UNL     1       7.196   4.809  14.570  0.00  0.00    +0.000 A 
ATOM     11  N   UNL     1       7.588   5.695  15.509  0.00  0.00    +0.000 NA
ATOM     12  C   UNL     1       6.653   6.087  16.414  0.00  0.00    +0.000 A 
ATOM     13  C   UNL     1       5.329   5.637  16.451  0.00  0.00    +0.000 A 
ATOM     14  C   UNL     1       4.977   4.731  15.432  0.00  0.00    +0.000 A 
ENDBRANCH   1  13
BRANCH   6  15
ATOM     15  C   UNL     1       2.150   4.695  21.418  0.00  0.00    +0.000 C 
BRANCH  15  16
ATOM     16  C   UNL     1       1.700   3.237  21.525  0.00  0.00    +0.000 C 
BRANCH  16  17
ATOM     17  C   UNL     1       0.815   2.861  20.335  0.00  0.00    +0.000 C 
BRANCH  17  18
ATOM     18  N   UNL     1       1.551   2.760  19.091  0.00  0.00    +0.000 N 
ATOM     19  C   UNL     1       2.560   1.879  18.816  0.00  0.00    +0.000 A 
ATOM     20  C   UNL     1       2.909   2.135  17.510  0.00  0.00    +0.000 A 
ATOM     21  N   UNL     1       2.126   3.131  16.985  0.00  0.00    +0.000 NA
ATOM     22  C   UNL     1       1.312   3.480  17.956  0.00  0.00    +0.000 A 
ENDBRANCH  17  18
ENDBRANCH  16  17
ENDBRANCH  15  16
ENDBRANCH   6  15
TORSDOF 5
ENDMDL
MODEL 3
REMARK VINA RESULT:      -7.4      0.932      1.212
REMARK  Name = 
REMARK  5 active torsions:
REMARK  status: ('A' for Active; 'I' for Inactive)
REMARK    1  A    between atoms: C_5  and  C_6
REMARK    2  A    between atoms: N_11  and  C_12
REMARK    3  A    between atoms: C_12  and  C_13
REMARK    4  A    between atoms: C_13  and  C_14
REMARK    5  A    between atoms: C_14  and  N_15
REMARK                            x       y       z     vdW  Elec       q    Type
REMARK                         _______ _______ _______ _____ _____    ______ ____
ROOT
ATOM      1  C   UNL     1       5.092   4.536  16.945  0.00  0.00    +0.000 A 
ATOM      2  C   UNL     1       5.675   4.180  15.742  0.00  0.00    +0.000 A 
ATOM      3  C   UNL     1       6.809   4.866  15.391  0.00  0.00    +0.000 A 
ATOM      4  N   UNL     1       7.345   5.839  16.141  0.00  0.00    +0.000 NA
ATOM      5  C   UNL     1       6.741   6.119  17.301  0.00  0.00    +0.000 A 
ATOM      6  N   UNL     1       7.300   7.059  18.146  0.00  0.00    +0.000 N 
ATOM      7  N   UNL     1       5.625   5.509  17.728  0.00  0.00    +0.000 NA
ATOM      8  H   UNL     1       6.678   7.245  18.921  0.00  0.00    +0.000 HD
ENDROOT
BRANCH   1  13
ATOM      9  C   UNL     1       1.530   3.984  18.159  0.00  0.00    +0.000 A 
ATOM     10  C   UNL     1       1.595   2.631  18.425  0.00  0.00    +0.000 A 
ATOM     11  N   UNL     1       2.698   1.886  18.204  0.00  0.00    +0.000 NA
ATOM     12  C   UNL     1       3.786   2.530  17.706  0.00  0.00    +0.000 A 
ATOM     13  C   UNL     1       3.851   3.897  17.417  0.00  0.00    +0.000 A 
ATOM     14  C   UNL     1       2.661   4.614  17.649  0.00  0.00    +0.000 A 
ENDBRANCH   1  13
BRANCH   6  15
ATOM     15  C   UNL     1       8.015   8.176  17.555  0.00  0.00    +0.000 C 
BRANCH  15  16
ATOM     16  C   UNL     1       8.633   9.087  18.618  0.00  0.00    +0.000 C 
BRANCH  16  17
ATOM     17  C   UNL     1       8.922  10.472  18.035  0.00  0.00    +0.000 C 
BRANCH  17  18
ATOM     18  N   UNL     1       9.919  11.207  18.787  0.00  0.00    +0.000 N 
ATOM     19  C   UNL     1      10.845  12.072  18.273  0.00  0.00    +0.000 A 
ATOM     20  C   UNL     1      11.530  12.549  19.368  0.00  0.00    +0.000 A 
ATOM     21  N   UNL     1      11.028  12.011  20.526  0.00  0.00    +0.000 NA
ATOM     22  C   UNL     1      10.054  11.215  20.145  0.00  0.00    +0.000 A 
ENDBRANCH  17  18
ENDBRANCH  16  17
ENDBRANCH  15  16
ENDBRANCH   6  15
TORSDOF 5
ENDMDL
MODEL 4
REMARK VINA RESULT:      -7.3      4.383      8.162
REMARK  Name = 
REMARK  5 active torsions:
REMARK  status: ('A' for Active; 'I' for Inactive)
REMARK    1  A    between atoms: C_5  and  C_6
REMARK    2  A    between atoms: N_11  and  C_12
REMARK    3  A    between atoms: C_12  and  C_13
REMARK    4  A    between atoms: C_13  and  C_14
REMARK    5  A    between atoms: C_14  and  N_15
REMARK                            x       y       z     vdW  Elec       q    Type
REMARK                         _______ _______ _______ _____ _____    ______ ____
ROOT
ATOM      1  C   UNL     1       4.334   6.193  17.349  0.00  0.00    +0.000 A 
ATOM      2  C   UNL     1       3.659   7.383  17.143  0.00  0.00    +0.000 A 
ATOM      3  C   UNL     1       2.770   7.753  18.118  0.00  0.00    +0.000 A 
ATOM      4  N   UNL     1       2.535   7.023  19.218  0.00  0.00    +0.000 NA
ATOM      5  C   UNL     1       3.235   5.893  19.362  0.00  0.00    +0.000 A 
ATOM      6  N   UNL     1       3.086   5.147  20.516  0.00  0.00    +0.000 N 
ATOM      7  N   UNL     1       4.122   5.444  18.461  0.00  0.00    +0.000 NA
ATOM      8  H   UNL     1       3.587   4.273  20.433  0.00  0.00    +0.000 HD
ENDROOT
BRANCH   1  13
ATOM      9  C   UNL     1       5.895   4.181  14.524  0.00  0.00    +0.000 A 
ATOM     10  C   UNL     1       7.190   4.651  14.608  0.00  0.00    +0.000 A 
ATOM     11  N   UNL     1       7.578   5.595  15.489  0.00  0.00    +0.000 NA
ATOM     12  C   UNL     1       6.628   6.080  16.330  0.00  0.00    +0.000 A 
ATOM     13  C   UNL     1       5.291   5.670  16.358  0.00  0.00    +0.000 A 
ATOM     14  C   UNL     1       4.944   4.698  15.399  0.00  0.00    +0.000 A 
ENDBRANCH   1  13
BRANCH   6  15
ATOM     15  C   UNL     1       1.787   5.137  21.165  0.00  0.00    +0.000 C 
BRANCH  15  16
ATOM     16  C   UNL     1       0.889   4.020  20.629  0.00  0.00    +0.000 C 
BRANCH  16  17
ATOM     17  C   UNL     1       1.631   2.682  20.644  0.00  0.00    +0.000 C 
BRANCH  17  18
ATOM     18  N   UNL     1       2.265   2.371  19.378  0.00  0.00    +0.000 N 
ATOM     19  C   UNL     1       1.780   2.670  18.135  0.00  0.00    +0.000 A 
ATOM     20  C   UNL     1       2.743   2.220  17.261  0.00  0.00    +0.000 A 
ATOM     21  N   UNL     1       3.801   1.676  17.944  0.00  0.00    +0.000 NA
ATOM     22  C   UNL     1       3.490   1.791  19.216  0.00  0.00    +0.000 A 
ENDBRANCH  17  18
ENDBRANCH  16  17
ENDBRANCH  15  16
ENDBRANCH   6  15
TORSDOF 5
ENDMDL
MODEL 5
REMARK VINA RESULT:      -7.1      0.875      1.349
REMARK  Name = 
REMARK  5 active torsions:
REMARK  status: ('A' for Active; 'I' for Inactive)
REMARK    1  A    between atoms: C_5  and  C_6
REMARK    2  A    between atoms: N_11  and  C_12
REMARK    3  A    between atoms: C_12  and  C_13
REMARK    4  A    between atoms: C_13  and  C_14
REMARK    5  A    between atoms: C_14  and  N_15
REMARK                            x       y       z     vdW  Elec       q    Type
REMARK                         _______ _______ _______ _____ _____    ______ ____
ROOT
ATOM      1  C   UNL     1       5.347   4.466  17.186  0.00  0.00    +0.000 A 
ATOM      2  C   UNL     1       5.797   4.198  15.905  0.00  0.00    +0.000 A 
ATOM      3  C   UNL     1       6.823   4.981  15.446  0.00  0.00    +0.000 A 
ATOM      4  N   UNL     1       7.377   5.968  16.165  0.00  0.00    +0.000 NA
ATOM      5  C   UNL     1       6.906   6.161  17.402  0.00  0.00    +0.000 A 
ATOM      6  N   UNL     1       7.498   7.113  18.211  0.00  0.00    +0.000 N 
ATOM      7  N   UNL     1       5.902   5.451  17.938  0.00  0.00    +0.000 NA
ATOM      8  H   UNL     1       6.968   7.223  19.064  0.00  0.00    +0.000 HD
ENDROOT
BRANCH   1  13
ATOM      9  C   UNL     1       3.261   2.300  19.516  0.00  0.00    +0.000 A 
ATOM     10  C   UNL     1       2.103   2.224  18.768  0.00  0.00    +0.000 A 
ATOM     11  N   UNL     1       1.944   2.852  17.585  0.00  0.00    +0.000 NA
ATOM     12  C   UNL     1       2.997   3.580  17.128  0.00  0.00    +0.000 A 
ATOM     13  C   UNL     1       4.227   3.716  17.781  0.00  0.00    +0.000 A 
ATOM     14  C   UNL     1       4.322   3.054  19.021  0.00  0.00    +0.000 A 
ENDBRANCH   1  13
BRANCH   6  15
ATOM     15  C   UNL     1       8.048   8.301  17.584  0.00  0.00    +0.000 C 
BRANCH  15  16
ATOM     16  C   UNL     1       8.753   9.207  18.596  0.00  0.00    +0.000 C 
BRANCH  16  17
ATOM     17  C   UNL     1       8.633  10.674  18.176  0.00  0.00    +0.000 C 
BRANCH  17  18
ATOM     18  N   UNL     1       9.779  11.471  18.568  0.00  0.00    +0.000 N 
ATOM     19  C   UNL     1      10.956  11.587  17.882  0.00  0.00    +0.000 A 
ATOM     20  C   UNL     1      11.708  12.476  18.617  0.00  0.00    +0.000 A 
ATOM     21  N   UNL     1      11.008  12.912  19.713  0.00  0.00    +0.000 NA
ATOM     22  C   UNL     1       9.848  12.298  19.651  0.00  0.00    +0.000 A 
ENDBRANCH  17  18
ENDBRANCH  16  17
ENDBRANCH  15  16
ENDBRANCH   6  15
TORSDOF 5
ENDMDL
MODEL 6
REMARK VINA RESULT:      -7.0      1.324      1.596
REMARK  Name = 
REMARK  5 active torsions:
REMARK  status: ('A' for Active; 'I' for Inactive)
REMARK    1  A    between atoms: C_5  and  C_6
REMARK    2  A    between atoms: N_11  and  C_12
REMARK    3  A    between atoms: C_12  and  C_13
REMARK    4  A    between atoms: C_13  and  C_14
REMARK    5  A    between atoms: C_14  and  N_15
REMARK                            x       y       z     vdW  Elec       q    Type
REMARK                         _______ _______ _______ _____ _____    ______ ____
ROOT
ATOM      1  C   UNL     1       4.805   5.179  18.209  0.00  0.00    +0.000 A 
ATOM      2  C   UNL     1       4.371   5.317  16.902  0.00  0.00    +0.000 A 
ATOM      3  C   UNL     1       5.125   6.129  16.096  0.00  0.00    +0.000 A 
ATOM      4  N   UNL     1       6.220   6.777  16.517  0.00  0.00    +0.000 NA
ATOM      5  C   UNL     1       6.592   6.585  17.787  0.00  0.00    +0.000 A 
ATOM      6  N   UNL     1       7.758   7.168  18.247  0.00  0.00    +0.000 N 
ATOM      7  N   UNL     1       5.918   5.815  18.655  0.00  0.00    +0.000 NA
ATOM      8  H   UNL     1       7.848   7.029  19.244  0.00  0.00    +0.000 HD
ENDROOT
BRANCH   1  13
ATOM      9  C   UNL     1       2.308   4.059  20.851  0.00  0.00    +0.000 A 
ATOM     10  C   UNL     1       2.797   2.790  21.092  0.00  0.00    +0.000 A 
ATOM     11  N   UNL     1       3.851   2.267  20.434  0.00  0.00    +0.000 NA
ATOM     12  C   UNL     1       4.448   3.055  19.502  0.00  0.00    +0.000 A 
ATOM     13  C   UNL     1       4.062   4.361  19.184  0.00  0.00    +0.000 A 
ATOM     14  C   UNL     1       2.941   4.841  19.890  0.00  0.00    +0.000 A 
ENDBRANCH   1  13
BRANCH   6  15
ATOM     15  C   UNL     1       8.149   8.453  17.693  0.00  0.00    +0.000 C 
BRANCH  15  16
ATOM     16  C   UNL     1       8.800   9.354  18.744  0.00  0.00    +0.000 C 
BRANCH  16  17
ATOM     17  C   UNL     1       9.099  10.735  18.155  0.00  0.00    +0.000 C 
BRANCH  17  18
ATOM     18  N   UNL     1      10.292  11.341  18.710  0.00  0.00    +0.000 N 
ATOM     19  C   UNL     1      11.359  11.822  18.003  0.00  0.00    +0.000 A 
ATOM     20  C   UNL     1      12.212  12.334  18.954  0.00  0.00    +0.000 A 
ATOM     21  N   UNL     1      11.679  12.193  20.210  0.00  0.00    +0.000 NA
ATOM     22  C   UNL     1      10.520  11.602  20.030  0.00  0.00    +0.000 A 
ENDBRANCH  17  18
ENDBRANCH  16  17
ENDBRANCH  15  16
ENDBRANCH   6  15
TORSDOF 5
ENDMDL
MODEL 7
REMARK VINA RESULT:      -7.0      4.752      8.020
REMARK  Name = 
REMARK  5 active torsions:
REMARK  status: ('A' for Active; 'I' for Inactive)
REMARK    1  A    between atoms: C_5  and  C_6
REMARK    2  A    between atoms: N_11  and  C_12
REMARK    3  A    between atoms: C_12  and  C_13
REMARK    4  A    between atoms: C_13  and  C_14
REMARK    5  A    between atoms: C_14  and  N_15
REMARK                            x       y       z     vdW  Elec       q    Type
REMARK                         _______ _______ _______ _____ _____    ______ ____
ROOT
ATOM      1  C   UNL     1       6.092   4.887  16.168  0.00  0.00    +0.000 A 
ATOM      2  C   UNL     1       7.038   4.682  17.157  0.00  0.00    +0.000 A 
ATOM      3  C   UNL     1       6.631   4.920  18.444  0.00  0.00    +0.000 A 
ATOM      4  N   UNL     1       5.398   5.337  18.764  0.00  0.00    +0.000 NA
ATOM      5  C   UNL     1       4.529   5.498  17.760  0.00  0.00    +0.000 A 
ATOM      6  N   UNL     1       3.223   5.851  18.046  0.00  0.00    +0.000 N 
ATOM      7  N   UNL     1       4.833   5.297  16.469  0.00  0.00    +0.000 NA
ATOM      8  H   UNL     1       2.720   6.044  17.192  0.00  0.00    +0.000 HD
ENDROOT
BRANCH   1  13
ATOM      9  C   UNL     1       6.127   3.577  12.598  0.00  0.00    +0.000 A 
ATOM     10  C   UNL     1       7.174   4.325  12.099  0.00  0.00    +0.000 A 
ATOM     11  N   UNL     1       7.839   5.244  12.828  0.00  0.00    +0.000 NA
ATOM     12  C   UNL     1       7.444   5.411  14.118  0.00  0.00    +0.000 A 
ATOM     13  C   UNL     1       6.415   4.700  14.743  0.00  0.00    +0.000 A 
ATOM     14  C   UNL     1       5.745   3.771  13.922  0.00  0.00    +0.000 A 
ENDBRANCH   1  13
BRANCH   6  15
ATOM     15  C   UNL     1       2.977   6.700  19.198  0.00  0.00    +0.000 C 
BRANCH  15  16
ATOM     16  C   UNL     1       1.907   6.114  20.122  0.00  0.00    +0.000 C 
BRANCH  16  17
ATOM     17  C   UNL     1       2.422   4.840  20.796  0.00  0.00    +0.000 C 
BRANCH  17  18
ATOM     18  N   UNL     1       2.147   3.643  20.028  0.00  0.00    +0.000 N 
ATOM     19  C   UNL     1       0.961   3.317  19.432  0.00  0.00    +0.000 A 
ATOM     20  C   UNL     1       1.201   2.123  18.791  0.00  0.00    +0.000 A 
ATOM     21  N   UNL     1       2.503   1.731  18.969  0.00  0.00    +0.000 NA
ATOM     22  C   UNL     1       3.050   2.670  19.708  0.00  0.00    +0.000 A 
ENDBRANCH  17  18
ENDBRANCH  16  17
ENDBRANCH  15  16
ENDBRANCH   6  15
TORSDOF 5
ENDMDL
MODEL 8
REMARK VINA RESULT:      -7.0      2.829      3.954
REMARK  Name = 
REMARK  5 active torsions:
REMARK  status: ('A' for Active; 'I' for Inactive)
REMARK    1  A    between atoms: C_5  and  C_6
REMARK    2  A    between atoms: N_11  and  C_12
REMARK    3  A    between atoms: C_12  and  C_13
REMARK    4  A    between atoms: C_13  and  C_14
REMARK    5  A    between atoms: C_14  and  N_15
REMARK                            x       y       z     vdW  Elec       q    Type
REMARK                         _______ _______ _______ _____ _____    ______ ____
ROOT
ATOM      1  C   UNL     1       7.173   5.414  16.144  0.00  0.00    +0.000 A 
ATOM      2  C   UNL     1       7.337   4.593  17.246  0.00  0.00    +0.000 A 
ATOM      3  C   UNL     1       7.658   5.217  18.424  0.00  0.00    +0.000 A 
ATOM      4  N   UNL     1       7.821   6.542  18.537  0.00  0.00    +0.000 NA
ATOM      5  C   UNL     1       7.630   7.277  17.436  0.00  0.00    +0.000 A 
ATOM      6  N   UNL     1       7.709   8.654  17.519  0.00  0.00    +0.000 N 
ATOM      7  N   UNL     1       7.320   6.760  16.237  0.00  0.00    +0.000 NA
ATOM      8  H   UNL     1       7.656   9.063  16.597  0.00  0.00    +0.000 HD
ENDROOT
BRANCH   1  13
ATOM      9  C   UNL     1       5.530   3.474  13.315  0.00  0.00    +0.000 A 
ATOM     10  C   UNL     1       6.420   3.767  12.301  0.00  0.00    +0.000 A 
ATOM     11  N   UNL     1       7.488   4.574  12.465  0.00  0.00    +0.000 NA
ATOM     12  C   UNL     1       7.678   5.101  13.704  0.00  0.00    +0.000 A 
ATOM     13  C   UNL     1       6.861   4.862  14.814  0.00  0.00    +0.000 A 
ATOM     14  C   UNL     1       5.751   4.029  14.572  0.00  0.00    +0.000 A 
ENDBRANCH   1  13
BRANCH   6  15
ATOM     15  C   UNL     1       8.636   9.233  18.476  0.00  0.00    +0.000 C 
BRANCH  15  16
ATOM     16  C   UNL     1       8.767  10.748  18.300  0.00  0.00    +0.000 C 
BRANCH  16  17
ATOM     17  C   UNL     1      10.215  11.126  17.980  0.00  0.00    +0.000 C 
BRANCH  17  18
ATOM     18  N   UNL     1      10.391  12.545  17.743  0.00  0.00    +0.000 N 
ATOM     19  C   UNL     1       9.628  13.553  18.264  0.00  0.00    +0.000 A 
ATOM     20  C   UNL     1      10.202  14.711  17.793  0.00  0.00    +0.000 A 
ATOM     21  N   UNL     1      11.300  14.429  17.020  0.00  0.00    +0.000 NA
ATOM     22  C   UNL     1      11.394  13.119  17.017  0.00  0.00    +0.000 A 
ENDBRANCH  17  18
ENDBRANCH  16  17
ENDBRANCH  15  16
ENDBRANCH   6  15
TORSDOF 5
ENDMDL
MODEL 9
REMARK VINA RESULT:      -6.9      1.264      1.511
REMARK  Name = 
REMARK  5 active torsions:
REMARK  status: ('A' for Active; 'I' for Inactive)
REMARK    1  A    between atoms: C_5  and  C_6
REMARK    2  A    between atoms: N_11  and  C_12
REMARK    3  A    between atoms: C_12  and  C_13
REMARK    4  A    between atoms: C_13  and  C_14
REMARK    5  A    between atoms: C_14  and  N_15
REMARK                            x       y       z     vdW  Elec       q    Type
REMARK                         _______ _______ _______ _____ _____    ______ ____
ROOT
ATOM      1  C   UNL     1       5.022   4.548  17.211  0.00  0.00    +0.000 A 
ATOM      2  C   UNL     1       5.202   4.479  15.841  0.00  0.00    +0.000 A 
ATOM      3  C   UNL     1       6.157   5.306  15.311  0.00  0.00    +0.000 A 
ATOM      4  N   UNL     1       6.888   6.155  16.047  0.00  0.00    +0.000 NA
ATOM      5  C   UNL     1       6.676   6.159  17.367  0.00  0.00    +0.000 A 
ATOM      6  N   UNL     1       7.459   6.959  18.177  0.00  0.00    +0.000 N 
ATOM      7  N   UNL     1       5.760   5.391  17.978  0.00  0.00    +0.000 NA
ATOM      8  H   UNL     1       7.111   6.942  19.126  0.00  0.00    +0.000 HD
ENDROOT
BRANCH   1  13
ATOM      9  C   UNL     1       3.211   2.418  19.790  0.00  0.00    +0.000 A 
ATOM     10  C   UNL     1       2.080   2.106  19.062  0.00  0.00    +0.000 A 
ATOM     11  N   UNL     1       1.852   2.567  17.816  0.00  0.00    +0.000 NA
ATOM     12  C   UNL     1       2.807   3.366  17.270  0.00  0.00    +0.000 A 
ATOM     13  C   UNL     1       4.002   3.735  17.896  0.00  0.00    +0.000 A 
ATOM     14  C   UNL     1       4.170   3.239  19.204  0.00  0.00    +0.000 A 
ENDBRANCH   1  13
BRANCH   6  15
ATOM     15  C   UNL     1       7.936   8.222  17.642  0.00  0.00    +0.000 C 
BRANCH  15  16
ATOM     16  C   UNL     1       8.707   9.031  18.686  0.00  0.00    +0.000 C 
BRANCH  16  17
ATOM     17  C   UNL     1       8.949  10.457  18.187  0.00  0.00    +0.000 C 
BRANCH  17  18
ATOM     18  N   UNL     1       9.265  11.386  19.254  0.00  0.00    +0.000 N 
ATOM     19  C   UNL     1       9.568  11.060  20.547  0.00  0.00    +0.000 A 
ATOM     20  C   UNL     1       9.832  12.262  21.162  0.00  0.00    +0.000 A 
ATOM     21  N   UNL     1       9.715  13.299  20.272  0.00  0.00    +0.000 NA
ATOM     22  C   UNL     1       9.383  12.740  19.130  0.00  0.00    +0.000 A 
ENDBRANCH  17  18
ENDBRANCH  16  17
ENDBRANCH  15  16
ENDBRANCH   6  15
TORSDOF 5
ENDMDL
