MODEL 1
REMARK VINA RESULT:      -6.1      0.000      0.000
REMARK  Name = 
REMARK  9 active torsions:
REMARK  status: ('A' for Active; 'I' for Inactive)
REMARK    1  A    between atoms: C_1  and  C_2
REMARK    2  A    between atoms: C_2  and  O_3
REMARK    3  A    between atoms: O_3  and  C_4
REMARK    4  A    between atoms: C_7  and  N_8
REMARK    5  A    between atoms: C_9  and  C_11
REMARK    6  A    between atoms: C_11  and  C_12
REMARK    7  A    between atoms: C_13  and  O_14
REMARK    8  A    between atoms: O_14  and  C_15
REMARK    9  A    between atoms: C_15  and  C_16
REMARK                            x       y       z     vdW  Elec       q    Type
REMARK                         _______ _______ _______ _____ _____    ______ ____
ROOT
ATOM      1  C   UNL     1       2.557   4.316  19.242  0.00  0.00    +0.000 A 
ATOM      2  N   UNL     1       2.084   4.141  18.010  0.00  0.00    +0.000 NA
ATOM      3  C   UNL     1       3.005   4.006  17.034  0.00  0.00    +0.000 A 
ATOM      4  C   UNL     1       4.371   4.013  17.237  0.00  0.00    +0.000 A 
ATOM      5  C   UNL     1       4.739   4.212  18.569  0.00  0.00    +0.000 A 
ATOM      6  N   UNL     1       3.853   4.364  19.577  0.00  0.00    +0.000 NA
ENDROOT
BRANCH   4   7
ATOM      7  N   UNL     1       5.334   3.841  16.202  0.00  0.00    +0.000 N 
ATOM      8  C   UNL     1       5.837   4.861  15.407  0.00  0.00    +0.000 C 
ATOM      9  O   UNL     1       5.534   6.047  15.501  0.00  0.00    +0.000 OA
ATOM     10  H   UNL     1       5.664   2.891  16.058  0.00  0.00    +0.000 HD
BRANCH   8  11
ATOM     11  C   UNL     1       6.840   4.391  14.369  0.00  0.00    +0.000 C 
ATOM     12  C   UNL     1       6.143   3.717  13.191  0.00  0.00    +0.000 C 
ENDBRANCH   8  11
ENDBRANCH   4   7
BRANCH   1  13
ATOM     13  O   UNL     1       1.597   4.358  20.222  0.00  0.00    +0.000 OA
BRANCH  13  15
ATOM     14  C   UNL     1       1.675   2.587  21.793  0.00  0.00    +0.000 C 
ATOM     15  C   UNL     1       1.040   3.080  20.505  0.00  0.00    +0.000 C 
ENDBRANCH  13  15
ENDBRANCH   1  13
BRANCH   5  16
ATOM     16  O   UNL     1       6.092   4.219  18.897  0.00  0.00    +0.000 OA
BRANCH  16  17
ATOM     17  C   UNL     1       6.531   5.524  19.316  0.00  0.00    +0.000 C 
ATOM     18  C   UNL     1       7.675   6.013  18.445  0.00  0.00    +0.000 C 
ENDBRANCH  16  17
ENDBRANCH   5  16
TORSDOF 6
ENDMDL
MODEL 2
REMARK VINA RESULT:      -6.1      2.254      3.654
REMARK  Name = 
REMARK  9 active torsions:
REMARK  status: ('A' for Active; 'I' for Inactive)
REMARK    1  A    between atoms: C_1  and  C_2
REMARK    2  A    between atoms: C_2  and  O_3
REMARK    3  A    between atoms: O_3  and  C_4
REMARK    4  A    between atoms: C_7  and  N_8
REMARK    5  A    between atoms: C_9  and  C_11
REMARK    6  A    between atoms: C_11  and  C_12
REMARK    7  A    between atoms: C_13  and  O_14
REMARK    8  A    between atoms: O_14  and  C_15
REMARK    9  A    between atoms: C_15  and  C_16
REMARK                            x       y       z     vdW  Elec       q    Type
REMARK                         _______ _______ _______ _____ _____    ______ ____
ROOT
ATOM      1  C   UNL     1       2.442   3.887  17.693  0.00  0.00    +0.000 A 
ATOM      2  N   UNL     1       3.559   3.177  17.550  0.00  0.00    +0.000 NA
ATOM      3  C   UNL     1       4.711   3.880  17.543  0.00  0.00    +0.000 A 
ATOM      4  C   UNL     1       4.797   5.250  17.694  0.00  0.00    +0.000 A 
ATOM      5  C   UNL     1       3.557   5.877  17.827  0.00  0.00    +0.000 A 
ATOM      6  N   UNL     1       2.379   5.217  17.828  0.00  0.00    +0.000 NA
ENDROOT
BRANCH   4   7
ATOM      7  N   UNL     1       6.021   5.978  17.712  0.00  0.00    +0.000 N 
ATOM      8  C   UNL     1       6.928   5.980  18.762  0.00  0.00    +0.000 C 
ATOM      9  O   UNL     1       6.808   5.343  19.804  0.00  0.00    +0.000 OA
ATOM     10  H   UNL     1       6.223   6.525  16.880  0.00  0.00    +0.000 HD
BRANCH   8  11
ATOM     11  C   UNL     1       8.142   6.859  18.520  0.00  0.00    +0.000 C 
ATOM     12  C   UNL     1       7.810   8.016  17.583  0.00  0.00    +0.000 C 
ENDBRANCH   8  11
ENDBRANCH   4   7
BRANCH   1  13
ATOM     13  O   UNL     1       1.297   3.136  17.789  0.00  0.00    +0.000 OA
BRANCH  13  15
ATOM     14  C   UNL     1       0.908   3.041  20.123  0.00  0.00    +0.000 C 
ATOM     15  C   UNL     1       1.314   2.244  18.897  0.00  0.00    +0.000 C 
ENDBRANCH  13  15
ENDBRANCH   1  13
BRANCH   5  16
ATOM     16  O   UNL     1       3.520   7.258  18.005  0.00  0.00    +0.000 OA
BRANCH  16  17
ATOM     17  C   UNL     1       2.292   7.682  18.624  0.00  0.00    +0.000 C 
ATOM     18  C   UNL     1       1.753   8.931  17.949  0.00  0.00    +0.000 C 
ENDBRANCH  16  17
ENDBRANCH   5  16
TORSDOF 6
ENDMDL
MODEL 3
REMARK VINA RESULT:      -6.0      2.115      5.776
REMARK  Name = 
REMARK  9 active torsions:
REMARK  status: ('A' for Active; 'I' for Inactive)
REMARK    1  A    between atoms: C_1  and  C_2
REMARK    2  A    between atoms: C_2  and  O_3
REMARK    3  A    between atoms: O_3  and  C_4
REMARK    4  A    between atoms: C_7  and  N_8
REMARK    5  A    between atoms: C_9  and  C_11
REMARK    6  A    between atoms: C_11  and  C_12
REMARK    7  A    between atoms: C_13  and  O_14
REMARK    8  A    between atoms: O_14  and  C_15
REMARK    9  A    between atoms: C_15  and  C_16
REMARK                            x       y       z     vdW  Elec       q    Type
REMARK                         _______ _______ _______ _____ _____    ______ ____
ROOT
ATOM      1  C   UNL     1       7.024   6.519  17.062  0.00  0.00    +0.000 A 
ATOM      2  N   UNL     1       6.626   6.238  18.301  0.00  0.00    +0.000 NA
ATOM      3  C   UNL     1       5.767   5.206  18.428  0.00  0.00    +0.000 A 
ATOM      4  C   UNL     1       5.308   4.431  17.381  0.00  0.00    +0.000 A 
ATOM      5  C   UNL     1       5.792   4.833  16.134  0.00  0.00    +0.000 A 
ATOM      6  N   UNL     1       6.643   5.866  15.957  0.00  0.00    +0.000 NA
ENDROOT
BRANCH   4   7
ATOM      7  N   UNL     1       4.422   3.327  17.531  0.00  0.00    +0.000 N 
ATOM      8  C   UNL     1       3.042   3.423  17.629  0.00  0.00    +0.000 C 
ATOM      9  O   UNL     1       2.400   4.468  17.581  0.00  0.00    +0.000 OA
ATOM     10  H   UNL     1       4.860   2.410  17.562  0.00  0.00    +0.000 HD
BRANCH   8  11
ATOM     11  C   UNL     1       2.345   2.085  17.800  0.00  0.00    +0.000 C 
ATOM     12  C   UNL     1       1.189   2.185  18.790  0.00  0.00    +0.000 C 
ENDBRANCH   8  11
ENDBRANCH   4   7
BRANCH   1  13
ATOM     13  O   UNL     1       7.967   7.513  16.977  0.00  0.00    +0.000 OA
BRANCH  13  15
ATOM     14  C   UNL     1       8.403   9.577  18.053  0.00  0.00    +0.000 C 
ATOM     15  C   UNL     1       8.292   8.075  18.243  0.00  0.00    +0.000 C 
ENDBRANCH  13  15
ENDBRANCH   1  13
BRANCH   5  16
ATOM     16  O   UNL     1       5.412   4.113  15.004  0.00  0.00    +0.000 OA
BRANCH  16  17
ATOM     17  C   UNL     1       6.439   4.123  13.996  0.00  0.00    +0.000 C 
ATOM     18  C   UNL     1       5.921   3.539  12.694  0.00  0.00    +0.000 C 
ENDBRANCH  16  17
ENDBRANCH   5  16
TORSDOF 6
ENDMDL
MODEL 4
REMARK VINA RESULT:      -5.9      2.103      5.923
REMARK  Name = 
REMARK  9 active torsions:
REMARK  status: ('A' for Active; 'I' for Inactive)
REMARK    1  A    between atoms: C_1  and  C_2
REMARK    2  A    between atoms: C_2  and  O_3
REMARK    3  A    between atoms: O_3  and  C_4
REMARK    4  A    between atoms: C_7  and  N_8
REMARK    5  A    between atoms: C_9  and  C_11
REMARK    6  A    between atoms: C_11  and  C_12
REMARK    7  A    between atoms: C_13  and  O_14
REMARK    8  A    between atoms: O_14  and  C_15
REMARK    9  A    between atoms: C_15  and  C_16
REMARK                            x       y       z     vdW  Elec       q    Type
REMARK                         _______ _______ _______ _____ _____    ______ ____
ROOT
ATOM      1  C   UNL     1       5.236   5.341  16.033  0.00  0.00    +0.000 A 
ATOM      2  N   UNL     1       5.159   4.037  16.292  0.00  0.00    +0.000 NA
ATOM      3  C   UNL     1       4.385   3.684  17.339  0.00  0.00    +0.000 A 
ATOM      4  C   UNL     1       3.668   4.570  18.120  0.00  0.00    +0.000 A 
ATOM      5  C   UNL     1       3.839   5.905  17.752  0.00  0.00    +0.000 A 
ATOM      6  N   UNL     1       4.613   6.306  16.720  0.00  0.00    +0.000 NA
ENDROOT
BRANCH   4   7
ATOM      7  N   UNL     1       2.832   4.183  19.206  0.00  0.00    +0.000 N 
ATOM      8  C   UNL     1       1.572   3.617  19.075  0.00  0.00    +0.000 C 
ATOM      9  O   UNL     1       1.019   3.358  18.011  0.00  0.00    +0.000 OA
ATOM     10  H   UNL     1       3.212   4.340  20.134  0.00  0.00    +0.000 HD
BRANCH   8  11
ATOM     11  C   UNL     1       0.894   3.320  20.401  0.00  0.00    +0.000 C 
ATOM     12  C   UNL     1       1.917   3.017  21.491  0.00  0.00    +0.000 C 
ENDBRANCH   8  11
ENDBRANCH   4   7
BRANCH   1  13
ATOM     13  O   UNL     1       5.955   5.659  14.909  0.00  0.00    +0.000 OA
BRANCH  13  15
ATOM     14  C   UNL     1       6.531   4.127  13.196  0.00  0.00    +0.000 C 
ATOM     15  C   UNL     1       6.911   4.662  14.565  0.00  0.00    +0.000 C 
ENDBRANCH  13  15
ENDBRANCH   1  13
BRANCH   5  16
ATOM     16  O   UNL     1       3.150   6.888  18.458  0.00  0.00    +0.000 OA
BRANCH  16  17
ATOM     17  C   UNL     1       3.028   8.104  17.696  0.00  0.00    +0.000 C 
ATOM     18  C   UNL     1       1.673   8.749  17.926  0.00  0.00    +0.000 C 
ENDBRANCH  16  17
ENDBRANCH   5  16
TORSDOF 6
ENDMDL
MODEL 5
REMARK VINA RESULT:      -5.9      1.632      3.328
REMARK  Name = 
REMARK  9 active torsions:
REMARK  status: ('A' for Active; 'I' for Inactive)
REMARK    1  A    between atoms: C_1  and  C_2
REMARK    2  A    between atoms: C_2  and  O_3
REMARK    3  A    between atoms: O_3  and  C_4
REMARK    4  A    between atoms: C_7  and  N_8
REMARK    5  A    between atoms: C_9  and  C_11
REMARK    6  A    between atoms: C_11  and  C_12
REMARK    7  A    between atoms: C_13  and  O_14
REMARK    8  A    between atoms: O_14  and  C_15
REMARK    9  A    between atoms: C_15  and  C_16
REMARK                            x       y       z     vdW  Elec       q    Type
REMARK                         _______ _______ _______ _____ _____    ______ ____
ROOT
ATOM      1  C   UNL     1       2.193   4.116  17.964  0.00  0.00    +0.000 A 
ATOM      2  N   UNL     1       2.265   5.228  18.692  0.00  0.00    +0.000 NA
ATOM      3  C   UNL     1       3.451   5.872  18.675  0.00  0.00    +0.000 A 
ATOM      4  C   UNL     1       4.554   5.469  17.948  0.00  0.00    +0.000 A 
ATOM      5  C   UNL     1       4.352   4.286  17.234  0.00  0.00    +0.000 A 
ATOM      6  N   UNL     1       3.188   3.601  17.231  0.00  0.00    +0.000 NA
ENDROOT
BRANCH   4   7
ATOM      7  N   UNL     1       5.792   6.172  17.916  0.00  0.00    +0.000 N 
ATOM      8  C   UNL     1       6.844   5.967  18.797  0.00  0.00    +0.000 C 
ATOM      9  O   UNL     1       6.857   5.144  19.706  0.00  0.00    +0.000 OA
ATOM     10  H   UNL     1       5.887   6.867  17.182  0.00  0.00    +0.000 HD
BRANCH   8  11
ATOM     11  C   UNL     1       8.039   6.870  18.543  0.00  0.00    +0.000 C 
ATOM     12  C   UNL     1       7.715   7.939  17.505  0.00  0.00    +0.000 C 
ENDBRANCH   8  11
ENDBRANCH   4   7
BRANCH   1  13
ATOM     13  O   UNL     1       0.949   3.537  17.928  0.00  0.00    +0.000 OA
BRANCH  13  15
ATOM     14  C   UNL     1       1.131   2.609  20.099  0.00  0.00    +0.000 C 
ATOM     15  C   UNL     1       0.895   2.301  18.632  0.00  0.00    +0.000 C 
ENDBRANCH  13  15
ENDBRANCH   1  13
BRANCH   5  16
ATOM     16  O   UNL     1       5.390   3.792  16.448  0.00  0.00    +0.000 OA
BRANCH  16  17
ATOM     17  C   UNL     1       5.319   4.289  15.099  0.00  0.00    +0.000 C 
ATOM     18  C   UNL     1       6.697   4.314  14.462  0.00  0.00    +0.000 C 
ENDBRANCH  16  17
ENDBRANCH   5  16
TORSDOF 6
ENDMDL
MODEL 6
REMARK VINA RESULT:      -5.8      1.841      3.568
REMARK  Name = 
REMARK  9 active torsions:
REMARK  status: ('A' for Active; 'I' for Inactive)
REMARK    1  A    between atoms: C_1  and  C_2
REMARK    2  A    between atoms: C_2  and  O_3
REMARK    3  A    between atoms: O_3  and  C_4
REMARK    4  A    between atoms: C_7  and  N_8
REMARK    5  A    between atoms: C_9  and  C_11
REMARK    6  A    between atoms: C_11  and  C_12
REMARK    7  A    between atoms: C_13  and  O_14
REMARK    8  A    between atoms: O_14  and  C_15
REMARK    9  A    between atoms: C_15  and  C_16
REMARK                            x       y       z     vdW  Elec       q    Type
REMARK                         _______ _______ _______ _____ _____    ______ ____
ROOT
ATOM      1  C   UNL     1       3.762   2.967  18.625  0.00  0.00    +0.000 A 
ATOM      2  N   UNL     1       4.089   3.792  19.618  0.00  0.00    +0.000 NA
ATOM      3  C   UNL     1       4.762   4.906  19.265  0.00  0.00    +0.000 A 
ATOM      4  C   UNL     1       5.101   5.244  17.970  0.00  0.00    +0.000 A 
ATOM      5  C   UNL     1       4.709   4.294  17.024  0.00  0.00    +0.000 A 
ATOM      6  N   UNL     1       4.044   3.159  17.331  0.00  0.00    +0.000 NA
ENDROOT
BRANCH   4   7
ATOM      7  N   UNL     1       5.787   6.437  17.607  0.00  0.00    +0.000 N 
ATOM      8  C   UNL     1       7.127   6.690  17.859  0.00  0.00    +0.000 C 
ATOM      9  O   UNL     1       7.903   5.916  18.411  0.00  0.00    +0.000 OA
ATOM     10  H   UNL     1       5.231   7.137  17.124  0.00  0.00    +0.000 HD
BRANCH   8  11
ATOM     11  C   UNL     1       7.594   8.053  17.378  0.00  0.00    +0.000 C 
ATOM     12  C   UNL     1       8.478   8.735  18.418  0.00  0.00    +0.000 C 
ENDBRANCH   8  11
ENDBRANCH   4   7
BRANCH   1  13
ATOM     13  O   UNL     1       3.000   1.891  19.005  0.00  0.00    +0.000 OA
BRANCH  13  15
ATOM     14  C   UNL     1       0.719   2.485  18.775  0.00  0.00    +0.000 C 
ATOM     15  C   UNL     1       1.853   2.265  19.760  0.00  0.00    +0.000 C 
ENDBRANCH  13  15
ENDBRANCH   1  13
BRANCH   5  16
ATOM     16  O   UNL     1       4.980   4.536  15.679  0.00  0.00    +0.000 OA
BRANCH  16  17
ATOM     17  C   UNL     1       6.187   3.878  15.253  0.00  0.00    +0.000 C 
ATOM     18  C   UNL     1       7.037   4.809  14.408  0.00  0.00    +0.000 C 
ENDBRANCH  16  17
ENDBRANCH   5  16
TORSDOF 6
ENDMDL
MODEL 7
REMARK VINA RESULT:      -5.8      2.632      5.731
REMARK  Name = 
REMARK  9 active torsions:
REMARK  status: ('A' for Active; 'I' for Inactive)
REMARK    1  A    between atoms: C_1  and  C_2
REMARK    2  A    between atoms: C_2  and  O_3
REMARK    3  A    between atoms: O_3  and  C_4
REMARK    4  A    between atoms: C_7  and  N_8
REMARK    5  A    between atoms: C_9  and  C_11
REMARK    6  A    between atoms: C_11  and  C_12
REMARK    7  A    between atoms: C_13  and  O_14
REMARK    8  A    between atoms: O_14  and  C_15
REMARK    9  A    between atoms: C_15  and  C_16
REMARK                            x       y       z     vdW  Elec       q    Type
REMARK                         _______ _______ _______ _____ _____    ______ ____
ROOT
ATOM      1  C   UNL     1       7.006   6.813  17.275  0.00  0.00    +0.000 A 
ATOM      2  N   UNL     1       7.620   5.634  17.332  0.00  0.00    +0.000 NA
ATOM      3  C   UNL     1       6.820   4.551  17.419  0.00  0.00    +0.000 A 
ATOM      4  C   UNL     1       5.439   4.593  17.427  0.00  0.00    +0.000 A 
ATOM      5  C   UNL     1       4.919   5.887  17.370  0.00  0.00    +0.000 A 
ATOM      6  N   UNL     1       5.680   7.000  17.295  0.00  0.00    +0.000 NA
ENDROOT
BRANCH   4   7
ATOM      7  N   UNL     1       4.604   3.442  17.491  0.00  0.00    +0.000 N 
ATOM      8  C   UNL     1       4.067   2.914  18.656  0.00  0.00    +0.000 C 
ATOM      9  O   UNL     1       4.224   3.377  19.781  0.00  0.00    +0.000 OA
ATOM     10  H   UNL     1       4.399   2.995  16.602  0.00  0.00    +0.000 HD
BRANCH   8  11
ATOM     11  C   UNL     1       3.226   1.669  18.433  0.00  0.00    +0.000 C 
ATOM     12  C   UNL     1       1.752   1.939  18.714  0.00  0.00    +0.000 C 
ENDBRANCH   8  11
ENDBRANCH   4   7
BRANCH   1  13
ATOM     13  O   UNL     1       7.844   7.885  17.095  0.00  0.00    +0.000 OA
BRANCH  13  15
ATOM     14  C   UNL     1       8.582   9.876  18.142  0.00  0.00    +0.000 C 
ATOM     15  C   UNL     1       8.374   8.383  18.317  0.00  0.00    +0.000 C 
ENDBRANCH  13  15
ENDBRANCH   1  13
BRANCH   5  16
ATOM     16  O   UNL     1       3.536   6.053  17.352  0.00  0.00    +0.000 OA
BRANCH  16  17
ATOM     17  C   UNL     1       3.076   6.812  18.486  0.00  0.00    +0.000 C 
ATOM     18  C   UNL     1       2.292   8.031  18.035  0.00  0.00    +0.000 C 
ENDBRANCH  16  17
ENDBRANCH   5  16
TORSDOF 6
ENDMDL
MODEL 8
REMARK VINA RESULT:      -5.7      2.479      5.774
REMARK  Name = 
REMARK  9 active torsions:
REMARK  status: ('A' for Active; 'I' for Inactive)
REMARK    1  A    between atoms: C_1  and  C_2
REMARK    2  A    between atoms: C_2  and  O_3
REMARK    3  A    between atoms: O_3  and  C_4
REMARK    4  A    between atoms: C_7  and  N_8
REMARK    5  A    between atoms: C_9  and  C_11
REMARK    6  A    between atoms: C_11  and  C_12
REMARK    7  A    between atoms: C_13  and  O_14
REMARK    8  A    between atoms: O_14  and  C_15
REMARK    9  A    between atoms: C_15  and  C_16
REMARK                            x       y       z     vdW  Elec       q    Type
REMARK                         _______ _______ _______ _____ _____    ______ ____
ROOT
ATOM      1  C   UNL     1       5.871   6.536  17.434  0.00  0.00    +0.000 A 
ATOM      2  N   UNL     1       6.209   5.309  17.826  0.00  0.00    +0.000 NA
ATOM      3  C   UNL     1       5.208   4.546  18.313  0.00  0.00    +0.000 A 
ATOM      4  C   UNL     1       3.888   4.943  18.402  0.00  0.00    +0.000 A 
ATOM      5  C   UNL     1       3.667   6.251  17.966  0.00  0.00    +0.000 A 
ATOM      6  N   UNL     1       4.638   7.055  17.483  0.00  0.00    +0.000 NA
ENDROOT
BRANCH   4   7
ATOM      7  N   UNL     1       2.836   4.119  18.892  0.00  0.00    +0.000 N 
ATOM      8  C   UNL     1       2.029   3.310  18.105  0.00  0.00    +0.000 C 
ATOM      9  O   UNL     1       2.125   3.183  16.889  0.00  0.00    +0.000 OA
ATOM     10  H   UNL     1       2.689   4.140  19.897  0.00  0.00    +0.000 HD
BRANCH   8  11
ATOM     11  C   UNL     1       0.973   2.551  18.889  0.00  0.00    +0.000 C 
ATOM     12  C   UNL     1       0.832   3.100  20.305  0.00  0.00    +0.000 C 
ENDBRANCH   8  11
ENDBRANCH   4   7
BRANCH   1  13
ATOM     13  O   UNL     1       6.891   7.252  16.859  0.00  0.00    +0.000 OA
BRANCH  13  15
ATOM     14  C   UNL     1       8.005   9.104  17.828  0.00  0.00    +0.000 C 
ATOM     15  C   UNL     1       7.918   7.589  17.785  0.00  0.00    +0.000 C 
ENDBRANCH  13  15
ENDBRANCH   1  13
BRANCH   5  16
ATOM     16  O   UNL     1       2.369   6.755  17.992  0.00  0.00    +0.000 OA
BRANCH  16  17
ATOM     17  C   UNL     1       2.246   7.862  18.903  0.00  0.00    +0.000 C 
ATOM     18  C   UNL     1       1.875   7.376  20.293  0.00  0.00    +0.000 C 
ENDBRANCH  16  17
ENDBRANCH   5  16
TORSDOF 6
ENDMDL
MODEL 9
REMARK VINA RESULT:      -5.6      1.865      2.450
REMARK  Name = 
REMARK  9 active torsions:
REMARK  status: ('A' for Active; 'I' for Inactive)
REMARK    1  A    between atoms: C_1  and  C_2
REMARK    2  A    between atoms: C_2  and  O_3
REMARK    3  A    between atoms: O_3  and  C_4
REMARK    4  A    between atoms: C_7  and  N_8
REMARK    5  A    between atoms: C_9  and  C_11
REMARK    6  A    between atoms: C_11  and  C_12
REMARK    7  A    between atoms: C_13  and  O_14
REMARK    8  A    between atoms: O_14  and  C_15
REMARK    9  A    between atoms: C_15  and  C_16
REMARK                            x       y       z     vdW  Elec       q    Type
REMARK                         _______ _______ _______ _____ _____    ______ ____
ROOT
ATOM      1  C   UNL     1       1.704   3.808  18.971  0.00  0.00    +0.000 A 
ATOM      2  N   UNL     1       2.239   2.758  18.352  0.00  0.00    +0.000 NA
ATOM      3  C   UNL     1       3.212   3.029  17.458  0.00  0.00    +0.000 A 
ATOM      4  C   UNL     1       3.689   4.293  17.174  0.00  0.00    +0.000 A 
ATOM      5  C   UNL     1       3.041   5.307  17.882  0.00  0.00    +0.000 A 
ATOM      6  N   UNL     1       2.055   5.085  18.778  0.00  0.00    +0.000 NA
ENDROOT
BRANCH   4   7
ATOM      7  N   UNL     1       4.736   4.565  16.248  0.00  0.00    +0.000 N 
ATOM      8  C   UNL     1       6.088   4.570  16.557  0.00  0.00    +0.000 C 
ATOM      9  O   UNL     1       6.563   4.324  17.662  0.00  0.00    +0.000 OA
ATOM     10  H   UNL     1       4.443   4.763  15.295  0.00  0.00    +0.000 HD
BRANCH   8  11
ATOM     11  C   UNL     1       6.985   4.909  15.380  0.00  0.00    +0.000 C 
ATOM     12  C   UNL     1       6.470   4.276  14.091  0.00  0.00    +0.000 C 
ENDBRANCH   8  11
ENDBRANCH   4   7
BRANCH   1  13
ATOM     13  O   UNL     1       0.784   3.492  19.939  0.00  0.00    +0.000 OA
BRANCH  13  15
ATOM     14  C   UNL     1       2.202   3.396  21.834  0.00  0.00    +0.000 C 
ATOM     15  C   UNL     1       1.297   2.594  20.917  0.00  0.00    +0.000 C 
ENDBRANCH  13  15
ENDBRANCH   1  13
BRANCH   5  16
ATOM     16  O   UNL     1       3.451   6.625  17.692  0.00  0.00    +0.000 OA
BRANCH  16  17
ATOM     17  C   UNL     1       2.721   7.536  18.533  0.00  0.00    +0.000 C 
ATOM     18  C   UNL     1       2.124   8.665  17.713  0.00  0.00    +0.000 C 
ENDBRANCH  16  17
ENDBRANCH   5  16
TORSDOF 6
ENDMDL
