MODEL 1
REMARK VINA RESULT:      -7.5      0.000      0.000
REMARK  Name = 
REMARK  6 active torsions:
REMARK  status: ('A' for Active; 'I' for Inactive)
REMARK    1  A    between atoms: C_1  and  C_2
REMARK    2  A    between atoms: C_2  and  C_3
REMARK    3  A    between atoms: C_3  and  C_4
REMARK    4  A    between atoms: C_4  and  N_5
REMARK    5  A    between atoms: C_19  and  C_20
REMARK    6  A    between atoms: C_19  and  C_21
REMARK                            x       y       z     vdW  Elec       q    Type
REMARK                         _______ _______ _______ _____ _____    ______ ____
ROOT
ATOM      1  N   UNL     1       1.475   7.717  20.146  0.00  0.00    +0.000 N 
ATOM      2  C   UNL     1       1.578   8.838  19.368  0.00  0.00    +0.000 A 
ATOM      3  N   UNL     1       2.391   8.656  18.356  0.00  0.00    +0.000 NA
ATOM      4  C   UNL     1       2.908   7.391  18.519  0.00  0.00    +0.000 A 
ATOM      5  C   UNL     1       3.901   6.739  17.754  0.00  0.00    +0.000 A 
ATOM      6  C   UNL     1       4.317   5.529  18.274  0.00  0.00    +0.000 A 
ATOM      7  C   UNL     1       3.671   4.811  19.282  0.00  0.00    +0.000 A 
ATOM      8  C   UNL     1       4.034   3.465  19.506  0.00  0.00    +0.000 A 
ATOM      9  C   UNL     1       3.455   2.721  20.518  0.00  0.00    +0.000 A 
ATOM     10  C   UNL     1       2.538   3.337  21.349  0.00  0.00    +0.000 A 
ATOM     11  C   UNL     1       2.146   4.667  21.123  0.00  0.00    +0.000 A 
ATOM     12  C   UNL     1       2.679   5.422  20.037  0.00  0.00    +0.000 A 
ATOM     13  C   UNL     1       2.335   6.763  19.645  0.00  0.00    +0.000 A 
ATOM     14  O   UNL     1       5.506   4.991  17.892  0.00  0.00    +0.000 OA
ATOM     15  C   UNL     1       5.660   4.842  16.491  0.00  0.00    +0.000 C 
ATOM     16  C   UNL     1       7.068   4.209  16.450  0.00  0.00    +0.000 C 
ATOM     17  C   UNL     1       4.648   3.819  15.931  0.00  0.00    +0.000 C 
ATOM     18  C   UNL     1       5.549   6.223  15.812  0.00  0.00    +0.000 C 
ATOM     19  C   UNL     1       4.577   7.236  16.500  0.00  0.00    +0.000 C 
ENDROOT
BRANCH   1  20
ATOM     20  C   UNL     1       0.607   7.607  21.304  0.00  0.00    +0.000 C 
BRANCH  20  21
ATOM     21  C   UNL     1      -0.257   8.852  21.507  0.00  0.00    +0.000 C 
BRANCH  21  23
ATOM     22  C   UNL     1      -1.035  10.612  23.132  0.00  0.00    +0.000 C 
ATOM     23  C   UNL     1      -0.071   9.457  22.899  0.00  0.00    +0.000 C 
ENDBRANCH  21  23
ENDBRANCH  20  21
ENDBRANCH   1  20
TORSDOF 3
ENDMDL
MODEL 2
REMARK VINA RESULT:      -7.5      3.085      6.102
REMARK  Name = 
REMARK  6 active torsions:
REMARK  status: ('A' for Active; 'I' for Inactive)
REMARK    1  A    between atoms: C_1  and  C_2
REMARK    2  A    between atoms: C_2  and  C_3
REMARK    3  A    between atoms: C_3  and  C_4
REMARK    4  A    between atoms: C_4  and  N_5
REMARK    5  A    between atoms: C_19  and  C_20
REMARK    6  A    between atoms: C_19  and  C_21
REMARK                            x       y       z     vdW  Elec       q    Type
REMARK                         _______ _______ _______ _____ _____    ______ ____
ROOT
ATOM      1  N   UNL     1       6.876   6.344  17.755  0.00  0.00    +0.000 N 
ATOM      2  C   UNL     1       7.693   5.282  18.033  0.00  0.00    +0.000 A 
ATOM      3  N   UNL     1       7.018   4.250  18.479  0.00  0.00    +0.000 NA
ATOM      4  C   UNL     1       5.713   4.677  18.575  0.00  0.00    +0.000 A 
ATOM      5  C   UNL     1       4.595   3.982  19.089  0.00  0.00    +0.000 A 
ATOM      6  C   UNL     1       3.449   4.746  19.196  0.00  0.00    +0.000 A 
ATOM      7  C   UNL     1       3.247   5.996  18.607  0.00  0.00    +0.000 A 
ATOM      8  C   UNL     1       1.939   6.525  18.551  0.00  0.00    +0.000 A 
ATOM      9  C   UNL     1       1.689   7.775  18.017  0.00  0.00    +0.000 A 
ATOM     10  C   UNL     1       2.760   8.531  17.575  0.00  0.00    +0.000 A 
ATOM     11  C   UNL     1       4.064   8.009  17.600  0.00  0.00    +0.000 A 
ATOM     12  C   UNL     1       4.326   6.692  18.078  0.00  0.00    +0.000 A 
ATOM     13  C   UNL     1       5.588   6.003  18.110  0.00  0.00    +0.000 A 
ATOM     14  O   UNL     1       2.438   4.357  20.017  0.00  0.00    +0.000 OA
ATOM     15  C   UNL     1       1.962   3.043  19.779  0.00  0.00    +0.000 C 
ATOM     16  C   UNL     1       0.851   2.971  20.849  0.00  0.00    +0.000 C 
ATOM     17  C   UNL     1       1.304   2.939  18.385  0.00  0.00    +0.000 C 
ATOM     18  C   UNL     1       3.114   2.036  19.969  0.00  0.00    +0.000 C 
ATOM     19  C   UNL     1       4.536   2.554  19.575  0.00  0.00    +0.000 C 
ENDROOT
BRANCH   1  20
ATOM     20  C   UNL     1       7.338   7.602  17.198  0.00  0.00    +0.000 C 
BRANCH  20  21
ATOM     21  C   UNL     1       8.299   8.338  18.133  0.00  0.00    +0.000 C 
BRANCH  21  23
ATOM     22  C   UNL     1       9.274  10.561  18.803  0.00  0.00    +0.000 C 
ATOM     23  C   UNL     1       8.250   9.852  17.927  0.00  0.00    +0.000 C 
ENDBRANCH  21  23
ENDBRANCH  20  21
ENDBRANCH   1  20
TORSDOF 3
ENDMDL
MODEL 3
REMARK VINA RESULT:      -6.7      5.620     10.233
REMARK  Name = 
REMARK  6 active torsions:
REMARK  status: ('A' for Active; 'I' for Inactive)
REMARK    1  A    between atoms: C_1  and  C_2
REMARK    2  A    between atoms: C_2  and  C_3
REMARK    3  A    between atoms: C_3  and  C_4
REMARK    4  A    between atoms: C_4  and  N_5
REMARK    5  A    between atoms: C_19  and  C_20
REMARK    6  A    between atoms: C_19  and  C_21
REMARK                            x       y       z     vdW  Elec       q    Type
REMARK                         _______ _______ _______ _____ _____    ______ ____
ROOT
ATOM      1  N   UNL     1      -0.344  11.737  19.945  0.00  0.00    +0.000 N 
ATOM      2  C   UNL     1      -0.252  12.209  21.226  0.00  0.00    +0.000 A 
ATOM      3  N   UNL     1      -1.430  12.497  21.726  0.00  0.00    +0.000 NA
ATOM      4  C   UNL     1      -2.327  12.282  20.704  0.00  0.00    +0.000 A 
ATOM      5  C   UNL     1      -3.718  12.530  20.687  0.00  0.00    +0.000 A 
ATOM      6  C   UNL     1      -4.312  12.360  19.452  0.00  0.00    +0.000 A 
ATOM      7  C   UNL     1      -3.732  11.727  18.351  0.00  0.00    +0.000 A 
ATOM      8  C   UNL     1      -4.549  11.362  17.258  0.00  0.00    +0.000 A 
ATOM      9  C   UNL     1      -4.019  10.771  16.127  0.00  0.00    +0.000 A 
ATOM     10  C   UNL     1      -2.651  10.582  16.059  0.00  0.00    +0.000 A 
ATOM     11  C   UNL     1      -1.827  10.915  17.147  0.00  0.00    +0.000 A 
ATOM     12  C   UNL     1      -2.370  11.455  18.349  0.00  0.00    +0.000 A 
ATOM     13  C   UNL     1      -1.667  11.787  19.560  0.00  0.00    +0.000 A 
ATOM     14  O   UNL     1      -5.518  12.927  19.185  0.00  0.00    +0.000 OA
ATOM     15  C   UNL     1      -6.538  12.599  20.113  0.00  0.00    +0.000 C 
ATOM     16  C   UNL     1      -7.715  13.383  19.492  0.00  0.00    +0.000 C 
ATOM     17  C   UNL     1      -6.872  11.092  20.055  0.00  0.00    +0.000 C 
ATOM     18  C   UNL     1      -6.120  13.063  21.523  0.00  0.00    +0.000 C 
ATOM     19  C   UNL     1      -4.588  13.004  21.826  0.00  0.00    +0.000 C 
ENDROOT
BRANCH   1  20
ATOM     20  C   UNL     1       0.791  11.289  19.159  0.00  0.00    +0.000 C 
BRANCH  20  21
ATOM     21  C   UNL     1       0.969   9.770  19.204  0.00  0.00    +0.000 C 
BRANCH  21  23
ATOM     22  C   UNL     1       2.506   8.204  17.969  0.00  0.00    +0.000 C 
ATOM     23  C   UNL     1       1.362   9.201  17.841  0.00  0.00    +0.000 C 
ENDBRANCH  21  23
ENDBRANCH  20  21
ENDBRANCH   1  20
TORSDOF 3
ENDMDL
MODEL 4
REMARK VINA RESULT:      -6.5      1.612      4.156
REMARK  Name = 
REMARK  6 active torsions:
REMARK  status: ('A' for Active; 'I' for Inactive)
REMARK    1  A    between atoms: C_1  and  C_2
REMARK    2  A    between atoms: C_2  and  C_3
REMARK    3  A    between atoms: C_3  and  C_4
REMARK    4  A    between atoms: C_4  and  N_5
REMARK    5  A    between atoms: C_19  and  C_20
REMARK    6  A    between atoms: C_19  and  C_21
REMARK                            x       y       z     vdW  Elec       q    Type
REMARK                         _______ _______ _______ _____ _____    ______ ____
ROOT
ATOM      1  N   UNL     1       1.767   8.533  19.574  0.00  0.00    +0.000 N 
ATOM      2  C   UNL     1       1.003   8.335  20.692  0.00  0.00    +0.000 A 
ATOM      3  N   UNL     1       1.083   7.100  21.125  0.00  0.00    +0.000 NA
ATOM      4  C   UNL     1       1.868   6.437  20.209  0.00  0.00    +0.000 A 
ATOM      5  C   UNL     1       2.191   5.063  20.158  0.00  0.00    +0.000 A 
ATOM      6  C   UNL     1       2.871   4.680  19.018  0.00  0.00    +0.000 A 
ATOM      7  C   UNL     1       3.475   5.544  18.103  0.00  0.00    +0.000 A 
ATOM      8  C   UNL     1       4.380   5.017  17.155  0.00  0.00    +0.000 A 
ATOM      9  C   UNL     1       4.974   5.821  16.200  0.00  0.00    +0.000 A 
ATOM     10  C   UNL     1       4.628   7.159  16.155  0.00  0.00    +0.000 A 
ATOM     11  C   UNL     1       3.749   7.704  17.107  0.00  0.00    +0.000 A 
ATOM     12  C   UNL     1       3.189   6.902  18.143  0.00  0.00    +0.000 A 
ATOM     13  C   UNL     1       2.329   7.326  19.215  0.00  0.00    +0.000 A 
ATOM     14  O   UNL     1       2.898   3.374  18.640  0.00  0.00    +0.000 OA
ATOM     15  C   UNL     1       3.362   2.484  19.641  0.00  0.00    +0.000 C 
ATOM     16  C   UNL     1       3.271   1.151  18.866  0.00  0.00    +0.000 C 
ATOM     17  C   UNL     1       4.845   2.754  19.974  0.00  0.00    +0.000 C 
ATOM     18  C   UNL     1       2.446   2.579  20.879  0.00  0.00    +0.000 C 
ATOM     19  C   UNL     1       1.831   3.989  21.156  0.00  0.00    +0.000 C 
ENDROOT
BRANCH   1  20
ATOM     20  C   UNL     1       1.916   9.813  18.905  0.00  0.00    +0.000 C 
BRANCH  20  21
ATOM     21  C   UNL     1       0.604  10.598  18.849  0.00  0.00    +0.000 C 
BRANCH  21  23
ATOM     22  C   UNL     1      -1.790  10.536  18.070  0.00  0.00    +0.000 C 
ATOM     23  C   UNL     1      -0.385   9.989  17.856  0.00  0.00    +0.000 C 
ENDBRANCH  21  23
ENDBRANCH  20  21
ENDBRANCH   1  20
TORSDOF 3
ENDMDL
MODEL 5
REMARK VINA RESULT:      -6.5      1.825      5.856
REMARK  Name = 
REMARK  6 active torsions:
REMARK  status: ('A' for Active; 'I' for Inactive)
REMARK    1  A    between atoms: C_1  and  C_2
REMARK    2  A    between atoms: C_2  and  C_3
REMARK    3  A    between atoms: C_3  and  C_4
REMARK    4  A    between atoms: C_4  and  N_5
REMARK    5  A    between atoms: C_19  and  C_20
REMARK    6  A    between atoms: C_19  and  C_21
REMARK                            x       y       z     vdW  Elec       q    Type
REMARK                         _______ _______ _______ _____ _____    ______ ____
ROOT
ATOM      1  N   UNL     1       4.746   5.565  16.900  0.00  0.00    +0.000 N 
ATOM      2  C   UNL     1       4.797   6.688  16.121  0.00  0.00    +0.000 A 
ATOM      3  N   UNL     1       4.094   7.669  16.634  0.00  0.00    +0.000 NA
ATOM      4  C   UNL     1       3.490   7.145  17.754  0.00  0.00    +0.000 A 
ATOM      5  C   UNL     1       2.553   7.757  18.617  0.00  0.00    +0.000 A 
ATOM      6  C   UNL     1       2.011   6.908  19.563  0.00  0.00    +0.000 A 
ATOM      7  C   UNL     1       2.497   5.641  19.892  0.00  0.00    +0.000 A 
ATOM      8  C   UNL     1       2.033   5.012  21.068  0.00  0.00    +0.000 A 
ATOM      9  C   UNL     1       2.450   3.742  21.419  0.00  0.00    +0.000 A 
ATOM     10  C   UNL     1       3.302   3.066  20.566  0.00  0.00    +0.000 A 
ATOM     11  C   UNL     1       3.793   3.687  19.404  0.00  0.00    +0.000 A 
ATOM     12  C   UNL     1       3.431   5.025  19.070  0.00  0.00    +0.000 A 
ATOM     13  C   UNL     1       3.895   5.809  17.957  0.00  0.00    +0.000 A 
ATOM     14  O   UNL     1       0.844   7.226  20.183  0.00  0.00    +0.000 OA
ATOM     15  C   UNL     1       0.841   8.497  20.810  0.00  0.00    +0.000 C 
ATOM     16  C   UNL     1      -0.588   8.494  21.397  0.00  0.00    +0.000 C 
ATOM     17  C   UNL     1       1.848   8.537  21.980  0.00  0.00    +0.000 C 
ATOM     18  C   UNL     1       1.108   9.592  19.756  0.00  0.00    +0.000 C 
ATOM     19  C   UNL     1       2.053   9.180  18.581  0.00  0.00    +0.000 C 
ENDROOT
BRANCH   1  20
ATOM     20  C   UNL     1       5.471   4.340  16.611  0.00  0.00    +0.000 C 
BRANCH  20  21
ATOM     21  C   UNL     1       6.987   4.527  16.685  0.00  0.00    +0.000 C 
BRANCH  21  23
ATOM     22  C   UNL     1       7.715   6.263  18.358  0.00  0.00    +0.000 C 
ATOM     23  C   UNL     1       7.462   4.781  18.116  0.00  0.00    +0.000 C 
ENDBRANCH  21  23
ENDBRANCH  20  21
ENDBRANCH   1  20
TORSDOF 3
ENDMDL
MODEL 6
REMARK VINA RESULT:      -6.5      1.717      4.265
REMARK  Name = 
REMARK  6 active torsions:
REMARK  status: ('A' for Active; 'I' for Inactive)
REMARK    1  A    between atoms: C_1  and  C_2
REMARK    2  A    between atoms: C_2  and  C_3
REMARK    3  A    between atoms: C_3  and  C_4
REMARK    4  A    between atoms: C_4  and  N_5
REMARK    5  A    between atoms: C_19  and  C_20
REMARK    6  A    between atoms: C_19  and  C_21
REMARK                            x       y       z     vdW  Elec       q    Type
REMARK                         _______ _______ _______ _____ _____    ______ ____
ROOT
ATOM      1  N   UNL     1       2.107   8.570  19.043  0.00  0.00    +0.000 N 
ATOM      2  C   UNL     1       1.291   8.526  20.140  0.00  0.00    +0.000 A 
ATOM      3  N   UNL     1       1.259   7.330  20.677  0.00  0.00    +0.000 NA
ATOM      4  C   UNL     1       2.022   6.535  19.852  0.00  0.00    +0.000 A 
ATOM      5  C   UNL     1       2.239   5.141  19.927  0.00  0.00    +0.000 A 
ATOM      6  C   UNL     1       2.927   4.613  18.852  0.00  0.00    +0.000 A 
ATOM      7  C   UNL     1       3.628   5.348  17.894  0.00  0.00    +0.000 A 
ATOM      8  C   UNL     1       4.522   4.676  17.032  0.00  0.00    +0.000 A 
ATOM      9  C   UNL     1       5.209   5.350  16.040  0.00  0.00    +0.000 A 
ATOM     10  C   UNL     1       4.970   6.701  15.870  0.00  0.00    +0.000 A 
ATOM     11  C   UNL     1       4.104   7.389  16.736  0.00  0.00    +0.000 A 
ATOM     12  C   UNL     1       3.447   6.722  17.811  0.00  0.00    +0.000 A 
ATOM     13  C   UNL     1       2.585   7.299  18.808  0.00  0.00    +0.000 A 
ATOM     14  O   UNL     1       2.866   3.281  18.585  0.00  0.00    +0.000 OA
ATOM     15  C   UNL     1       3.223   2.447  19.674  0.00  0.00    +0.000 C 
ATOM     16  C   UNL     1       3.057   1.064  19.007  0.00  0.00    +0.000 C 
ATOM     17  C   UNL     1       4.711   2.633  20.045  0.00  0.00    +0.000 C 
ATOM     18  C   UNL     1       2.275   2.715  20.860  0.00  0.00    +0.000 C 
ATOM     19  C   UNL     1       1.762   4.186  20.995  0.00  0.00    +0.000 C 
ENDROOT
BRANCH   1  20
ATOM     20  C   UNL     1       2.378   9.774  18.278  0.00  0.00    +0.000 C 
BRANCH  20  21
ATOM     21  C   UNL     1       1.351  10.877  18.541  0.00  0.00    +0.000 C 
BRANCH  21  23
ATOM     22  C   UNL     1       0.940  13.360  18.608  0.00  0.00    +0.000 C 
ATOM     23  C   UNL     1       1.995  12.263  18.566  0.00  0.00    +0.000 C 
ENDBRANCH  21  23
ENDBRANCH  20  21
ENDBRANCH   1  20
TORSDOF 3
ENDMDL
MODEL 7
REMARK VINA RESULT:      -6.4      6.508     10.140
REMARK  Name = 
REMARK  6 active torsions:
REMARK  status: ('A' for Active; 'I' for Inactive)
REMARK    1  A    between atoms: C_1  and  C_2
REMARK    2  A    between atoms: C_2  and  C_3
REMARK    3  A    between atoms: C_3  and  C_4
REMARK    4  A    between atoms: C_4  and  N_5
REMARK    5  A    between atoms: C_19  and  C_20
REMARK    6  A    between atoms: C_19  and  C_21
REMARK                            x       y       z     vdW  Elec       q    Type
REMARK                         _______ _______ _______ _____ _____    ______ ____
ROOT
ATOM      1  N   UNL     1      -0.776  12.086  20.646  0.00  0.00    +0.000 N 
ATOM      2  C   UNL     1      -0.962  12.822  21.784  0.00  0.00    +0.000 A 
ATOM      3  N   UNL     1      -2.219  13.157  21.948  0.00  0.00    +0.000 NA
ATOM      4  C   UNL     1      -2.875  12.691  20.831  0.00  0.00    +0.000 A 
ATOM      5  C   UNL     1      -4.228  12.869  20.467  0.00  0.00    +0.000 A 
ATOM      6  C   UNL     1      -4.541  12.414  19.200  0.00  0.00    +0.000 A 
ATOM      7  C   UNL     1      -3.739  11.588  18.411  0.00  0.00    +0.000 A 
ATOM      8  C   UNL     1      -4.302  10.964  17.276  0.00  0.00    +0.000 A 
ATOM      9  C   UNL     1      -3.541  10.170  16.438  0.00  0.00    +0.000 A 
ATOM     10  C   UNL     1      -2.192  10.032  16.704  0.00  0.00    +0.000 A 
ATOM     11  C   UNL     1      -1.621  10.624  17.843  0.00  0.00    +0.000 A 
ATOM     12  C   UNL     1      -2.409  11.383  18.757  0.00  0.00    +0.000 A 
ATOM     13  C   UNL     1      -1.984  11.995  19.987  0.00  0.00    +0.000 A 
ATOM     14  O   UNL     1      -5.660  12.858  18.568  0.00  0.00    +0.000 OA
ATOM     15  C   UNL     1      -6.858  12.689  19.307  0.00  0.00    +0.000 C 
ATOM     16  C   UNL     1      -7.871  13.271  18.297  0.00  0.00    +0.000 C 
ATOM     17  C   UNL     1      -7.175  11.191  19.508  0.00  0.00    +0.000 C 
ATOM     18  C   UNL     1      -6.753  13.460  20.639  0.00  0.00    +0.000 C 
ATOM     19  C   UNL     1      -5.323  13.534  21.265  0.00  0.00    +0.000 C 
ENDROOT
BRANCH   1  20
ATOM     20  C   UNL     1       0.501  11.532  20.234  0.00  0.00    +0.000 C 
BRANCH  20  21
ATOM     21  C   UNL     1       1.000  10.444  21.187  0.00  0.00    +0.000 C 
BRANCH  21  23
ATOM     22  C   UNL     1      -0.524   9.276  22.817  0.00  0.00    +0.000 C 
ATOM     23  C   UNL     1      -0.034   9.333  21.377  0.00  0.00    +0.000 C 
ENDBRANCH  21  23
ENDBRANCH  20  21
ENDBRANCH   1  20
TORSDOF 3
ENDMDL
MODEL 8
REMARK VINA RESULT:      -6.4      4.071      9.174
REMARK  Name = 
REMARK  6 active torsions:
REMARK  status: ('A' for Active; 'I' for Inactive)
REMARK    1  A    between atoms: C_1  and  C_2
REMARK    2  A    between atoms: C_2  and  C_3
REMARK    3  A    between atoms: C_3  and  C_4
REMARK    4  A    between atoms: C_4  and  N_5
REMARK    5  A    between atoms: C_19  and  C_20
REMARK    6  A    between atoms: C_19  and  C_21
REMARK                            x       y       z     vdW  Elec       q    Type
REMARK                         _______ _______ _______ _____ _____    ______ ____
ROOT
ATOM      1  N   UNL     1       0.825   9.366  20.745  0.00  0.00    +0.000 N 
ATOM      2  C   UNL     1       1.215   9.510  22.048  0.00  0.00    +0.000 A 
ATOM      3  N   UNL     1       0.452  10.359  22.695  0.00  0.00    +0.000 NA
ATOM      4  C   UNL     1      -0.427  10.853  21.758  0.00  0.00    +0.000 A 
ATOM      5  C   UNL     1      -1.400  11.866  21.912  0.00  0.00    +0.000 A 
ATOM      6  C   UNL     1      -2.014  12.249  20.735  0.00  0.00    +0.000 A 
ATOM      7  C   UNL     1      -1.954  11.558  19.523  0.00  0.00    +0.000 A 
ATOM      8  C   UNL     1      -2.859  11.896  18.494  0.00  0.00    +0.000 A 
ATOM      9  C   UNL     1      -2.815  11.272  17.261  0.00  0.00    +0.000 A 
ATOM     10  C   UNL     1      -1.828  10.332  17.031  0.00  0.00    +0.000 A 
ATOM     11  C   UNL     1      -0.936   9.965  18.053  0.00  0.00    +0.000 A 
ATOM     12  C   UNL     1      -1.018  10.546  19.352  0.00  0.00    +0.000 A 
ATOM     13  C   UNL     1      -0.222  10.232  20.508  0.00  0.00    +0.000 A 
ATOM     14  O   UNL     1      -2.656  13.445  20.653  0.00  0.00    +0.000 OA
ATOM     15  C   UNL     1      -3.646  13.648  21.647  0.00  0.00    +0.000 C 
ATOM     16  C   UNL     1      -4.147  15.049  21.233  0.00  0.00    +0.000 C 
ATOM     17  C   UNL     1      -4.809  12.646  21.481  0.00  0.00    +0.000 C 
ATOM     18  C   UNL     1      -2.994  13.578  23.044  0.00  0.00    +0.000 C 
ATOM     19  C   UNL     1      -1.787  12.594  23.176  0.00  0.00    +0.000 C 
ENDROOT
BRANCH   1  20
ATOM     20  C   UNL     1       1.451   8.454  19.804  0.00  0.00    +0.000 C 
BRANCH  20  21
ATOM     21  C   UNL     1       1.830   7.120  20.449  0.00  0.00    +0.000 C 
BRANCH  21  23
ATOM     22  C   UNL     1       2.903   6.932  18.179  0.00  0.00    +0.000 C 
ATOM     23  C   UNL     1       2.568   6.203  19.473  0.00  0.00    +0.000 C 
ENDBRANCH  21  23
ENDBRANCH  20  21
ENDBRANCH   1  20
TORSDOF 3
ENDMDL
MODEL 9
REMARK VINA RESULT:      -6.4      5.250      8.452
REMARK  Name = 
REMARK  6 active torsions:
REMARK  status: ('A' for Active; 'I' for Inactive)
REMARK    1  A    between atoms: C_1  and  C_2
REMARK    2  A    between atoms: C_2  and  C_3
REMARK    3  A    between atoms: C_3  and  C_4
REMARK    4  A    between atoms: C_4  and  N_5
REMARK    5  A    between atoms: C_19  and  C_20
REMARK    6  A    between atoms: C_19  and  C_21
REMARK                            x       y       z     vdW  Elec       q    Type
REMARK                         _______ _______ _______ _____ _____    ______ ____
ROOT
ATOM      1  N   UNL     1      -4.447  13.233  20.224  0.00  0.00    +0.000 N 
ATOM      2  C   UNL     1      -4.061  13.656  21.466  0.00  0.00    +0.000 A 
ATOM      3  N   UNL     1      -2.863  13.225  21.778  0.00  0.00    +0.000 NA
ATOM      4  C   UNL     1      -2.476  12.419  20.732  0.00  0.00    +0.000 A 
ATOM      5  C   UNL     1      -1.307  11.635  20.610  0.00  0.00    +0.000 A 
ATOM      6  C   UNL     1      -1.289  10.808  19.503  0.00  0.00    +0.000 A 
ATOM      7  C   UNL     1      -2.157  10.889  18.412  0.00  0.00    +0.000 A 
ATOM      8  C   UNL     1      -1.842  10.184  17.230  0.00  0.00    +0.000 A 
ATOM      9  C   UNL     1      -2.687  10.197  16.136  0.00  0.00    +0.000 A 
ATOM     10  C   UNL     1      -3.884  10.881  16.234  0.00  0.00    +0.000 A 
ATOM     11  C   UNL     1      -4.201  11.610  17.393  0.00  0.00    +0.000 A 
ATOM     12  C   UNL     1      -3.304  11.667  18.500  0.00  0.00    +0.000 A 
ATOM     13  C   UNL     1      -3.459  12.412  19.720  0.00  0.00    +0.000 A 
ATOM     14  O   UNL     1      -0.452   9.738  19.459  0.00  0.00    +0.000 OA
ATOM     15  C   UNL     1       0.913  10.050  19.685  0.00  0.00    +0.000 C 
ATOM     16  C   UNL     1       1.529   8.641  19.544  0.00  0.00    +0.000 C 
ATOM     17  C   UNL     1       1.469  10.941  18.553  0.00  0.00    +0.000 C 
ATOM     18  C   UNL     1       1.069  10.691  21.079  0.00  0.00    +0.000 C 
ATOM     19  C   UNL     1      -0.137  11.563  21.560  0.00  0.00    +0.000 C 
ENDROOT
BRANCH   1  20
ATOM     20  C   UNL     1      -5.702  13.599  19.592  0.00  0.00    +0.000 C 
BRANCH  20  21
ATOM     21  C   UNL     1      -6.886  12.802  20.141  0.00  0.00    +0.000 C 
BRANCH  21  23
ATOM     22  C   UNL     1      -7.033  10.308  19.827  0.00  0.00    +0.000 C 
ATOM     23  C   UNL     1      -7.299  11.669  19.200  0.00  0.00    +0.000 C 
ENDBRANCH  21  23
ENDBRANCH  20  21
ENDBRANCH   1  20
TORSDOF 3
ENDMDL
