MODEL 1
REMARK VINA RESULT:      -7.3      0.000      0.000
REMARK  Name = 
REMARK  9 active torsions:
REMARK  status: ('A' for Active; 'I' for Inactive)
REMARK    1  A    between atoms: C_1  and  C_2
REMARK    2  A    between atoms: C_2  and  C_3
REMARK    3  A    between atoms: C_2  and  O_4
REMARK    4  A    between atoms: O_4  and  C_5
REMARK    5  A    between atoms: C_8  and  C_9
REMARK    6  A    between atoms: C_9  and  C_10
REMARK    7  A    between atoms: C_13  and  S_14
REMARK    8  A    between atoms: N_15  and  C_16
REMARK    9  A    between atoms: C_16  and  C_17
REMARK                            x       y       z     vdW  Elec       q    Type
REMARK                         _______ _______ _______ _____ _____    ______ ____
ROOT
ATOM      1  C   UNL     1       3.876   6.720  17.615  0.00  0.00    +0.000 A 
ATOM      2  N   UNL     1       4.593   7.274  16.650  0.00  0.00    +0.000 NA
ATOM      3  N   UNL     1       5.883   6.849  16.765  0.00  0.00    +0.000 NA
ATOM      4  C   UNL     1       5.936   6.025  17.783  0.00  0.00    +0.000 A 
ATOM      5  N   UNL     1       4.688   5.843  18.320  0.00  0.00    +0.000 N 
ENDROOT
BRANCH   4   6
ATOM      6  S   UNL     1       7.397   5.350  18.388  0.00  0.00    +0.000 S 
ATOM      7  H   UNL     1       7.089   5.498  19.687  0.00  0.00    +0.000 HD
ENDBRANCH   4   6
BRANCH   1   8
ATOM      8  C   UNL     1       2.416   7.007  17.747  0.00  0.00    +0.000 C 
BRANCH   8  12
ATOM      9  C   UNL     1       1.128   9.933  20.691  0.00  0.00    +0.000 A 
ATOM     10  C   UNL     1       1.466   8.630  21.093  0.00  0.00    +0.000 A 
ATOM     11  C   UNL     1       1.881   7.659  20.167  0.00  0.00    +0.000 A 
ATOM     12  C   UNL     1       1.922   7.963  18.804  0.00  0.00    +0.000 A 
ATOM     13  C   UNL     1       1.609   9.271  18.410  0.00  0.00    +0.000 A 
ATOM     14  C   UNL     1       1.255  10.259  19.336  0.00  0.00    +0.000 A 
ATOM     15 CL   UNL     1       1.146  11.852  18.677  0.00  0.00    +0.000 Cl
BRANCH   9  16
ATOM     16  O   UNL     1       0.794  10.757  21.732  0.00  0.00    +0.000 OA
BRANCH  16  18
ATOM     17  C   UNL     1      -1.147  10.681  23.147  0.00  0.00    +0.000 C 
ATOM     18  C   UNL     1      -0.562  11.212  21.841  0.00  0.00    +0.000 C 
ATOM     19  C   UNL     1      -0.555  12.738  21.867  0.00  0.00    +0.000 C 
ENDBRANCH  16  18
ENDBRANCH   9  16
ENDBRANCH   8  12
ENDBRANCH   1   8
BRANCH   5  20
ATOM     20  C   UNL     1       4.380   5.071  19.509  0.00  0.00    +0.000 C 
BRANCH  20  21
ATOM     21  C   UNL     1       3.244   4.089  19.368  0.00  0.00    +0.000 A 
ATOM     22  C   UNL     1       2.167   4.137  20.270  0.00  0.00    +0.000 A 
ATOM     23  C   UNL     1       1.025   3.359  20.065  0.00  0.00    +0.000 A 
ATOM     24  C   UNL     1       0.944   2.519  18.959  0.00  0.00    +0.000 A 
ATOM     25  C   UNL     1       2.015   2.441  18.068  0.00  0.00    +0.000 A 
ATOM     26  C   UNL     1       3.159   3.219  18.270  0.00  0.00    +0.000 A 
ENDBRANCH  20  21
ENDBRANCH   5  20
TORSDOF 7
ENDMDL
MODEL 2
REMARK VINA RESULT:      -7.3      2.029      2.581
REMARK  Name = 
REMARK  9 active torsions:
REMARK  status: ('A' for Active; 'I' for Inactive)
REMARK    1  A    between atoms: C_1  and  C_2
REMARK    2  A    between atoms: C_2  and  C_3
REMARK    3  A    between atoms: C_2  and  O_4
REMARK    4  A    between atoms: O_4  and  C_5
REMARK    5  A    between atoms: C_8  and  C_9
REMARK    6  A    between atoms: C_9  and  C_10
REMARK    7  A    between atoms: C_13  and  S_14
REMARK    8  A    between atoms: N_15  and  C_16
REMARK    9  A    between atoms: C_16  and  C_17
REMARK                            x       y       z     vdW  Elec       q    Type
REMARK                         _______ _______ _______ _____ _____    ______ ____
ROOT
ATOM      1  C   UNL     1       4.308   6.050  17.787  0.00  0.00    +0.000 A 
ATOM      2  N   UNL     1       5.212   6.916  17.356  0.00  0.00    +0.000 NA
ATOM      3  N   UNL     1       5.867   6.372  16.293  0.00  0.00    +0.000 NA
ATOM      4  C   UNL     1       5.344   5.190  16.071  0.00  0.00    +0.000 A 
ATOM      5  N   UNL     1       4.305   4.956  16.934  0.00  0.00    +0.000 N 
ENDROOT
BRANCH   4   6
ATOM      6  S   UNL     1       5.954   4.079  14.909  0.00  0.00    +0.000 S 
ATOM      7  H   UNL     1       6.459   3.211  15.800  0.00  0.00    +0.000 HD
ENDBRANCH   4   6
BRANCH   1   8
ATOM      8  C   UNL     1       3.434   6.370  18.955  0.00  0.00    +0.000 C 
BRANCH   8  12
ATOM      9  C   UNL     1       0.736   9.776  19.016  0.00  0.00    +0.000 A 
ATOM     10  C   UNL     1       1.430   9.446  17.839  0.00  0.00    +0.000 A 
ATOM     11  C   UNL     1       2.312   8.356  17.787  0.00  0.00    +0.000 A 
ATOM     12  C   UNL     1       2.555   7.595  18.934  0.00  0.00    +0.000 A 
ATOM     13  C   UNL     1       1.843   7.911  20.098  0.00  0.00    +0.000 A 
ATOM     14  C   UNL     1       0.915   8.959  20.138  0.00  0.00    +0.000 A 
ATOM     15 CL   UNL     1      -0.027   9.028  21.585  0.00  0.00    +0.000 Cl
BRANCH   9  16
ATOM     16  O   UNL     1      -0.116  10.838  18.869  0.00  0.00    +0.000 OA
BRANCH  16  18
ATOM     17  C   UNL     1      -2.255  11.878  19.209  0.00  0.00    +0.000 C 
ATOM     18  C   UNL     1      -1.527  10.588  18.840  0.00  0.00    +0.000 C 
ATOM     19  C   UNL     1      -1.912  10.171  17.423  0.00  0.00    +0.000 C 
ENDBRANCH  16  18
ENDBRANCH   9  16
ENDBRANCH   8  12
ENDBRANCH   1   8
BRANCH   5  20
ATOM     20  C   UNL     1       3.553   3.720  17.040  0.00  0.00    +0.000 C 
BRANCH  20  21
ATOM     21  C   UNL     1       2.900   3.470  18.376  0.00  0.00    +0.000 A 
ATOM     22  C   UNL     1       1.506   3.593  18.505  0.00  0.00    +0.000 A 
ATOM     23  C   UNL     1       0.856   3.204  19.678  0.00  0.00    +0.000 A 
ATOM     24  C   UNL     1       1.591   2.691  20.743  0.00  0.00    +0.000 A 
ATOM     25  C   UNL     1       2.978   2.587  20.642  0.00  0.00    +0.000 A 
ATOM     26  C   UNL     1       3.631   2.974  19.468  0.00  0.00    +0.000 A 
ENDBRANCH  20  21
ENDBRANCH   5  20
TORSDOF 7
ENDMDL
MODEL 3
REMARK VINA RESULT:      -7.2      1.578      1.878
REMARK  Name = 
REMARK  9 active torsions:
REMARK  status: ('A' for Active; 'I' for Inactive)
REMARK    1  A    between atoms: C_1  and  C_2
REMARK    2  A    between atoms: C_2  and  C_3
REMARK    3  A    between atoms: C_2  and  O_4
REMARK    4  A    between atoms: O_4  and  C_5
REMARK    5  A    between atoms: C_8  and  C_9
REMARK    6  A    between atoms: C_9  and  C_10
REMARK    7  A    between atoms: C_13  and  S_14
REMARK    8  A    between atoms: N_15  and  C_16
REMARK    9  A    between atoms: C_16  and  C_17
REMARK                            x       y       z     vdW  Elec       q    Type
REMARK                         _______ _______ _______ _____ _____    ______ ____
ROOT
ATOM      1  C   UNL     1       3.941   6.168  17.789  0.00  0.00    +0.000 A 
ATOM      2  N   UNL     1       4.513   6.875  16.827  0.00  0.00    +0.000 NA
ATOM      3  N   UNL     1       5.806   6.467  16.695  0.00  0.00    +0.000 NA
ATOM      4  C   UNL     1       6.006   5.503  17.561  0.00  0.00    +0.000 A 
ATOM      5  N   UNL     1       4.847   5.216  18.234  0.00  0.00    +0.000 N 
ENDROOT
BRANCH   4   6
ATOM      6  S   UNL     1       7.539   4.780  17.848  0.00  0.00    +0.000 S 
ATOM      7  H   UNL     1       7.276   4.395  19.107  0.00  0.00    +0.000 HD
ENDBRANCH   4   6
BRANCH   1   8
ATOM      8  C   UNL     1       2.514   6.399  18.167  0.00  0.00    +0.000 C 
BRANCH   8  12
ATOM      9  C   UNL     1       1.037  10.221  19.613  0.00  0.00    +0.000 A 
ATOM     10  C   UNL     1       1.362  10.058  18.255  0.00  0.00    +0.000 A 
ATOM     11  C   UNL     1       1.846   8.839  17.756  0.00  0.00    +0.000 A 
ATOM     12  C   UNL     1       2.060   7.762  18.622  0.00  0.00    +0.000 A 
ATOM     13  C   UNL     1       1.711   7.921  19.970  0.00  0.00    +0.000 A 
ATOM     14  C   UNL     1       1.168   9.115  20.460  0.00  0.00    +0.000 A 
ATOM     15 CL   UNL     1       0.584   9.024  22.083  0.00  0.00    +0.000 Cl
BRANCH   9  16
ATOM     16  O   UNL     1       0.534  11.460  19.910  0.00  0.00    +0.000 OA
BRANCH  16  18
ATOM     17  C   UNL     1      -1.807  11.815  19.502  0.00  0.00    +0.000 C 
ATOM     18  C   UNL     1      -0.389  12.065  18.996  0.00  0.00    +0.000 C 
ATOM     19  C   UNL     1      -0.115  13.566  18.961  0.00  0.00    +0.000 C 
ENDBRANCH  16  18
ENDBRANCH   9  16
ENDBRANCH   8  12
ENDBRANCH   1   8
BRANCH   5  20
ATOM     20  C   UNL     1       4.712   4.270  19.326  0.00  0.00    +0.000 C 
BRANCH  20  21
ATOM     21  C   UNL     1       3.349   3.642  19.476  0.00  0.00    +0.000 A 
ATOM     22  C   UNL     1       2.530   4.008  20.558  0.00  0.00    +0.000 A 
ATOM     23  C   UNL     1       1.203   3.577  20.631  0.00  0.00    +0.000 A 
ATOM     24  C   UNL     1       0.677   2.771  19.626  0.00  0.00    +0.000 A 
ATOM     25  C   UNL     1       1.484   2.378  18.559  0.00  0.00    +0.000 A 
ATOM     26  C   UNL     1       2.812   2.809  18.482  0.00  0.00    +0.000 A 
ENDBRANCH  20  21
ENDBRANCH   5  20
TORSDOF 7
ENDMDL
MODEL 4
REMARK VINA RESULT:      -7.1      2.039      2.607
REMARK  Name = 
REMARK  9 active torsions:
REMARK  status: ('A' for Active; 'I' for Inactive)
REMARK    1  A    between atoms: C_1  and  C_2
REMARK    2  A    between atoms: C_2  and  C_3
REMARK    3  A    between atoms: C_2  and  O_4
REMARK    4  A    between atoms: O_4  and  C_5
REMARK    5  A    between atoms: C_8  and  C_9
REMARK    6  A    between atoms: C_9  and  C_10
REMARK    7  A    between atoms: C_13  and  S_14
REMARK    8  A    between atoms: N_15  and  C_16
REMARK    9  A    between atoms: C_16  and  C_17
REMARK                            x       y       z     vdW  Elec       q    Type
REMARK                         _______ _______ _______ _____ _____    ______ ____
ROOT
ATOM      1  C   UNL     1       4.120   5.916  18.020  0.00  0.00    +0.000 A 
ATOM      2  N   UNL     1       5.060   6.773  17.657  0.00  0.00    +0.000 NA
ATOM      3  N   UNL     1       5.714   6.273  16.572  0.00  0.00    +0.000 NA
ATOM      4  C   UNL     1       5.154   5.127  16.269  0.00  0.00    +0.000 A 
ATOM      5  N   UNL     1       4.093   4.877  17.100  0.00  0.00    +0.000 N 
ENDROOT
BRANCH   4   6
ATOM      6  S   UNL     1       5.744   4.069  15.049  0.00  0.00    +0.000 S 
ATOM      7  H   UNL     1       4.661   4.151  14.260  0.00  0.00    +0.000 HD
ENDBRANCH   4   6
BRANCH   1   8
ATOM      8  C   UNL     1       3.237   6.194  19.193  0.00  0.00    +0.000 C 
BRANCH   8  12
ATOM      9  C   UNL     1       0.697   9.711  19.456  0.00  0.00    +0.000 A 
ATOM     10  C   UNL     1       1.348   9.398  18.249  0.00  0.00    +0.000 A 
ATOM     11  C   UNL     1       2.179   8.273  18.132  0.00  0.00    +0.000 A 
ATOM     12  C   UNL     1       2.414   7.456  19.241  0.00  0.00    +0.000 A 
ATOM     13  C   UNL     1       1.744   7.757  20.435  0.00  0.00    +0.000 A 
ATOM     14  C   UNL     1       0.865   8.841  20.539  0.00  0.00    +0.000 A 
ATOM     15 CL   UNL     1      -0.038   8.893  22.011  0.00  0.00    +0.000 Cl
BRANCH   9  16
ATOM     16  O   UNL     1      -0.109  10.814  19.372  0.00  0.00    +0.000 OA
BRANCH  16  18
ATOM     17  C   UNL     1      -2.128  10.201  18.222  0.00  0.00    +0.000 C 
ATOM     18  C   UNL     1      -0.850  11.034  18.165  0.00  0.00    +0.000 C 
ATOM     19  C   UNL     1      -1.208  12.516  18.085  0.00  0.00    +0.000 C 
ENDBRANCH  16  18
ENDBRANCH   9  16
ENDBRANCH   8  12
ENDBRANCH   1   8
BRANCH   5  20
ATOM     20  C   UNL     1       3.296   3.665  17.118  0.00  0.00    +0.000 C 
BRANCH  20  21
ATOM     21  C   UNL     1       2.680   3.312  18.449  0.00  0.00    +0.000 A 
ATOM     22  C   UNL     1       3.496   2.835  19.489  0.00  0.00    +0.000 A 
ATOM     23  C   UNL     1       2.987   2.664  20.779  0.00  0.00    +0.000 A 
ATOM     24  C   UNL     1       1.655   2.963  21.046  0.00  0.00    +0.000 A 
ATOM     25  C   UNL     1       0.825   3.412  20.019  0.00  0.00    +0.000 A 
ATOM     26  C   UNL     1       1.332   3.586  18.728  0.00  0.00    +0.000 A 
ENDBRANCH  20  21
ENDBRANCH   5  20
TORSDOF 7
ENDMDL
MODEL 5
REMARK VINA RESULT:      -7.1      1.893      2.522
REMARK  Name = 
REMARK  9 active torsions:
REMARK  status: ('A' for Active; 'I' for Inactive)
REMARK    1  A    between atoms: C_1  and  C_2
REMARK    2  A    between atoms: C_2  and  C_3
REMARK    3  A    between atoms: C_2  and  O_4
REMARK    4  A    between atoms: O_4  and  C_5
REMARK    5  A    between atoms: C_8  and  C_9
REMARK    6  A    between atoms: C_9  and  C_10
REMARK    7  A    between atoms: C_13  and  S_14
REMARK    8  A    between atoms: N_15  and  C_16
REMARK    9  A    between atoms: C_16  and  C_17
REMARK                            x       y       z     vdW  Elec       q    Type
REMARK                         _______ _______ _______ _____ _____    ______ ____
ROOT
ATOM      1  C   UNL     1       4.059   5.950  17.947  0.00  0.00    +0.000 A 
ATOM      2  N   UNL     1       4.984   6.817  17.570  0.00  0.00    +0.000 NA
ATOM      3  N   UNL     1       5.702   6.276  16.546  0.00  0.00    +0.000 NA
ATOM      4  C   UNL     1       5.195   5.094  16.293  0.00  0.00    +0.000 A 
ATOM      5  N   UNL     1       4.108   4.856  17.093  0.00  0.00    +0.000 N 
ENDROOT
BRANCH   4   6
ATOM      6  S   UNL     1       5.873   3.985  15.167  0.00  0.00    +0.000 S 
ATOM      7  H   UNL     1       6.577   4.900  14.481  0.00  0.00    +0.000 HD
ENDBRANCH   4   6
BRANCH   1   8
ATOM      8  C   UNL     1       3.117   6.266  19.062  0.00  0.00    +0.000 C 
BRANCH   8  12
ATOM      9  C   UNL     1       0.739   9.901  19.202  0.00  0.00    +0.000 A 
ATOM     10  C   UNL     1       1.325   9.487  17.993  0.00  0.00    +0.000 A 
ATOM     11  C   UNL     1       2.103   8.321  17.914  0.00  0.00    +0.000 A 
ATOM     12  C   UNL     1       2.350   7.564  19.063  0.00  0.00    +0.000 A 
ATOM     13  C   UNL     1       1.743   7.966  20.261  0.00  0.00    +0.000 A 
ATOM     14  C   UNL     1       0.916   9.093  20.330  0.00  0.00    +0.000 A 
ATOM     15 CL   UNL     1       0.077   9.275  21.830  0.00  0.00    +0.000 Cl
BRANCH   9  16
ATOM     16  O   UNL     1      -0.024  11.031  19.080  0.00  0.00    +0.000 OA
BRANCH  16  18
ATOM     17  C   UNL     1      -0.343  13.288  18.320  0.00  0.00    +0.000 C 
ATOM     18  C   UNL     1       0.638  12.295  18.938  0.00  0.00    +0.000 C 
ATOM     19  C   UNL     1       1.051  12.780  20.325  0.00  0.00    +0.000 C 
ENDBRANCH  16  18
ENDBRANCH   9  16
ENDBRANCH   8  12
ENDBRANCH   1   8
BRANCH   5  20
ATOM     20  C   UNL     1       3.353   3.619  17.153  0.00  0.00    +0.000 C 
BRANCH  20  21
ATOM     21  C   UNL     1       2.722   3.308  18.488  0.00  0.00    +0.000 A 
ATOM     22  C   UNL     1       3.529   2.884  19.558  0.00  0.00    +0.000 A 
ATOM     23  C   UNL     1       3.004   2.755  20.845  0.00  0.00    +0.000 A 
ATOM     24  C   UNL     1       1.663   3.042  21.082  0.00  0.00    +0.000 A 
ATOM     25  C   UNL     1       0.842   3.438  20.026  0.00  0.00    +0.000 A 
ATOM     26  C   UNL     1       1.366   3.571  18.737  0.00  0.00    +0.000 A 
ENDBRANCH  20  21
ENDBRANCH   5  20
TORSDOF 7
ENDMDL
MODEL 6
REMARK VINA RESULT:      -7.1      0.671      1.029
REMARK  Name = 
REMARK  9 active torsions:
REMARK  status: ('A' for Active; 'I' for Inactive)
REMARK    1  A    between atoms: C_1  and  C_2
REMARK    2  A    between atoms: C_2  and  C_3
REMARK    3  A    between atoms: C_2  and  O_4
REMARK    4  A    between atoms: O_4  and  C_5
REMARK    5  A    between atoms: C_8  and  C_9
REMARK    6  A    between atoms: C_9  and  C_10
REMARK    7  A    between atoms: C_13  and  S_14
REMARK    8  A    between atoms: N_15  and  C_16
REMARK    9  A    between atoms: C_16  and  C_17
REMARK                            x       y       z     vdW  Elec       q    Type
REMARK                         _______ _______ _______ _____ _____    ______ ____
ROOT
ATOM      1  C   UNL     1       3.837   6.469  17.600  0.00  0.00    +0.000 A 
ATOM      2  N   UNL     1       4.689   7.476  17.496  0.00  0.00    +0.000 NA
ATOM      3  N   UNL     1       5.944   6.973  17.331  0.00  0.00    +0.000 NA
ATOM      4  C   UNL     1       5.844   5.666  17.314  0.00  0.00    +0.000 A 
ATOM      5  N   UNL     1       4.531   5.283  17.406  0.00  0.00    +0.000 N 
ENDROOT
BRANCH   4   6
ATOM      6  S   UNL     1       7.198   4.606  17.267  0.00  0.00    +0.000 S 
ATOM      7  H   UNL     1       6.486   3.471  17.353  0.00  0.00    +0.000 HD
ENDBRANCH   4   6
BRANCH   1   8
ATOM      8  C   UNL     1       2.377   6.715  17.797  0.00  0.00    +0.000 C 
BRANCH   8  12
ATOM      9  C   UNL     1       1.157   9.712  20.698  0.00  0.00    +0.000 A 
ATOM     10  C   UNL     1       1.461   8.406  21.118  0.00  0.00    +0.000 A 
ATOM     11  C   UNL     1       1.852   7.412  20.206  0.00  0.00    +0.000 A 
ATOM     12  C   UNL     1       1.905   7.697  18.839  0.00  0.00    +0.000 A 
ATOM     13  C   UNL     1       1.627   9.008  18.427  0.00  0.00    +0.000 A 
ATOM     14  C   UNL     1       1.297  10.017  19.339  0.00  0.00    +0.000 A 
ATOM     15 CL   UNL     1       1.231  11.604  18.659  0.00  0.00    +0.000 Cl
BRANCH   9  16
ATOM     16  O   UNL     1       0.842  10.558  21.727  0.00  0.00    +0.000 OA
BRANCH  16  18
ATOM     17  C   UNL     1      -1.043  10.482  23.215  0.00  0.00    +0.000 C 
ATOM     18  C   UNL     1      -0.519  10.986  21.873  0.00  0.00    +0.000 C 
ATOM     19  C   UNL     1      -0.547  12.512  21.854  0.00  0.00    +0.000 C 
ENDBRANCH  16  18
ENDBRANCH   9  16
ENDBRANCH   8  12
ENDBRANCH   1   8
BRANCH   5  20
ATOM     20  C   UNL     1       4.051   3.918  17.509  0.00  0.00    +0.000 C 
BRANCH  20  21
ATOM     21  C   UNL     1       3.061   3.661  18.617  0.00  0.00    +0.000 A 
ATOM     22  C   UNL     1       3.429   3.906  19.951  0.00  0.00    +0.000 A 
ATOM     23  C   UNL     1       2.486   3.841  20.980  0.00  0.00    +0.000 A 
ATOM     24  C   UNL     1       1.162   3.527  20.691  0.00  0.00    +0.000 A 
ATOM     25  C   UNL     1       0.785   3.255  19.375  0.00  0.00    +0.000 A 
ATOM     26  C   UNL     1       1.726   3.320  18.344  0.00  0.00    +0.000 A 
ENDBRANCH  20  21
ENDBRANCH   5  20
TORSDOF 7
ENDMDL
MODEL 7
REMARK VINA RESULT:      -7.1      1.844      2.443
REMARK  Name = 
REMARK  9 active torsions:
REMARK  status: ('A' for Active; 'I' for Inactive)
REMARK    1  A    between atoms: C_1  and  C_2
REMARK    2  A    between atoms: C_2  and  C_3
REMARK    3  A    between atoms: C_2  and  O_4
REMARK    4  A    between atoms: O_4  and  C_5
REMARK    5  A    between atoms: C_8  and  C_9
REMARK    6  A    between atoms: C_9  and  C_10
REMARK    7  A    between atoms: C_13  and  S_14
REMARK    8  A    between atoms: N_15  and  C_16
REMARK    9  A    between atoms: C_16  and  C_17
REMARK                            x       y       z     vdW  Elec       q    Type
REMARK                         _______ _______ _______ _____ _____    ______ ____
ROOT
ATOM      1  C   UNL     1       4.088   6.051  17.599  0.00  0.00    +0.000 A 
ATOM      2  N   UNL     1       4.561   7.043  16.862  0.00  0.00    +0.000 NA
ATOM      3  N   UNL     1       5.282   6.519  15.832  0.00  0.00    +0.000 NA
ATOM      4  C   UNL     1       5.225   5.213  15.937  0.00  0.00    +0.000 A 
ATOM      5  N   UNL     1       4.426   4.851  16.990  0.00  0.00    +0.000 N 
ENDROOT
BRANCH   4   6
ATOM      6  S   UNL     1       6.109   4.135  14.930  0.00  0.00    +0.000 S 
ATOM      7  H   UNL     1       5.913   4.818  13.791  0.00  0.00    +0.000 HD
ENDBRANCH   4   6
BRANCH   1   8
ATOM      8  C   UNL     1       3.258   6.323  18.810  0.00  0.00    +0.000 C 
BRANCH   8  12
ATOM      9  C   UNL     1       0.729   9.835  19.208  0.00  0.00    +0.000 A 
ATOM     10  C   UNL     1       1.279   9.499  17.959  0.00  0.00    +0.000 A 
ATOM     11  C   UNL     1       2.104   8.375  17.797  0.00  0.00    +0.000 A 
ATOM     12  C   UNL     1       2.434   7.583  18.900  0.00  0.00    +0.000 A 
ATOM     13  C   UNL     1       1.863   7.906  20.139  0.00  0.00    +0.000 A 
ATOM     14  C   UNL     1       0.991   8.990  20.292  0.00  0.00    +0.000 A 
ATOM     15 CL   UNL     1       0.212   9.070  21.832  0.00  0.00    +0.000 Cl
BRANCH   9  16
ATOM     16  O   UNL     1      -0.088  10.933  19.168  0.00  0.00    +0.000 OA
BRANCH  16  18
ATOM     17  C   UNL     1      -0.414  13.183  18.392  0.00  0.00    +0.000 C 
ATOM     18  C   UNL     1       0.511  12.235  19.150  0.00  0.00    +0.000 C 
ATOM     19  C   UNL     1       0.665  12.714  20.591  0.00  0.00    +0.000 C 
ENDBRANCH  16  18
ENDBRANCH   9  16
ENDBRANCH   8  12
ENDBRANCH   1   8
BRANCH   5  20
ATOM     20  C   UNL     1       4.205   3.496  17.460  0.00  0.00    +0.000 C 
BRANCH  20  21
ATOM     21  C   UNL     1       3.160   3.347  18.538  0.00  0.00    +0.000 A 
ATOM     22  C   UNL     1       1.803   3.257  18.185  0.00  0.00    +0.000 A 
ATOM     23  C   UNL     1       0.832   2.948  19.141  0.00  0.00    +0.000 A 
ATOM     24  C   UNL     1       1.203   2.727  20.463  0.00  0.00    +0.000 A 
ATOM     25  C   UNL     1       2.543   2.838  20.836  0.00  0.00    +0.000 A 
ATOM     26  C   UNL     1       3.517   3.146  19.881  0.00  0.00    +0.000 A 
ENDBRANCH  20  21
ENDBRANCH   5  20
TORSDOF 7
ENDMDL
MODEL 8
REMARK VINA RESULT:      -7.0      1.556      2.133
REMARK  Name = 
REMARK  9 active torsions:
REMARK  status: ('A' for Active; 'I' for Inactive)
REMARK    1  A    between atoms: C_1  and  C_2
REMARK    2  A    between atoms: C_2  and  C_3
REMARK    3  A    between atoms: C_2  and  O_4
REMARK    4  A    between atoms: O_4  and  C_5
REMARK    5  A    between atoms: C_8  and  C_9
REMARK    6  A    between atoms: C_9  and  C_10
REMARK    7  A    between atoms: C_13  and  S_14
REMARK    8  A    between atoms: N_15  and  C_16
REMARK    9  A    between atoms: C_16  and  C_17
REMARK                            x       y       z     vdW  Elec       q    Type
REMARK                         _______ _______ _______ _____ _____    ______ ____
ROOT
ATOM      1  C   UNL     1       3.995   6.395  17.602  0.00  0.00    +0.000 A 
ATOM      2  N   UNL     1       4.648   7.067  16.667  0.00  0.00    +0.000 NA
ATOM      3  N   UNL     1       5.946   6.651  16.655  0.00  0.00    +0.000 NA
ATOM      4  C   UNL     1       6.068   5.716  17.565  0.00  0.00    +0.000 A 
ATOM      5  N   UNL     1       4.856   5.454  18.150  0.00  0.00    +0.000 N 
ENDROOT
BRANCH   4   6
ATOM      6  S   UNL     1       7.568   4.997  18.000  0.00  0.00    +0.000 S 
ATOM      7  H   UNL     1       7.465   5.249  19.315  0.00  0.00    +0.000 HD
ENDBRANCH   4   6
BRANCH   1   8
ATOM      8  C   UNL     1       2.544   6.642  17.854  0.00  0.00    +0.000 C 
BRANCH   8  12
ATOM      9  C   UNL     1       1.076  10.267  19.749  0.00  0.00    +0.000 A 
ATOM     10  C   UNL     1       1.347  10.252  18.370  0.00  0.00    +0.000 A 
ATOM     11  C   UNL     1       1.827   9.099  17.727  0.00  0.00    +0.000 A 
ATOM     12  C   UNL     1       2.091   7.943  18.467  0.00  0.00    +0.000 A 
ATOM     13  C   UNL     1       1.795   7.954  19.837  0.00  0.00    +0.000 A 
ATOM     14  C   UNL     1       1.258   9.081  20.470  0.00  0.00    +0.000 A 
ATOM     15 CL   UNL     1       0.742   8.812  22.096  0.00  0.00    +0.000 Cl
BRANCH   9  16
ATOM     16  O   UNL     1       0.570  11.459  20.193  0.00  0.00    +0.000 OA
BRANCH  16  18
ATOM     17  C   UNL     1      -1.108  12.895  19.247  0.00  0.00    +0.000 C 
ATOM     18  C   UNL     1       0.371  12.517  19.247  0.00  0.00    +0.000 C 
ATOM     19  C   UNL     1       1.206  13.717  19.686  0.00  0.00    +0.000 C 
ENDBRANCH  16  18
ENDBRANCH   9  16
ENDBRANCH   8  12
ENDBRANCH   1   8
BRANCH   5  20
ATOM     20  C   UNL     1       4.628   4.546  19.258  0.00  0.00    +0.000 C 
BRANCH  20  21
ATOM     21  C   UNL     1       3.220   4.017  19.383  0.00  0.00    +0.000 A 
ATOM     22  C   UNL     1       2.743   3.081  18.451  0.00  0.00    +0.000 A 
ATOM     23  C   UNL     1       1.512   2.446  18.637  0.00  0.00    +0.000 A 
ATOM     24  C   UNL     1       0.739   2.742  19.755  0.00  0.00    +0.000 A 
ATOM     25  C   UNL     1       1.186   3.689  20.677  0.00  0.00    +0.000 A 
ATOM     26  C   UNL     1       2.418   4.324  20.494  0.00  0.00    +0.000 A 
ENDBRANCH  20  21
ENDBRANCH   5  20
TORSDOF 7
ENDMDL
MODEL 9
REMARK VINA RESULT:      -7.0      4.646      7.519
REMARK  Name = 
REMARK  9 active torsions:
REMARK  status: ('A' for Active; 'I' for Inactive)
REMARK    1  A    between atoms: C_1  and  C_2
REMARK    2  A    between atoms: C_2  and  C_3
REMARK    3  A    between atoms: C_2  and  O_4
REMARK    4  A    between atoms: O_4  and  C_5
REMARK    5  A    between atoms: C_8  and  C_9
REMARK    6  A    between atoms: C_9  and  C_10
REMARK    7  A    between atoms: C_13  and  S_14
REMARK    8  A    between atoms: N_15  and  C_16
REMARK    9  A    between atoms: C_16  and  C_17
REMARK                            x       y       z     vdW  Elec       q    Type
REMARK                         _______ _______ _______ _____ _____    ______ ____
ROOT
ATOM      1  C   UNL     1       1.175  10.913  18.654  0.00  0.00    +0.000 A 
ATOM      2  N   UNL     1       1.981  11.927  18.924  0.00  0.00    +0.000 NA
ATOM      3  N   UNL     1       1.294  12.851  19.652  0.00  0.00    +0.000 NA
ATOM      4  C   UNL     1       0.083  12.384  19.838  0.00  0.00    +0.000 A 
ATOM      5  N   UNL     1      -0.036  11.130  19.295  0.00  0.00    +0.000 N 
ENDROOT
BRANCH   4   6
ATOM      6  S   UNL     1      -1.181  13.277  20.587  0.00  0.00    +0.000 S 
ATOM      7  H   UNL     1      -1.808  13.610  19.448  0.00  0.00    +0.000 HD
ENDBRANCH   4   6
BRANCH   1   8
ATOM      8  C   UNL     1       1.654   9.743  17.859  0.00  0.00    +0.000 C 
BRANCH   8  12
ATOM      9  C   UNL     1       2.819   5.962  19.657  0.00  0.00    +0.000 A 
ATOM     10  C   UNL     1       2.023   6.870  20.376  0.00  0.00    +0.000 A 
ATOM     11  C   UNL     1       1.633   8.102  19.827  0.00  0.00    +0.000 A 
ATOM     12  C   UNL     1       2.073   8.472  18.553  0.00  0.00    +0.000 A 
ATOM     13  C   UNL     1       2.845   7.554  17.829  0.00  0.00    +0.000 A 
ATOM     14  C   UNL     1       3.184   6.298  18.349  0.00  0.00    +0.000 A 
ATOM     15 CL   UNL     1       3.927   5.229  17.212  0.00  0.00    +0.000 Cl
BRANCH   9  16
ATOM     16  O   UNL     1       3.060   4.794  20.329  0.00  0.00    +0.000 OA
BRANCH  16  18
ATOM     17  C   UNL     1       3.320   2.513  19.620  0.00  0.00    +0.000 C 
ATOM     18  C   UNL     1       2.325   3.621  19.956  0.00  0.00    +0.000 C 
ATOM     19  C   UNL     1       1.466   3.195  21.143  0.00  0.00    +0.000 C 
ENDBRANCH  16  18
ENDBRANCH   9  16
ENDBRANCH   8  12
ENDBRANCH   1   8
BRANCH   5  20
ATOM     20  C   UNL     1      -1.255  10.346  19.232  0.00  0.00    +0.000 C 
BRANCH  20  21
ATOM     21  C   UNL     1      -2.115  10.582  18.016  0.00  0.00    +0.000 A 
ATOM     22  C   UNL     1      -1.899   9.823  16.852  0.00  0.00    +0.000 A 
ATOM     23  C   UNL     1      -2.783   9.896  15.774  0.00  0.00    +0.000 A 
ATOM     24  C   UNL     1      -3.894  10.732  15.840  0.00  0.00    +0.000 A 
ATOM     25  C   UNL     1      -4.109  11.511  16.977  0.00  0.00    +0.000 A 
ATOM     26  C   UNL     1      -3.226  11.439  18.058  0.00  0.00    +0.000 A 
ENDBRANCH  20  21
ENDBRANCH   5  20
TORSDOF 7
ENDMDL
