MODEL 1
REMARK VINA RESULT:      -7.5      0.000      0.000
REMARK  Name = 
REMARK  3 active torsions:
REMARK  status: ('A' for Active; 'I' for Inactive)
REMARK    1  A    between atoms: C_1  and  C_2
REMARK    2  A    between atoms: C_2  and  C_3
REMARK    3  A    between atoms: C_18  and  C_19
REMARK                            x       y       z     vdW  Elec       q    Type
REMARK                         _______ _______ _______ _____ _____    ______ ____
ROOT
ATOM      1  C   UNL     1       2.377  15.293  18.931  0.00  0.00    +0.000 C 
ATOM      2  C   UNL     1       1.039  15.830  19.472  0.00  0.00    +0.000 C 
ATOM      3  C   UNL     1       1.106  17.371  19.487  0.00  0.00    +0.000 C 
ATOM      4  C   UNL     1      -0.094  15.361  18.536  0.00  0.00    +0.000 C 
ATOM      5  C   UNL     1      -0.382  13.857  18.678  0.00  0.00    +0.000 C 
ATOM      6  O   UNL     1      -0.523  13.152  17.681  0.00  0.00    +0.000 OA
ATOM      7  C   UNL     1      -0.619  13.345  20.099  0.00  0.00    +0.000 C 
ATOM      8  C   UNL     1      -1.956  14.001  20.489  0.00  0.00    +0.000 C 
ATOM      9  C   UNL     1      -2.430  13.581  21.841  0.00  0.00    +0.000 A 
ATOM     10  C   UNL     1      -3.236  14.479  22.572  0.00  0.00    +0.000 A 
ATOM     11  C   UNL     1      -3.715  14.138  23.827  0.00  0.00    +0.000 A 
ATOM     12  C   UNL     1      -3.405  12.890  24.341  0.00  0.00    +0.000 A 
ATOM     13  C   UNL     1      -2.608  12.002  23.606  0.00  0.00    +0.000 A 
ATOM     14  C   UNL     1      -2.089  12.315  22.335  0.00  0.00    +0.000 A 
ATOM     15  N   UNL     1      -1.258  11.448  21.604  0.00  0.00    +0.000 N 
ATOM     16  C   UNL     1      -1.008  10.142  22.194  0.00  0.00    +0.000 C 
ATOM     17  C   UNL     1      -0.292   9.143  21.329  0.00  0.00    +0.000 C 
ATOM     18  C   UNL     1       0.854   9.704  20.502  0.00  0.00    +0.000 C 
ATOM     19  C   UNL     1       0.408  10.951  19.698  0.00  0.00    +0.000 C 
ATOM     20  C   UNL     1      -0.806  11.793  20.229  0.00  0.00    +0.000 C 
ATOM     21  C   UNL     1       0.540  13.864  20.968  0.00  0.00    +0.000 C 
ATOM     22  O   UNL     1       1.288  13.141  21.626  0.00  0.00    +0.000 OA
ATOM     23  C   UNL     1       0.809  15.355  20.920  0.00  0.00    +0.000 C 
ENDROOT
BRANCH  18  24
ATOM     24  C   UNL     1       1.567   8.590  19.691  0.00  0.00    +0.000 A 
ATOM     25  C   UNL     1       1.931   7.346  20.257  0.00  0.00    +0.000 A 
ATOM     26  C   UNL     1       2.717   6.403  19.572  0.00  0.00    +0.000 A 
ATOM     27  C   UNL     1       3.150   6.685  18.279  0.00  0.00    +0.000 A 
ATOM     28  C   UNL     1       2.785   7.889  17.683  0.00  0.00    +0.000 A 
ATOM     29  C   UNL     1       2.007   8.832  18.380  0.00  0.00    +0.000 A 
ENDBRANCH  18  24
TORSDOF 1
ENDMDL
MODEL 2
REMARK VINA RESULT:      -7.3      7.143     10.842
REMARK  Name = 
REMARK  3 active torsions:
REMARK  status: ('A' for Active; 'I' for Inactive)
REMARK    1  A    between atoms: C_1  and  C_2
REMARK    2  A    between atoms: C_2  and  C_3
REMARK    3  A    between atoms: C_18  and  C_19
REMARK                            x       y       z     vdW  Elec       q    Type
REMARK                         _______ _______ _______ _____ _____    ______ ____
ROOT
ATOM      1  C   UNL     1       9.437  17.792  23.302  0.00  0.00    +0.000 C 
ATOM      2  C   UNL     1      10.299  16.517  23.258  0.00  0.00    +0.000 C 
ATOM      3  C   UNL     1      11.526  16.730  24.167  0.00  0.00    +0.000 C 
ATOM      4  C   UNL     1       9.455  15.335  23.779  0.00  0.00    +0.000 C 
ATOM      5  C   UNL     1       8.370  14.907  22.777  0.00  0.00    +0.000 C 
ATOM      6  O   UNL     1       7.221  14.690  23.157  0.00  0.00    +0.000 OA
ATOM      7  C   UNL     1       8.839  14.638  21.347  0.00  0.00    +0.000 C 
ATOM      8  C   UNL     1       9.704  13.372  21.494  0.00  0.00    +0.000 C 
ATOM      9  C   UNL     1      10.223  12.875  20.186  0.00  0.00    +0.000 A 
ATOM     10  C   UNL     1      11.442  12.165  20.181  0.00  0.00    +0.000 A 
ATOM     11  C   UNL     1      11.966  11.669  18.997  0.00  0.00    +0.000 A 
ATOM     12  C   UNL     1      11.259  11.864  17.823  0.00  0.00    +0.000 A 
ATOM     13  C   UNL     1      10.046  12.566  17.837  0.00  0.00    +0.000 A 
ATOM     14  C   UNL     1       9.487  13.100  19.015  0.00  0.00    +0.000 A 
ATOM     15  N   UNL     1       8.290  13.837  19.038  0.00  0.00    +0.000 N 
ATOM     16  C   UNL     1       7.587  13.969  17.771  0.00  0.00    +0.000 C 
ATOM     17  C   UNL     1       6.214  14.578  17.827  0.00  0.00    +0.000 C 
ATOM     18  C   UNL     1       6.069  15.763  18.768  0.00  0.00    +0.000 C 
ATOM     19  C   UNL     1       6.611  15.429  20.180  0.00  0.00    +0.000 C 
ATOM     20  C   UNL     1       7.699  14.305  20.321  0.00  0.00    +0.000 C 
ATOM     21  C   UNL     1       9.678  15.850  20.908  0.00  0.00    +0.000 C 
ATOM     22  O   UNL     1       9.439  16.533  19.912  0.00  0.00    +0.000 OA
ATOM     23  C   UNL     1      10.812  16.258  21.828  0.00  0.00    +0.000 C 
ENDROOT
BRANCH  18  24
ATOM     24  C   UNL     1       4.637  16.359  18.712  0.00  0.00    +0.000 A 
ATOM     25  C   UNL     1       4.017  16.967  19.828  0.00  0.00    +0.000 A 
ATOM     26  C   UNL     1       2.667  17.360  19.824  0.00  0.00    +0.000 A 
ATOM     27  C   UNL     1       1.901  17.162  18.677  0.00  0.00    +0.000 A 
ATOM     28  C   UNL     1       2.490  16.591  17.552  0.00  0.00    +0.000 A 
ATOM     29  C   UNL     1       3.839  16.191  17.568  0.00  0.00    +0.000 A 
ENDBRANCH  18  24
TORSDOF 1
ENDMDL
MODEL 3
REMARK VINA RESULT:      -7.0      2.195      6.892
REMARK  Name = 
REMARK  3 active torsions:
REMARK  status: ('A' for Active; 'I' for Inactive)
REMARK    1  A    between atoms: C_1  and  C_2
REMARK    2  A    between atoms: C_2  and  C_3
REMARK    3  A    between atoms: C_18  and  C_19
REMARK                            x       y       z     vdW  Elec       q    Type
REMARK                         _______ _______ _______ _____ _____    ______ ____
ROOT
ATOM      1  C   UNL     1      -0.621   8.158  21.341  0.00  0.00    +0.000 C 
ATOM      2  C   UNL     1       0.570   8.973  20.803  0.00  0.00    +0.000 C 
ATOM      3  C   UNL     1       1.747   8.008  20.558  0.00  0.00    +0.000 C 
ATOM      4  C   UNL     1       0.149   9.640  19.476  0.00  0.00    +0.000 C 
ATOM      5  C   UNL     1      -0.838  10.799  19.692  0.00  0.00    +0.000 C 
ATOM      6  O   UNL     1      -1.841  10.904  18.990  0.00  0.00    +0.000 OA
ATOM      7  C   UNL     1      -0.421  11.859  20.713  0.00  0.00    +0.000 C 
ATOM      8  C   UNL     1       0.784  12.540  20.038  0.00  0.00    +0.000 C 
ATOM      9  C   UNL     1       1.324  13.678  20.840  0.00  0.00    +0.000 A 
ATOM     10  C   UNL     1       2.692  13.993  20.708  0.00  0.00    +0.000 A 
ATOM     11  C   UNL     1       3.246  15.047  21.419  0.00  0.00    +0.000 A 
ATOM     12  C   UNL     1       2.425  15.799  22.242  0.00  0.00    +0.000 A 
ATOM     13  C   UNL     1       1.065  15.483  22.362  0.00  0.00    +0.000 A 
ATOM     14  C   UNL     1       0.466  14.411  21.671  0.00  0.00    +0.000 A 
ATOM     15  N   UNL     1      -0.887  14.061  21.811  0.00  0.00    +0.000 N 
ATOM     16  C   UNL     1      -1.694  14.920  22.665  0.00  0.00    +0.000 C 
ATOM     17  C   UNL     1      -3.176  14.672  22.657  0.00  0.00    +0.000 C 
ATOM     18  C   UNL     1      -3.588  13.208  22.647  0.00  0.00    +0.000 C 
ATOM     19  C   UNL     1      -2.865  12.429  21.520  0.00  0.00    +0.000 C 
ATOM     20  C   UNL     1      -1.490  12.974  20.993  0.00  0.00    +0.000 C 
ATOM     21  C   UNL     1      -0.008  11.117  21.995  0.00  0.00    +0.000 C 
ATOM     22  O   UNL     1      -0.511  11.315  23.102  0.00  0.00    +0.000 OA
ATOM     23  C   UNL     1       1.025  10.018  21.839  0.00  0.00    +0.000 C 
ENDROOT
BRANCH  18  24
ATOM     24  C   UNL     1      -5.131  13.054  22.701  0.00  0.00    +0.000 A 
ATOM     25  C   UNL     1      -5.865  13.124  23.907  0.00  0.00    +0.000 A 
ATOM     26  C   UNL     1      -7.237  12.825  23.978  0.00  0.00    +0.000 A 
ATOM     27  C   UNL     1      -7.917  12.457  22.819  0.00  0.00    +0.000 A 
ATOM     28  C   UNL     1      -7.228  12.406  21.610  0.00  0.00    +0.000 A 
ATOM     29  C   UNL     1      -5.852  12.697  21.550  0.00  0.00    +0.000 A 
ENDBRANCH  18  24
TORSDOF 1
ENDMDL
MODEL 4
REMARK VINA RESULT:      -6.9      4.361     10.578
REMARK  Name = 
REMARK  3 active torsions:
REMARK  status: ('A' for Active; 'I' for Inactive)
REMARK    1  A    between atoms: C_1  and  C_2
REMARK    2  A    between atoms: C_2  and  C_3
REMARK    3  A    between atoms: C_18  and  C_19
REMARK                            x       y       z     vdW  Elec       q    Type
REMARK                         _______ _______ _______ _____ _____    ______ ____
ROOT
ATOM      1  C   UNL     1       3.088   2.510  21.568  0.00  0.00    +0.000 C 
ATOM      2  C   UNL     1       3.708   2.011  20.251  0.00  0.00    +0.000 C 
ATOM      3  C   UNL     1       4.326   0.621  20.502  0.00  0.00    +0.000 C 
ATOM      4  C   UNL     1       2.592   1.908  19.190  0.00  0.00    +0.000 C 
ATOM      5  C   UNL     1       2.119   3.289  18.706  0.00  0.00    +0.000 C 
ATOM      6  O   UNL     1       0.919   3.536  18.601  0.00  0.00    +0.000 OA
ATOM      7  C   UNL     1       3.211   4.253  18.239  0.00  0.00    +0.000 C 
ATOM      8  C   UNL     1       3.738   3.589  16.954  0.00  0.00    +0.000 C 
ATOM      9  C   UNL     1       4.787   4.405  16.274  0.00  0.00    +0.000 A 
ATOM     10  C   UNL     1       5.756   3.732  15.501  0.00  0.00    +0.000 A 
ATOM     11  C   UNL     1       6.746   4.440  14.836  0.00  0.00    +0.000 A 
ATOM     12  C   UNL     1       6.752   5.822  14.928  0.00  0.00    +0.000 A 
ATOM     13  C   UNL     1       5.782   6.483  15.694  0.00  0.00    +0.000 A 
ATOM     14  C   UNL     1       4.769   5.801  16.397  0.00  0.00    +0.000 A 
ATOM     15  N   UNL     1       3.814   6.449  17.198  0.00  0.00    +0.000 N 
ATOM     16  C   UNL     1       3.862   7.904  17.215  0.00  0.00    +0.000 C 
ATOM     17  C   UNL     1       2.724   8.604  17.903  0.00  0.00    +0.000 C 
ATOM     18  C   UNL     1       2.257   7.962  19.200  0.00  0.00    +0.000 C 
ATOM     19  C   UNL     1       1.975   6.451  19.009  0.00  0.00    +0.000 C 
ATOM     20  C   UNL     1       2.713   5.689  17.850  0.00  0.00    +0.000 C 
ATOM     21  C   UNL     1       4.284   4.290  19.340  0.00  0.00    +0.000 C 
ATOM     22  O   UNL     1       4.656   5.316  19.910  0.00  0.00    +0.000 OA
ATOM     23  C   UNL     1       4.838   2.952  19.792  0.00  0.00    +0.000 C 
ENDROOT
BRANCH  18  24
ATOM     24  C   UNL     1       1.124   8.788  19.865  0.00  0.00    +0.000 A 
ATOM     25  C   UNL     1       0.497   9.881  19.223  0.00  0.00    +0.000 A 
ATOM     26  C   UNL     1      -0.412  10.726  19.883  0.00  0.00    +0.000 A 
ATOM     27  C   UNL     1      -0.729  10.481  21.217  0.00  0.00    +0.000 A 
ATOM     28  C   UNL     1      -0.150   9.396  21.868  0.00  0.00    +0.000 A 
ATOM     29  C   UNL     1       0.768   8.561  21.204  0.00  0.00    +0.000 A 
ENDBRANCH  18  24
TORSDOF 1
ENDMDL
MODEL 5
REMARK VINA RESULT:      -6.9      1.805      7.132
REMARK  Name = 
REMARK  3 active torsions:
REMARK  status: ('A' for Active; 'I' for Inactive)
REMARK    1  A    between atoms: C_1  and  C_2
REMARK    2  A    between atoms: C_2  and  C_3
REMARK    3  A    between atoms: C_18  and  C_19
REMARK                            x       y       z     vdW  Elec       q    Type
REMARK                         _______ _______ _______ _____ _____    ______ ____
ROOT
ATOM      1  C   UNL     1      -0.552   9.316  21.021  0.00  0.00    +0.000 C 
ATOM      2  C   UNL     1       0.286  10.102  19.996  0.00  0.00    +0.000 C 
ATOM      3  C   UNL     1       1.389   9.171  19.454  0.00  0.00    +0.000 C 
ATOM      4  C   UNL     1      -0.639  10.549  18.844  0.00  0.00    +0.000 C 
ATOM      5  C   UNL     1      -1.594  11.678  19.267  0.00  0.00    +0.000 C 
ATOM      6  O   UNL     1      -2.785  11.632  18.970  0.00  0.00    +0.000 OA
ATOM      7  C   UNL     1      -0.949  12.894  19.936  0.00  0.00    +0.000 C 
ATOM      8  C   UNL     1      -0.132  13.528  18.795  0.00  0.00    +0.000 C 
ATOM      9  C   UNL     1       0.542  14.795  19.206  0.00  0.00    +0.000 A 
ATOM     10  C   UNL     1       1.739  15.154  18.551  0.00  0.00    +0.000 A 
ATOM     11  C   UNL     1       2.402  16.325  18.883  0.00  0.00    +0.000 A 
ATOM     12  C   UNL     1       1.856  17.147  19.855  0.00  0.00    +0.000 A 
ATOM     13  C   UNL     1       0.664  16.785  20.497  0.00  0.00    +0.000 A 
ATOM     14  C   UNL     1      -0.033  15.597  20.200  0.00  0.00    +0.000 A 
ATOM     15  N   UNL     1      -1.209  15.205  20.863  0.00  0.00    +0.000 N 
ATOM     16  C   UNL     1      -1.740  16.138  21.845  0.00  0.00    +0.000 C 
ATOM     17  C   UNL     1      -3.098  15.820  22.405  0.00  0.00    +0.000 C 
ATOM     18  C   UNL     1      -3.343  14.352  22.716  0.00  0.00    +0.000 C 
ATOM     19  C   UNL     1      -2.993  13.454  21.503  0.00  0.00    +0.000 C 
ATOM     20  C   UNL     1      -1.952  13.983  20.452  0.00  0.00    +0.000 C 
ATOM     21  C   UNL     1      -0.039  12.365  21.057  0.00  0.00    +0.000 C 
ATOM     22  O   UNL     1      -0.135  12.695  22.240  0.00  0.00    +0.000 OA
ATOM     23  C   UNL     1       0.974  11.306  20.667  0.00  0.00    +0.000 C 
ENDROOT
BRANCH  18  24
ATOM     24  C   UNL     1      -4.744  14.132  23.345  0.00  0.00    +0.000 A 
ATOM     25  C   UNL     1      -5.214  12.858  23.740  0.00  0.00    +0.000 A 
ATOM     26  C   UNL     1      -6.538  12.634  24.157  0.00  0.00    +0.000 A 
ATOM     27  C   UNL     1      -7.430  13.704  24.202  0.00  0.00    +0.000 A 
ATOM     28  C   UNL     1      -6.990  14.976  23.846  0.00  0.00    +0.000 A 
ATOM     29  C   UNL     1      -5.666  15.188  23.419  0.00  0.00    +0.000 A 
ENDBRANCH  18  24
TORSDOF 1
ENDMDL
MODEL 6
REMARK VINA RESULT:      -6.8      2.078      6.915
REMARK  Name = 
REMARK  3 active torsions:
REMARK  status: ('A' for Active; 'I' for Inactive)
REMARK    1  A    between atoms: C_1  and  C_2
REMARK    2  A    between atoms: C_2  and  C_3
REMARK    3  A    between atoms: C_18  and  C_19
REMARK                            x       y       z     vdW  Elec       q    Type
REMARK                         _______ _______ _______ _____ _____    ______ ____
ROOT
ATOM      1  C   UNL     1      -0.335   8.729  21.120  0.00  0.00    +0.000 C 
ATOM      2  C   UNL     1       0.595   9.538  20.198  0.00  0.00    +0.000 C 
ATOM      3  C   UNL     1       1.844   8.685  19.899  0.00  0.00    +0.000 C 
ATOM      4  C   UNL     1      -0.159   9.847  18.888  0.00  0.00    +0.000 C 
ATOM      5  C   UNL     1      -1.258  10.904  19.082  0.00  0.00    +0.000 C 
ATOM      6  O   UNL     1      -2.377  10.738  18.600  0.00  0.00    +0.000 OA
ATOM      7  C   UNL     1      -0.833  12.202  19.770  0.00  0.00    +0.000 C 
ATOM      8  C   UNL     1       0.107  12.853  18.739  0.00  0.00    +0.000 C 
ATOM      9  C   UNL     1       0.600  14.193  19.177  0.00  0.00    +0.000 A 
ATOM     10  C   UNL     1       1.855  14.627  18.703  0.00  0.00    +0.000 A 
ATOM     11  C   UNL     1       2.358  15.867  19.065  0.00  0.00    +0.000 A 
ATOM     12  C   UNL     1       1.593  16.681  19.885  0.00  0.00    +0.000 A 
ATOM     13  C   UNL     1       0.344  16.244  20.347  0.00  0.00    +0.000 A 
ATOM     14  C   UNL     1      -0.195  14.986  20.015  0.00  0.00    +0.000 A 
ATOM     15  N   UNL     1      -1.429  14.522  20.502  0.00  0.00    +0.000 N 
ATOM     16  C   UNL     1      -2.190  15.448  21.327  0.00  0.00    +0.000 C 
ATOM     17  C   UNL     1      -3.592  15.036  21.679  0.00  0.00    +0.000 C 
ATOM     18  C   UNL     1      -3.765  13.568  22.035  0.00  0.00    +0.000 C 
ATOM     19  C   UNL     1      -3.147  12.650  20.951  0.00  0.00    +0.000 C 
ATOM     20  C   UNL     1      -1.993  13.221  20.052  0.00  0.00    +0.000 C 
ATOM     21  C   UNL     1      -0.082  11.810  21.054  0.00  0.00    +0.000 C 
ATOM     22  O   UNL     1      -0.399  12.185  22.183  0.00  0.00    +0.000 OA
ATOM     23  C   UNL     1       1.063  10.829  20.897  0.00  0.00    +0.000 C 
ENDROOT
BRANCH  18  24
ATOM     24  C   UNL     1      -5.229  13.253  22.442  0.00  0.00    +0.000 A 
ATOM     25  C   UNL     1      -5.648  13.171  23.790  0.00  0.00    +0.000 A 
ATOM     26  C   UNL     1      -6.930  12.729  24.159  0.00  0.00    +0.000 A 
ATOM     27  C   UNL     1      -7.840  12.367  23.168  0.00  0.00    +0.000 A 
ATOM     28  C   UNL     1      -7.467  12.463  21.830  0.00  0.00    +0.000 A 
ATOM     29  C   UNL     1      -6.178  12.897  21.470  0.00  0.00    +0.000 A 
ENDBRANCH  18  24
TORSDOF 1
ENDMDL
MODEL 7
REMARK VINA RESULT:      -6.8      1.166      1.442
REMARK  Name = 
REMARK  3 active torsions:
REMARK  status: ('A' for Active; 'I' for Inactive)
REMARK    1  A    between atoms: C_1  and  C_2
REMARK    2  A    between atoms: C_2  and  C_3
REMARK    3  A    between atoms: C_18  and  C_19
REMARK                            x       y       z     vdW  Elec       q    Type
REMARK                         _______ _______ _______ _____ _____    ______ ____
ROOT
ATOM      1  C   UNL     1       2.815  16.210  19.559  0.00  0.00    +0.000 C 
ATOM      2  C   UNL     1       1.569  16.916  20.124  0.00  0.00    +0.000 C 
ATOM      3  C   UNL     1       1.858  18.428  20.194  0.00  0.00    +0.000 C 
ATOM      4  C   UNL     1       0.381  16.649  19.175  0.00  0.00    +0.000 C 
ATOM      5  C   UNL     1      -0.122  15.199  19.263  0.00  0.00    +0.000 C 
ATOM      6  O   UNL     1      -0.362  14.558  18.242  0.00  0.00    +0.000 OA
ATOM      7  C   UNL     1      -0.434  14.676  20.666  0.00  0.00    +0.000 C 
ATOM      8  C   UNL     1      -1.663  15.504  21.084  0.00  0.00    +0.000 C 
ATOM      9  C   UNL     1      -2.195  15.109  22.421  0.00  0.00    +0.000 A 
ATOM     10  C   UNL     1      -2.864  16.087  23.186  0.00  0.00    +0.000 A 
ATOM     11  C   UNL     1      -3.390  15.774  24.430  0.00  0.00    +0.000 A 
ATOM     12  C   UNL     1      -3.265  14.476  24.898  0.00  0.00    +0.000 A 
ATOM     13  C   UNL     1      -2.604  13.509  24.129  0.00  0.00    +0.000 A 
ATOM     14  C   UNL     1      -2.042  13.790  22.868  0.00  0.00    +0.000 A 
ATOM     15  N   UNL     1      -1.344  12.839  22.104  0.00  0.00    +0.000 N 
ATOM     16  C   UNL     1      -1.287  11.489  22.645  0.00  0.00    +0.000 C 
ATOM     17  C   UNL     1      -0.722  10.429  21.742  0.00  0.00    +0.000 C 
ATOM     18  C   UNL     1       0.495  10.848  20.932  0.00  0.00    +0.000 C 
ATOM     19  C   UNL     1       0.236  12.175  20.175  0.00  0.00    +0.000 C 
ATOM     20  C   UNL     1      -0.845  13.164  20.740  0.00  0.00    +0.000 C 
ATOM     21  C   UNL     1       0.787  14.989  21.549  0.00  0.00    +0.000 C 
ATOM     22  O   UNL     1       1.421  14.142  22.178  0.00  0.00    +0.000 OA
ATOM     23  C   UNL     1       1.269  16.427  21.554  0.00  0.00    +0.000 C 
ENDROOT
BRANCH  18  24
ATOM     24  C   UNL     1       1.041   9.672  20.080  0.00  0.00    +0.000 A 
ATOM     25  C   UNL     1       1.432   8.435  20.643  0.00  0.00    +0.000 A 
ATOM     26  C   UNL     1       2.074   7.432  19.897  0.00  0.00    +0.000 A 
ATOM     27  C   UNL     1       2.329   7.644  18.544  0.00  0.00    +0.000 A 
ATOM     28  C   UNL     1       1.931   8.840  17.953  0.00  0.00    +0.000 A 
ATOM     29  C   UNL     1       1.298   9.844  18.710  0.00  0.00    +0.000 A 
ENDBRANCH  18  24
TORSDOF 1
ENDMDL
MODEL 8
REMARK VINA RESULT:      -6.8      1.766      2.563
REMARK  Name = 
REMARK  3 active torsions:
REMARK  status: ('A' for Active; 'I' for Inactive)
REMARK    1  A    between atoms: C_1  and  C_2
REMARK    2  A    between atoms: C_2  and  C_3
REMARK    3  A    between atoms: C_18  and  C_19
REMARK                            x       y       z     vdW  Elec       q    Type
REMARK                         _______ _______ _______ _____ _____    ______ ____
ROOT
ATOM      1  C   UNL     1       4.728  14.992  20.965  0.00  0.00    +0.000 C 
ATOM      2  C   UNL     1       3.657  16.076  20.744  0.00  0.00    +0.000 C 
ATOM      3  C   UNL     1       4.246  17.434  21.175  0.00  0.00    +0.000 C 
ATOM      4  C   UNL     1       3.293  16.110  19.245  0.00  0.00    +0.000 C 
ATOM      5  C   UNL     1       2.466  14.886  18.817  0.00  0.00    +0.000 C 
ATOM      6  O   UNL     1       2.742  14.276  17.787  0.00  0.00    +0.000 OA
ATOM      7  C   UNL     1       1.226  14.581  19.659  0.00  0.00    +0.000 C 
ATOM      8  C   UNL     1       0.293  15.766  19.351  0.00  0.00    +0.000 C 
ATOM      9  C   UNL     1      -1.034  15.643  20.025  0.00  0.00    +0.000 A 
ATOM     10  C   UNL     1      -1.728  16.827  20.347  0.00  0.00    +0.000 A 
ATOM     11  C   UNL     1      -2.969  16.774  20.962  0.00  0.00    +0.000 A 
ATOM     12  C   UNL     1      -3.525  15.535  21.233  0.00  0.00    +0.000 A 
ATOM     13  C   UNL     1      -2.831  14.362  20.904  0.00  0.00    +0.000 A 
ATOM     14  C   UNL     1      -1.562  14.373  20.293  0.00  0.00    +0.000 A 
ATOM     15  N   UNL     1      -0.840  13.205  19.992  0.00  0.00    +0.000 N 
ATOM     16  C   UNL     1      -1.505  11.942  20.272  0.00  0.00    +0.000 C 
ATOM     17  C   UNL     1      -0.826  10.700  19.767  0.00  0.00    +0.000 C 
ATOM     18  C   UNL     1       0.686  10.679  19.926  0.00  0.00    +0.000 C 
ATOM     19  C   UNL     1       1.330  11.965  19.350  0.00  0.00    +0.000 C 
ATOM     20  C   UNL     1       0.459  13.269  19.269  0.00  0.00    +0.000 C 
ATOM     21  C   UNL     1       1.668  14.576  21.133  0.00  0.00    +0.000 C 
ATOM     22  O   UNL     1       1.512  13.625  21.899  0.00  0.00    +0.000 OA
ATOM     23  C   UNL     1       2.418  15.801  21.619  0.00  0.00    +0.000 C 
ENDROOT
BRANCH  18  24
ATOM     24  C   UNL     1       1.288   9.336  19.433  0.00  0.00    +0.000 A 
ATOM     25  C   UNL     1       1.512   8.236  20.293  0.00  0.00    +0.000 A 
ATOM     26  C   UNL     1       2.204   7.083  19.884  0.00  0.00    +0.000 A 
ATOM     27  C   UNL     1       2.680   6.999  18.577  0.00  0.00    +0.000 A 
ATOM     28  C   UNL     1       2.451   8.054  17.697  0.00  0.00    +0.000 A 
ATOM     29  C   UNL     1       1.767   9.209  18.119  0.00  0.00    +0.000 A 
ENDBRANCH  18  24
TORSDOF 1
ENDMDL
MODEL 9
REMARK VINA RESULT:      -6.8      3.587      7.013
REMARK  Name = 
REMARK  3 active torsions:
REMARK  status: ('A' for Active; 'I' for Inactive)
REMARK    1  A    between atoms: C_1  and  C_2
REMARK    2  A    between atoms: C_2  and  C_3
REMARK    3  A    between atoms: C_18  and  C_19
REMARK                            x       y       z     vdW  Elec       q    Type
REMARK                         _______ _______ _______ _____ _____    ______ ____
ROOT
ATOM      1  C   UNL     1       0.904  11.315  20.500  0.00  0.00    +0.000 C 
ATOM      2  C   UNL     1      -0.117  12.424  20.184  0.00  0.00    +0.000 C 
ATOM      3  C   UNL     1      -1.515  11.782  20.085  0.00  0.00    +0.000 C 
ATOM      4  C   UNL     1      -0.090  13.457  21.331  0.00  0.00    +0.000 C 
ATOM      5  C   UNL     1       1.185  14.315  21.314  0.00  0.00    +0.000 C 
ATOM      6  O   UNL     1       1.809  14.526  22.352  0.00  0.00    +0.000 OA
ATOM      7  C   UNL     1       1.531  14.986  19.984  0.00  0.00    +0.000 C 
ATOM      8  C   UNL     1       0.405  16.022  19.811  0.00  0.00    +0.000 C 
ATOM      9  C   UNL     1       0.577  16.860  18.588  0.00  0.00    +0.000 A 
ATOM     10  C   UNL     1      -0.579  17.385  17.974  0.00  0.00    +0.000 A 
ATOM     11  C   UNL     1      -0.479  18.181  16.843  0.00  0.00    +0.000 A 
ATOM     12  C   UNL     1       0.779  18.468  16.340  0.00  0.00    +0.000 A 
ATOM     13  C   UNL     1       1.923  17.947  16.960  0.00  0.00    +0.000 A 
ATOM     14  C   UNL     1       1.864  17.122  18.101  0.00  0.00    +0.000 A 
ATOM     15  N   UNL     1       3.001  16.563  18.710  0.00  0.00    +0.000 N 
ATOM     16  C   UNL     1       4.289  16.940  18.147  0.00  0.00    +0.000 C 
ATOM     17  C   UNL     1       5.508  16.511  18.915  0.00  0.00    +0.000 C 
ATOM     18  C   UNL     1       5.447  15.106  19.493  0.00  0.00    +0.000 C 
ATOM     19  C   UNL     1       4.145  14.889  20.305  0.00  0.00    +0.000 C 
ATOM     20  C   UNL     1       2.891  15.769  19.963  0.00  0.00    +0.000 C 
ATOM     21  C   UNL     1       1.472  13.899  18.898  0.00  0.00    +0.000 C 
ATOM     22  O   UNL     1       2.408  13.616  18.150  0.00  0.00    +0.000 OA
ATOM     23  C   UNL     1       0.197  13.080  18.826  0.00  0.00    +0.000 C 
ENDROOT
BRANCH  18  24
ATOM     24  C   UNL     1       6.770  14.733  20.214  0.00  0.00    +0.000 A 
ATOM     25  C   UNL     1       7.965  14.443  19.516  0.00  0.00    +0.000 A 
ATOM     26  C   UNL     1       9.115  13.950  20.156  0.00  0.00    +0.000 A 
ATOM     27  C   UNL     1       9.096  13.748  21.534  0.00  0.00    +0.000 A 
ATOM     28  C   UNL     1       7.943  14.050  22.254  0.00  0.00    +0.000 A 
ATOM     29  C   UNL     1       6.793  14.533  21.604  0.00  0.00    +0.000 A 
ENDBRANCH  18  24
TORSDOF 1
ENDMDL
