MODEL 1
REMARK VINA RESULT:      -7.7      0.000      0.000
REMARK  Name = 
REMARK  5 active torsions:
REMARK  status: ('A' for Active; 'I' for Inactive)
REMARK    1  A    between atoms: C_1  and  O_2
REMARK    2  A    between atoms: O_2  and  C_3
REMARK    3  A    between atoms: C_3  and  C_4
REMARK    4  A    between atoms: C_8  and  C_10
REMARK    5  A    between atoms: C_12  and  C_13
REMARK                            x       y       z     vdW  Elec       q    Type
REMARK                         _______ _______ _______ _____ _____    ______ ____
ROOT
ATOM      1  C   UNL     1       3.056   3.586  19.001  0.00  0.00    +0.000 C 
ATOM      2  C   UNL     1       4.429   3.629  19.694  0.00  0.00    +0.000 C 
ATOM      3  C   UNL     1       5.311   4.765  19.174  0.00  0.00    +0.000 C 
ATOM      4  N   UNL     1       5.410   4.733  17.718  0.00  0.00    +0.000 N 
ATOM      5  C   UNL     1       6.666   4.534  17.123  0.00  0.00    +0.000 C 
ATOM      6  O   UNL     1       7.654   4.242  17.800  0.00  0.00    +0.000 OA
ATOM      7  C   UNL     1       4.128   4.744  17.008  0.00  0.00    +0.000 C 
ATOM      8  C   UNL     1       3.251   3.586  17.475  0.00  0.00    +0.000 C 
ENDROOT
BRANCH   5   9
ATOM      9  C   UNL     1       6.801   4.655  15.665  0.00  0.00    +0.000 A 
ATOM     10  C   UNL     1       6.332   3.728  14.693  0.00  0.00    +0.000 A 
ATOM     11  C   UNL     1       6.690   4.277  13.488  0.00  0.00    +0.000 A 
ATOM     12  O   UNL     1       7.365   5.435  13.712  0.00  0.00    +0.000 OA
ATOM     13  N   UNL     1       7.478   5.651  15.067  0.00  0.00    +0.000 NA
BRANCH  11  14
ATOM     14  C   UNL     1       6.412   3.699  12.117  0.00  0.00    +0.000 C 
ATOM     15  C   UNL     1       5.832   2.303  12.028  0.00  0.00    +0.000 C 
ATOM     16  C   UNL     1       4.958   3.476  11.753  0.00  0.00    +0.000 C 
ENDBRANCH  11  14
ENDBRANCH   5   9
BRANCH   1  17
ATOM     17  C   UNL     1       2.136   4.726  19.467  0.00  0.00    +0.000 C 
BRANCH  17  19
ATOM     18  C   UNL     1       1.107   3.050  20.776  0.00  0.00    +0.000 C 
ATOM     19  O   UNL     1       1.597   4.384  20.743  0.00  0.00    +0.000 OA
ENDBRANCH  17  19
ENDBRANCH   1  17
TORSDOF 4
ENDMDL
MODEL 2
REMARK VINA RESULT:      -7.5      1.505      1.893
REMARK  Name = 
REMARK  5 active torsions:
REMARK  status: ('A' for Active; 'I' for Inactive)
REMARK    1  A    between atoms: C_1  and  O_2
REMARK    2  A    between atoms: O_2  and  C_3
REMARK    3  A    between atoms: C_3  and  C_4
REMARK    4  A    between atoms: C_8  and  C_10
REMARK    5  A    between atoms: C_12  and  C_13
REMARK                            x       y       z     vdW  Elec       q    Type
REMARK                         _______ _______ _______ _____ _____    ______ ____
ROOT
ATOM      1  C   UNL     1       3.588   5.139  18.850  0.00  0.00    +0.000 C 
ATOM      2  C   UNL     1       4.971   4.775  19.418  0.00  0.00    +0.000 C 
ATOM      3  C   UNL     1       6.105   5.524  18.718  0.00  0.00    +0.000 C 
ATOM      4  N   UNL     1       6.027   5.368  17.269  0.00  0.00    +0.000 N 
ATOM      5  C   UNL     1       7.080   4.731  16.592  0.00  0.00    +0.000 C 
ATOM      6  O   UNL     1       7.992   4.176  17.209  0.00  0.00    +0.000 OA
ATOM      7  C   UNL     1       4.745   5.752  16.670  0.00  0.00    +0.000 C 
ATOM      8  C   UNL     1       3.602   4.976  17.321  0.00  0.00    +0.000 C 
ENDROOT
BRANCH   5   9
ATOM      9  C   UNL     1       7.083   4.706  15.123  0.00  0.00    +0.000 A 
ATOM     10  C   UNL     1       6.372   3.799  14.291  0.00  0.00    +0.000 A 
ATOM     11  C   UNL     1       6.691   4.176  13.012  0.00  0.00    +0.000 A 
ATOM     12  O   UNL     1       7.566   5.214  13.061  0.00  0.00    +0.000 OA
ATOM     13  N   UNL     1       7.852   5.517  14.374  0.00  0.00    +0.000 NA
BRANCH  11  14
ATOM     14  C   UNL     1       6.182   3.545  11.733  0.00  0.00    +0.000 C 
ATOM     15  C   UNL     1       5.626   2.137  11.797  0.00  0.00    +0.000 C 
ATOM     16  C   UNL     1       4.692   3.287  11.646  0.00  0.00    +0.000 C 
ENDBRANCH  11  14
ENDBRANCH   5   9
BRANCH   1  17
ATOM     17  C   UNL     1       3.137   6.545  19.279  0.00  0.00    +0.000 C 
BRANCH  17  19
ATOM     18  C   UNL     1       2.289   8.379  18.056  0.00  0.00    +0.000 C 
ATOM     19  O   UNL     1       2.138   7.001  18.367  0.00  0.00    +0.000 OA
ENDBRANCH  17  19
ENDBRANCH   1  17
TORSDOF 4
ENDMDL
MODEL 3
REMARK VINA RESULT:      -7.1      1.566      1.861
REMARK  Name = 
REMARK  5 active torsions:
REMARK  status: ('A' for Active; 'I' for Inactive)
REMARK    1  A    between atoms: C_1  and  O_2
REMARK    2  A    between atoms: O_2  and  C_3
REMARK    3  A    between atoms: C_3  and  C_4
REMARK    4  A    between atoms: C_8  and  C_10
REMARK    5  A    between atoms: C_12  and  C_13
REMARK                            x       y       z     vdW  Elec       q    Type
REMARK                         _______ _______ _______ _____ _____    ______ ____
ROOT
ATOM      1  C   UNL     1       2.808   4.098  19.809  0.00  0.00    +0.000 C 
ATOM      2  C   UNL     1       2.925   5.632  19.776  0.00  0.00    +0.000 C 
ATOM      3  C   UNL     1       2.886   6.190  18.353  0.00  0.00    +0.000 C 
ATOM      4  N   UNL     1       3.863   5.526  17.496  0.00  0.00    +0.000 N 
ATOM      5  C   UNL     1       4.900   6.284  16.928  0.00  0.00    +0.000 C 
ATOM      6  O   UNL     1       5.083   7.459  17.252  0.00  0.00    +0.000 OA
ATOM      7  C   UNL     1       3.760   4.064  17.452  0.00  0.00    +0.000 C 
ATOM      8  C   UNL     1       3.850   3.482  18.860  0.00  0.00    +0.000 C 
ENDROOT
BRANCH   5   9
ATOM      9  C   UNL     1       5.796   5.659  15.945  0.00  0.00    +0.000 A 
ATOM     10  C   UNL     1       5.429   4.712  14.949  0.00  0.00    +0.000 A 
ATOM     11  C   UNL     1       6.597   4.433  14.287  0.00  0.00    +0.000 A 
ATOM     12  O   UNL     1       7.611   5.131  14.864  0.00  0.00    +0.000 OA
ATOM     13  N   UNL     1       7.125   5.859  15.928  0.00  0.00    +0.000 NA
BRANCH  11  14
ATOM     14  C   UNL     1       6.765   3.491  13.114  0.00  0.00    +0.000 C 
ATOM     15  C   UNL     1       5.644   3.398  12.099  0.00  0.00    +0.000 C 
ATOM     16  C   UNL     1       6.895   4.124  11.744  0.00  0.00    +0.000 C 
ENDBRANCH  11  14
ENDBRANCH   5   9
BRANCH   1  17
ATOM     17  C   UNL     1       1.382   3.619  19.492  0.00  0.00    +0.000 C 
BRANCH  17  19
ATOM     18  C   UNL     1       1.595   2.729  21.670  0.00  0.00    +0.000 C 
ATOM     19  O   UNL     1       1.059   2.539  20.368  0.00  0.00    +0.000 OA
ENDBRANCH  17  19
ENDBRANCH   1  17
TORSDOF 4
ENDMDL
MODEL 4
REMARK VINA RESULT:      -6.7      3.680      5.374
REMARK  Name = 
REMARK  5 active torsions:
REMARK  status: ('A' for Active; 'I' for Inactive)
REMARK    1  A    between atoms: C_1  and  O_2
REMARK    2  A    between atoms: O_2  and  C_3
REMARK    3  A    between atoms: C_3  and  C_4
REMARK    4  A    between atoms: C_8  and  C_10
REMARK    5  A    between atoms: C_12  and  C_13
REMARK                            x       y       z     vdW  Elec       q    Type
REMARK                         _______ _______ _______ _____ _____    ______ ____
ROOT
ATOM      1  C   UNL     1       3.055   4.558  18.147  0.00  0.00    +0.000 C 
ATOM      2  C   UNL     1       3.787   4.147  16.858  0.00  0.00    +0.000 C 
ATOM      3  C   UNL     1       5.293   3.990  17.066  0.00  0.00    +0.000 C 
ATOM      4  N   UNL     1       5.868   5.177  17.693  0.00  0.00    +0.000 N 
ATOM      5  C   UNL     1       6.832   5.920  16.994  0.00  0.00    +0.000 C 
ATOM      6  O   UNL     1       7.095   5.676  15.814  0.00  0.00    +0.000 OA
ATOM      7  C   UNL     1       5.239   5.579  18.954  0.00  0.00    +0.000 C 
ATOM      8  C   UNL     1       3.740   5.792  18.757  0.00  0.00    +0.000 C 
ENDROOT
BRANCH   5   9
ATOM      9  C   UNL     1       7.527   7.022  17.674  0.00  0.00    +0.000 A 
ATOM     10  C   UNL     1       7.517   8.392  17.291  0.00  0.00    +0.000 A 
ATOM     11  C   UNL     1       8.299   9.020  18.226  0.00  0.00    +0.000 A 
ATOM     12  O   UNL     1       8.784   8.093  19.093  0.00  0.00    +0.000 OA
ATOM     13  N   UNL     1       8.345   6.840  18.725  0.00  0.00    +0.000 NA
BRANCH  11  14
ATOM     14  C   UNL     1       8.607  10.500  18.294  0.00  0.00    +0.000 C 
ATOM     15  C   UNL     1       9.472  11.004  19.431  0.00  0.00    +0.000 C 
ATOM     16  C   UNL     1      10.047  10.909  18.061  0.00  0.00    +0.000 C 
ENDBRANCH  11  14
ENDBRANCH   5   9
BRANCH   1  17
ATOM     17  C   UNL     1       2.955   3.397  19.151  0.00  0.00    +0.000 C 
BRANCH  17  19
ATOM     18  C   UNL     1       0.877   2.364  18.709  0.00  0.00    +0.000 C 
ATOM     19  O   UNL     1       2.284   2.306  18.521  0.00  0.00    +0.000 OA
ENDBRANCH  17  19
ENDBRANCH   1  17
TORSDOF 4
ENDMDL
MODEL 5
REMARK VINA RESULT:      -6.6      1.647      6.611
REMARK  Name = 
REMARK  5 active torsions:
REMARK  status: ('A' for Active; 'I' for Inactive)
REMARK    1  A    between atoms: C_1  and  O_2
REMARK    2  A    between atoms: O_2  and  C_3
REMARK    3  A    between atoms: C_3  and  C_4
REMARK    4  A    between atoms: C_8  and  C_10
REMARK    5  A    between atoms: C_12  and  C_13
REMARK                            x       y       z     vdW  Elec       q    Type
REMARK                         _______ _______ _______ _____ _____    ______ ____
ROOT
ATOM      1  C   UNL     1       6.118   5.452  14.958  0.00  0.00    +0.000 C 
ATOM      2  C   UNL     1       7.088   5.998  16.020  0.00  0.00    +0.000 C 
ATOM      3  C   UNL     1       7.466   4.944  17.063  0.00  0.00    +0.000 C 
ATOM      4  N   UNL     1       6.279   4.323  17.642  0.00  0.00    +0.000 N 
ATOM      5  C   UNL     1       6.035   4.466  19.017  0.00  0.00    +0.000 C 
ATOM      6  O   UNL     1       6.719   5.221  19.712  0.00  0.00    +0.000 OA
ATOM      7  C   UNL     1       5.347   3.740  16.672  0.00  0.00    +0.000 C 
ATOM      8  C   UNL     1       4.916   4.790  15.651  0.00  0.00    +0.000 C 
ENDROOT
BRANCH   5   9
ATOM      9  C   UNL     1       4.931   3.720  19.636  0.00  0.00    +0.000 A 
ATOM     10  C   UNL     1       3.597   4.177  19.816  0.00  0.00    +0.000 A 
ATOM     11  C   UNL     1       2.950   3.134  20.429  0.00  0.00    +0.000 A 
ATOM     12  O   UNL     1       3.838   2.128  20.643  0.00  0.00    +0.000 OA
ATOM     13  N   UNL     1       5.084   2.506  20.195  0.00  0.00    +0.000 NA
BRANCH  11  14
ATOM     14  C   UNL     1       1.492   3.090  20.831  0.00  0.00    +0.000 C 
ATOM     15  C   UNL     1       0.568   4.170  20.308  0.00  0.00    +0.000 C 
ATOM     16  C   UNL     1       0.490   2.799  19.733  0.00  0.00    +0.000 C 
ENDBRANCH  11  14
ENDBRANCH   5   9
BRANCH   1  17
ATOM     17  C   UNL     1       6.815   4.498  13.973  0.00  0.00    +0.000 C 
BRANCH  17  19
ATOM     18  C   UNL     1       6.328   3.221  12.046  0.00  0.00    +0.000 C 
ATOM     19  O   UNL     1       5.816   3.783  13.247  0.00  0.00    +0.000 OA
ENDBRANCH  17  19
ENDBRANCH   1  17
TORSDOF 4
ENDMDL
MODEL 6
REMARK VINA RESULT:      -6.6      1.395      6.694
REMARK  Name = 
REMARK  5 active torsions:
REMARK  status: ('A' for Active; 'I' for Inactive)
REMARK    1  A    between atoms: C_1  and  O_2
REMARK    2  A    between atoms: O_2  and  C_3
REMARK    3  A    between atoms: C_3  and  C_4
REMARK    4  A    between atoms: C_8  and  C_10
REMARK    5  A    between atoms: C_12  and  C_13
REMARK                            x       y       z     vdW  Elec       q    Type
REMARK                         _______ _______ _______ _____ _____    ______ ____
ROOT
ATOM      1  C   UNL     1       6.396   5.070  14.606  0.00  0.00    +0.000 C 
ATOM      2  C   UNL     1       7.470   5.275  15.688  0.00  0.00    +0.000 C 
ATOM      3  C   UNL     1       7.215   4.423  16.932  0.00  0.00    +0.000 C 
ATOM      4  N   UNL     1       5.858   4.613  17.434  0.00  0.00    +0.000 N 
ATOM      5  C   UNL     1       5.673   5.147  18.720  0.00  0.00    +0.000 C 
ATOM      6  O   UNL     1       6.623   5.590  19.370  0.00  0.00    +0.000 OA
ATOM      7  C   UNL     1       4.794   4.378  16.454  0.00  0.00    +0.000 C 
ATOM      8  C   UNL     1       5.001   5.258  15.224  0.00  0.00    +0.000 C 
ENDROOT
BRANCH   5   9
ATOM      9  C   UNL     1       4.322   5.198  19.294  0.00  0.00    +0.000 A 
ATOM     10  C   UNL     1       3.520   4.085  19.668  0.00  0.00    +0.000 A 
ATOM     11  C   UNL     1       2.359   4.638  20.147  0.00  0.00    +0.000 A 
ATOM     12  O   UNL     1       2.434   5.990  20.035  0.00  0.00    +0.000 OA
ATOM     13  N   UNL     1       3.635   6.342  19.460  0.00  0.00    +0.000 NA
BRANCH  11  14
ATOM     14  C   UNL     1       1.166   3.888  20.698  0.00  0.00    +0.000 C 
ATOM     15  C   UNL     1       0.964   2.447  20.278  0.00  0.00    +0.000 C 
ATOM     16  C   UNL     1       1.457   2.747  21.650  0.00  0.00    +0.000 C 
ENDBRANCH  11  14
ENDBRANCH   5   9
BRANCH   1  17
ATOM     17  C   UNL     1       6.538   3.712  13.898  0.00  0.00    +0.000 C 
BRANCH  17  19
ATOM     18  C   UNL     1       5.633   2.859  11.890  0.00  0.00    +0.000 C 
ATOM     19  O   UNL     1       6.374   3.910  12.495  0.00  0.00    +0.000 OA
ENDBRANCH  17  19
ENDBRANCH   1  17
TORSDOF 4
ENDMDL
MODEL 7
REMARK VINA RESULT:      -6.5      1.384      1.676
REMARK  Name = 
REMARK  5 active torsions:
REMARK  status: ('A' for Active; 'I' for Inactive)
REMARK    1  A    between atoms: C_1  and  O_2
REMARK    2  A    between atoms: O_2  and  C_3
REMARK    3  A    between atoms: C_3  and  C_4
REMARK    4  A    between atoms: C_8  and  C_10
REMARK    5  A    between atoms: C_12  and  C_13
REMARK                            x       y       z     vdW  Elec       q    Type
REMARK                         _______ _______ _______ _____ _____    ______ ____
ROOT
ATOM      1  C   UNL     1       2.700   5.366  19.223  0.00  0.00    +0.000 C 
ATOM      2  C   UNL     1       4.001   5.028  19.972  0.00  0.00    +0.000 C 
ATOM      3  C   UNL     1       5.221   5.723  19.367  0.00  0.00    +0.000 C 
ATOM      4  N   UNL     1       5.311   5.480  17.931  0.00  0.00    +0.000 N 
ATOM      5  C   UNL     1       6.427   4.794  17.423  0.00  0.00    +0.000 C 
ATOM      6  O   UNL     1       7.252   4.271  18.175  0.00  0.00    +0.000 OA
ATOM      7  C   UNL     1       4.115   5.836  17.163  0.00  0.00    +0.000 C 
ATOM      8  C   UNL     1       2.891   5.111  17.719  0.00  0.00    +0.000 C 
ENDROOT
BRANCH   5   9
ATOM      9  C   UNL     1       6.603   4.680  15.968  0.00  0.00    +0.000 A 
ATOM     10  C   UNL     1       6.099   3.644  15.135  0.00  0.00    +0.000 A 
ATOM     11  C   UNL     1       6.519   3.978  13.872  0.00  0.00    +0.000 A 
ATOM     12  O   UNL     1       7.260   5.115  13.939  0.00  0.00    +0.000 OA
ATOM     13  N   UNL     1       7.356   5.530  15.248  0.00  0.00    +0.000 NA
BRANCH  11  14
ATOM     14  C   UNL     1       6.236   3.213  12.598  0.00  0.00    +0.000 C 
ATOM     15  C   UNL     1       4.930   3.472  11.877  0.00  0.00    +0.000 C 
ATOM     16  C   UNL     1       6.196   4.016  11.314  0.00  0.00    +0.000 C 
ENDBRANCH  11  14
ENDBRANCH   5   9
BRANCH   1  17
ATOM     17  C   UNL     1       2.223   6.799  19.511  0.00  0.00    +0.000 C 
BRANCH  17  19
ATOM     18  C   UNL     1       1.190   8.135  21.163  0.00  0.00    +0.000 C 
ATOM     19  O   UNL     1       1.652   6.836  20.819  0.00  0.00    +0.000 OA
ENDBRANCH  17  19
ENDBRANCH   1  17
TORSDOF 4
ENDMDL
MODEL 8
REMARK VINA RESULT:      -6.4      1.981      6.737
REMARK  Name = 
REMARK  5 active torsions:
REMARK  status: ('A' for Active; 'I' for Inactive)
REMARK    1  A    between atoms: C_1  and  O_2
REMARK    2  A    between atoms: O_2  and  C_3
REMARK    3  A    between atoms: C_3  and  C_4
REMARK    4  A    between atoms: C_8  and  C_10
REMARK    5  A    between atoms: C_12  and  C_13
REMARK                            x       y       z     vdW  Elec       q    Type
REMARK                         _______ _______ _______ _____ _____    ______ ____
ROOT
ATOM      1  C   UNL     1       6.143   5.678  15.114  0.00  0.00    +0.000 C 
ATOM      2  C   UNL     1       7.040   6.222  16.239  0.00  0.00    +0.000 C 
ATOM      3  C   UNL     1       7.433   5.141  17.247  0.00  0.00    +0.000 C 
ATOM      4  N   UNL     1       6.260   4.432  17.747  0.00  0.00    +0.000 N 
ATOM      5  C   UNL     1       5.954   4.496  19.117  0.00  0.00    +0.000 C 
ATOM      6  O   UNL     1       6.569   5.251  19.873  0.00  0.00    +0.000 OA
ATOM      7  C   UNL     1       5.399   3.848  16.714  0.00  0.00    +0.000 C 
ATOM      8  C   UNL     1       4.952   4.921  15.725  0.00  0.00    +0.000 C 
ENDROOT
BRANCH   5   9
ATOM      9  C   UNL     1       4.870   3.663  19.654  0.00  0.00    +0.000 A 
ATOM     10  C   UNL     1       3.493   4.011  19.724  0.00  0.00    +0.000 A 
ATOM     11  C   UNL     1       2.887   2.920  20.294  0.00  0.00    +0.000 A 
ATOM     12  O   UNL     1       3.834   1.991  20.587  0.00  0.00    +0.000 OA
ATOM     13  N   UNL     1       5.077   2.468  20.235  0.00  0.00    +0.000 NA
BRANCH  11  14
ATOM     14  C   UNL     1       1.410   2.759  20.581  0.00  0.00    +0.000 C 
ATOM     15  C   UNL     1       0.471   3.876  20.175  0.00  0.00    +0.000 C 
ATOM     16  C   UNL     1       0.494   2.615  19.384  0.00  0.00    +0.000 C 
ENDBRANCH  11  14
ENDBRANCH   5   9
BRANCH   1  17
ATOM     17  C   UNL     1       6.929   4.810  14.116  0.00  0.00    +0.000 C 
BRANCH  17  19
ATOM     18  C   UNL     1       8.200   5.798  12.387  0.00  0.00    +0.000 C 
ATOM     19  O   UNL     1       8.136   5.490  13.773  0.00  0.00    +0.000 OA
ENDBRANCH  17  19
ENDBRANCH   1  17
TORSDOF 4
ENDMDL
MODEL 9
REMARK VINA RESULT:      -6.4      2.147      7.043
REMARK  Name = 
REMARK  5 active torsions:
REMARK  status: ('A' for Active; 'I' for Inactive)
REMARK    1  A    between atoms: C_1  and  O_2
REMARK    2  A    between atoms: O_2  and  C_3
REMARK    3  A    between atoms: C_3  and  C_4
REMARK    4  A    between atoms: C_8  and  C_10
REMARK    5  A    between atoms: C_12  and  C_13
REMARK                            x       y       z     vdW  Elec       q    Type
REMARK                         _______ _______ _______ _____ _____    ______ ____
ROOT
ATOM      1  C   UNL     1       5.643   5.019  15.126  0.00  0.00    +0.000 C 
ATOM      2  C   UNL     1       5.269   6.511  15.086  0.00  0.00    +0.000 C 
ATOM      3  C   UNL     1       5.273   7.152  16.474  0.00  0.00    +0.000 C 
ATOM      4  N   UNL     1       4.458   6.386  17.413  0.00  0.00    +0.000 N 
ATOM      5  C   UNL     1       3.332   6.992  17.994  0.00  0.00    +0.000 C 
ATOM      6  O   UNL     1       2.939   8.099  17.619  0.00  0.00    +0.000 OA
ATOM      7  C   UNL     1       4.810   4.967  17.527  0.00  0.00    +0.000 C 
ATOM      8  C   UNL     1       4.762   4.295  16.157  0.00  0.00    +0.000 C 
ENDROOT
BRANCH   5   9
ATOM      9  C   UNL     1       2.598   6.286  19.052  0.00  0.00    +0.000 A 
ATOM     10  C   UNL     1       2.182   4.926  19.030  0.00  0.00    +0.000 A 
ATOM     11  C   UNL     1       1.544   4.738  20.229  0.00  0.00    +0.000 A 
ATOM     12  O   UNL     1       1.537   5.910  20.916  0.00  0.00    +0.000 OA
ATOM     13  N   UNL     1       2.150   6.890  20.167  0.00  0.00    +0.000 NA
BRANCH  11  14
ATOM     14  C   UNL     1       0.922   3.450  20.726  0.00  0.00    +0.000 C 
ATOM     15  C   UNL     1       1.519   2.137  20.263  0.00  0.00    +0.000 C 
ATOM     16  C   UNL     1       1.762   2.601  21.657  0.00  0.00    +0.000 C 
ENDBRANCH  11  14
ENDBRANCH   5   9
BRANCH   1  17
ATOM     17  C   UNL     1       7.142   4.805  15.394  0.00  0.00    +0.000 C 
BRANCH  17  19
ATOM     18  C   UNL     1       7.637   5.011  13.093  0.00  0.00    +0.000 C 
ATOM     19  O   UNL     1       7.888   5.508  14.401  0.00  0.00    +0.000 OA
ENDBRANCH  17  19
ENDBRANCH   1  17
TORSDOF 4
ENDMDL
