MODEL 1
REMARK VINA RESULT:      -7.8      0.000      0.000
REMARK  Name = 
REMARK  6 active torsions:
REMARK  status: ('A' for Active; 'I' for Inactive)
REMARK    1  A    between atoms: C_2  and  C_3
REMARK    2  A    between atoms: C_2  and  C_10
REMARK    3  A    between atoms: C_3  and  N_4
REMARK    4  A    between atoms: N_19  and  C_20
REMARK    5  A    between atoms: C_20  and  C_21
REMARK    6  A    between atoms: C_21  and  N_22
REMARK                            x       y       z     vdW  Elec       q    Type
REMARK                         _______ _______ _______ _____ _____    ______ ____
ROOT
ATOM      1  C   UNL     1       2.543   7.419  18.805  0.00  0.00    +0.000 A 
ATOM      2  C   UNL     1       2.276   8.294  17.732  0.00  0.00    +0.000 A 
ATOM      3  C   UNL     1       1.404   9.383  17.892  0.00  0.00    +0.000 A 
ATOM      4  C   UNL     1       0.817   9.568  19.126  0.00  0.00    +0.000 A 
ATOM      5  C   UNL     1       1.060   8.696  20.167  0.00  0.00    +0.000 A 
ATOM      6  C   UNL     1       1.916   7.620  20.045  0.00  0.00    +0.000 A 
ATOM      7  O   UNL     1       0.422   9.049  21.341  0.00  0.00    +0.000 OA
ATOM      8  C   UNL     1      -0.186  10.257  20.993  0.00  0.00    +0.000 A 
ATOM      9  O   UNL     1      -0.772  10.959  21.808  0.00  0.00    +0.000 OA
ATOM     10  N   UNL     1      -0.011  10.544  19.642  0.00  0.00    +0.000 N 
ENDROOT
BRANCH   1  12
ATOM     11  O   UNL     1       4.304   6.279  17.769  0.00  0.00    +0.000 OA
ATOM     12  C   UNL     1       3.504   6.280  18.706  0.00  0.00    +0.000 C 
BRANCH  12  13
ATOM     13  C   UNL     1       3.534   5.204  19.782  0.00  0.00    +0.000 C 
BRANCH  13  14
ATOM     14  N   UNL     1       3.172   3.866  19.261  0.00  0.00    +0.000 NA
ATOM     15  C   UNL     1       1.718   3.816  18.951  0.00  0.00    +0.000 C 
ATOM     16  C   UNL     1       0.811   3.834  20.198  0.00  0.00    +0.000 C 
ATOM     17  O   UNL     1       1.143   2.785  21.115  0.00  0.00    +0.000 OA
ATOM     18  C   UNL     1       2.530   2.830  21.482  0.00  0.00    +0.000 C 
ATOM     19  C   UNL     1       3.429   2.770  20.234  0.00  0.00    +0.000 C 
ENDBRANCH  13  14
ENDBRANCH  12  13
ENDBRANCH   1  12
BRANCH  10  20
ATOM     20  C   UNL     1      -0.293  11.855  19.091  0.00  0.00    +0.000 C 
BRANCH  20  21
ATOM     21  C   UNL     1      -1.459  11.941  18.089  0.00  0.00    +0.000 C 
BRANCH  21  22
ATOM     22  N   UNL     1      -2.291  10.721  18.059  0.00  0.00    +0.000 NA
ATOM     23  C   UNL     1      -2.140   9.933  16.814  0.00  0.00    +0.000 C 
ATOM     24  C   UNL     1      -2.760  10.612  15.583  0.00  0.00    +0.000 C 
ATOM     25  O   UNL     1      -4.157  10.849  15.788  0.00  0.00    +0.000 OA
ATOM     26  C   UNL     1      -4.380  11.653  16.953  0.00  0.00    +0.000 C 
ATOM     27  C   UNL     1      -3.731  11.044  18.210  0.00  0.00    +0.000 C 
ENDBRANCH  21  22
ENDBRANCH  20  21
ENDBRANCH  10  20
TORSDOF 6
ENDMDL
MODEL 2
REMARK VINA RESULT:      -7.6      1.802      2.947
REMARK  Name = 
REMARK  6 active torsions:
REMARK  status: ('A' for Active; 'I' for Inactive)
REMARK    1  A    between atoms: C_2  and  C_3
REMARK    2  A    between atoms: C_2  and  C_10
REMARK    3  A    between atoms: C_3  and  N_4
REMARK    4  A    between atoms: N_19  and  C_20
REMARK    5  A    between atoms: C_20  and  C_21
REMARK    6  A    between atoms: C_21  and  N_22
REMARK                            x       y       z     vdW  Elec       q    Type
REMARK                         _______ _______ _______ _____ _____    ______ ____
ROOT
ATOM      1  C   UNL     1       2.445   7.357  18.973  0.00  0.00    +0.000 A 
ATOM      2  C   UNL     1       2.193   8.145  17.832  0.00  0.00    +0.000 A 
ATOM      3  C   UNL     1       1.376   9.285  17.912  0.00  0.00    +0.000 A 
ATOM      4  C   UNL     1       0.828   9.605  19.136  0.00  0.00    +0.000 A 
ATOM      5  C   UNL     1       1.056   8.818  20.245  0.00  0.00    +0.000 A 
ATOM      6  C   UNL     1       1.859   7.696  20.203  0.00  0.00    +0.000 A 
ATOM      7  O   UNL     1       0.463   9.304  21.396  0.00  0.00    +0.000 OA
ATOM      8  C   UNL     1      -0.098  10.504  20.952  0.00  0.00    +0.000 A 
ATOM      9  O   UNL     1      -0.631  11.302  21.713  0.00  0.00    +0.000 OA
ATOM     10  N   UNL     1       0.057  10.661  19.578  0.00  0.00    +0.000 N 
ENDROOT
BRANCH   1  12
ATOM     11  O   UNL     1       3.141   5.271  19.774  0.00  0.00    +0.000 OA
ATOM     12  C   UNL     1       3.351   6.170  18.958  0.00  0.00    +0.000 C 
BRANCH  12  13
ATOM     13  C   UNL     1       4.447   6.053  17.907  0.00  0.00    +0.000 C 
BRANCH  13  14
ATOM     14  N   UNL     1       4.958   4.669  17.767  0.00  0.00    +0.000 NA
ATOM     15  C   UNL     1       6.338   4.578  18.313  0.00  0.00    +0.000 C 
ATOM     16  C   UNL     1       7.398   5.306  17.461  0.00  0.00    +0.000 C 
ATOM     17  O   UNL     1       7.389   4.858  16.101  0.00  0.00    +0.000 OA
ATOM     18  C   UNL     1       6.083   4.980  15.519  0.00  0.00    +0.000 C 
ATOM     19  C   UNL     1       5.039   4.216  16.352  0.00  0.00    +0.000 C 
ENDBRANCH  13  14
ENDBRANCH  12  13
ENDBRANCH   1  12
BRANCH  10  20
ATOM     20  C   UNL     1      -0.177  11.930  18.918  0.00  0.00    +0.000 C 
BRANCH  20  21
ATOM     21  C   UNL     1      -1.431  12.018  18.029  0.00  0.00    +0.000 C 
BRANCH  21  22
ATOM     22  N   UNL     1      -2.250  10.789  18.054  0.00  0.00    +0.000 NA
ATOM     23  C   UNL     1      -2.133   9.976  16.821  0.00  0.00    +0.000 C 
ATOM     24  C   UNL     1      -2.804  10.621  15.599  0.00  0.00    +0.000 C 
ATOM     25  O   UNL     1      -4.195  10.848  15.847  0.00  0.00    +0.000 OA
ATOM     26  C   UNL     1      -4.387  11.674  17.003  0.00  0.00    +0.000 C 
ATOM     27  C   UNL     1      -3.686  11.099  18.248  0.00  0.00    +0.000 C 
ENDBRANCH  21  22
ENDBRANCH  20  21
ENDBRANCH  10  20
TORSDOF 6
ENDMDL
MODEL 3
REMARK VINA RESULT:      -7.5      0.767      1.093
REMARK  Name = 
REMARK  6 active torsions:
REMARK  status: ('A' for Active; 'I' for Inactive)
REMARK    1  A    between atoms: C_2  and  C_3
REMARK    2  A    between atoms: C_2  and  C_10
REMARK    3  A    between atoms: C_3  and  N_4
REMARK    4  A    between atoms: N_19  and  C_20
REMARK    5  A    between atoms: C_20  and  C_21
REMARK    6  A    between atoms: C_21  and  N_22
REMARK                            x       y       z     vdW  Elec       q    Type
REMARK                         _______ _______ _______ _____ _____    ______ ____
ROOT
ATOM      1  C   UNL     1       2.434   7.549  18.798  0.00  0.00    +0.000 A 
ATOM      2  C   UNL     1       2.078   8.372  17.710  0.00  0.00    +0.000 A 
ATOM      3  C   UNL     1       1.219   9.468  17.888  0.00  0.00    +0.000 A 
ATOM      4  C   UNL     1       0.733   9.713  19.155  0.00  0.00    +0.000 A 
ATOM      5  C   UNL     1       1.063   8.891  20.214  0.00  0.00    +0.000 A 
ATOM      6  C   UNL     1       1.910   7.811  20.074  0.00  0.00    +0.000 A 
ATOM      7  O   UNL     1       0.521   9.301  21.418  0.00  0.00    +0.000 OA
ATOM      8  C   UNL     1      -0.117  10.492  21.062  0.00  0.00    +0.000 A 
ATOM      9  O   UNL     1      -0.637  11.233  21.887  0.00  0.00    +0.000 OA
ATOM     10  N   UNL     1      -0.054  10.713  19.689  0.00  0.00    +0.000 N 
ENDROOT
BRANCH   1  12
ATOM     11  O   UNL     1       4.463   6.610  18.111  0.00  0.00    +0.000 OA
ATOM     12  C   UNL     1       3.388   6.407  18.676  0.00  0.00    +0.000 C 
BRANCH  12  13
ATOM     13  C   UNL     1       3.059   5.060  19.307  0.00  0.00    +0.000 C 
BRANCH  13  14
ATOM     14  N   UNL     1       1.752   4.526  18.862  0.00  0.00    +0.000 NA
ATOM     15  C   UNL     1       1.052   3.876  20.002  0.00  0.00    +0.000 C 
ATOM     16  C   UNL     1       1.700   2.555  20.464  0.00  0.00    +0.000 C 
ATOM     17  O   UNL     1       1.832   1.620  19.387  0.00  0.00    +0.000 OA
ATOM     18  C   UNL     1       2.551   2.193  18.284  0.00  0.00    +0.000 C 
ATOM     19  C   UNL     1       1.874   3.488  17.802  0.00  0.00    +0.000 C 
ENDBRANCH  13  14
ENDBRANCH  12  13
ENDBRANCH   1  12
BRANCH  10  20
ATOM     20  C   UNL     1      -0.383  11.996  19.101  0.00  0.00    +0.000 C 
BRANCH  20  21
ATOM     21  C   UNL     1      -1.472  11.991  18.012  0.00  0.00    +0.000 C 
BRANCH  21  22
ATOM     22  N   UNL     1      -2.315  10.778  18.037  0.00  0.00    +0.000 NA
ATOM     23  C   UNL     1      -2.188   9.943  16.820  0.00  0.00    +0.000 C 
ATOM     24  C   UNL     1      -2.819  10.583  15.574  0.00  0.00    +0.000 C 
ATOM     25  O   UNL     1      -4.210  10.840  15.788  0.00  0.00    +0.000 OA
ATOM     26  C   UNL     1      -4.411  11.687  16.927  0.00  0.00    +0.000 C 
ATOM     27  C   UNL     1      -3.749  11.118  18.196  0.00  0.00    +0.000 C 
ENDBRANCH  21  22
ENDBRANCH  20  21
ENDBRANCH  10  20
TORSDOF 6
ENDMDL
MODEL 4
REMARK VINA RESULT:      -7.5      1.980      3.037
REMARK  Name = 
REMARK  6 active torsions:
REMARK  status: ('A' for Active; 'I' for Inactive)
REMARK    1  A    between atoms: C_2  and  C_3
REMARK    2  A    between atoms: C_2  and  C_10
REMARK    3  A    between atoms: C_3  and  N_4
REMARK    4  A    between atoms: N_19  and  C_20
REMARK    5  A    between atoms: C_20  and  C_21
REMARK    6  A    between atoms: C_21  and  N_22
REMARK                            x       y       z     vdW  Elec       q    Type
REMARK                         _______ _______ _______ _____ _____    ______ ____
ROOT
ATOM      1  C   UNL     1       2.784   7.117  18.825  0.00  0.00    +0.000 A 
ATOM      2  C   UNL     1       2.582   7.951  17.707  0.00  0.00    +0.000 A 
ATOM      3  C   UNL     1       1.744   9.076  17.790  0.00  0.00    +0.000 A 
ATOM      4  C   UNL     1       1.126   9.335  18.995  0.00  0.00    +0.000 A 
ATOM      5  C   UNL     1       1.305   8.503  20.081  0.00  0.00    +0.000 A 
ATOM      6  C   UNL     1       2.127   7.395  20.034  0.00  0.00    +0.000 A 
ATOM      7  O   UNL     1       0.643   8.930  21.217  0.00  0.00    +0.000 OA
ATOM      8  C   UNL     1       0.089  10.141  20.795  0.00  0.00    +0.000 A 
ATOM      9  O   UNL     1      -0.497  10.898  21.559  0.00  0.00    +0.000 OA
ATOM     10  N   UNL     1       0.316  10.360  19.440  0.00  0.00    +0.000 N 
ENDROOT
BRANCH   1  12
ATOM     11  O   UNL     1       3.971   5.400  19.881  0.00  0.00    +0.000 OA
ATOM     12  C   UNL     1       3.708   5.944  18.808  0.00  0.00    +0.000 C 
BRANCH  12  13
ATOM     13  C   UNL     1       4.237   5.401  17.487  0.00  0.00    +0.000 C 
BRANCH  13  14
ATOM     14  N   UNL     1       5.296   6.255  16.902  0.00  0.00    +0.000 NA
ATOM     15  C   UNL     1       5.689   5.736  15.565  0.00  0.00    +0.000 C 
ATOM     16  C   UNL     1       6.463   4.403  15.613  0.00  0.00    +0.000 C 
ATOM     17  O   UNL     1       7.620   4.488  16.454  0.00  0.00    +0.000 OA
ATOM     18  C   UNL     1       7.275   4.936  17.773  0.00  0.00    +0.000 C 
ATOM     19  C   UNL     1       6.539   6.286  17.719  0.00  0.00    +0.000 C 
ENDBRANCH  13  14
ENDBRANCH  12  13
ENDBRANCH   1  12
BRANCH  10  20
ATOM     20  C   UNL     1       0.098  11.654  18.823  0.00  0.00    +0.000 C 
BRANCH  20  21
ATOM     21  C   UNL     1      -1.257  11.858  18.121  0.00  0.00    +0.000 C 
BRANCH  21  22
ATOM     22  N   UNL     1      -2.101  10.646  18.120  0.00  0.00    +0.000 NA
ATOM     23  C   UNL     1      -2.000   9.856  16.870  0.00  0.00    +0.000 C 
ATOM     24  C   UNL     1      -2.658  10.542  15.662  0.00  0.00    +0.000 C 
ATOM     25  O   UNL     1      -4.044  10.791  15.916  0.00  0.00    +0.000 OA
ATOM     26  C   UNL     1      -4.219  11.596  17.089  0.00  0.00    +0.000 C 
ATOM     27  C   UNL     1      -3.531  10.980  18.322  0.00  0.00    +0.000 C 
ENDBRANCH  21  22
ENDBRANCH  20  21
ENDBRANCH  10  20
TORSDOF 6
ENDMDL
MODEL 5
REMARK VINA RESULT:      -7.4      2.617      3.233
REMARK  Name = 
REMARK  6 active torsions:
REMARK  status: ('A' for Active; 'I' for Inactive)
REMARK    1  A    between atoms: C_2  and  C_3
REMARK    2  A    between atoms: C_2  and  C_10
REMARK    3  A    between atoms: C_3  and  N_4
REMARK    4  A    between atoms: N_19  and  C_20
REMARK    5  A    between atoms: C_20  and  C_21
REMARK    6  A    between atoms: C_21  and  N_22
REMARK                            x       y       z     vdW  Elec       q    Type
REMARK                         _______ _______ _______ _____ _____    ______ ____
ROOT
ATOM      1  C   UNL     1       2.282   7.740  18.675  0.00  0.00    +0.000 A 
ATOM      2  C   UNL     1       1.838   8.901  18.010  0.00  0.00    +0.000 A 
ATOM      3  C   UNL     1       1.124   9.896  18.698  0.00  0.00    +0.000 A 
ATOM      4  C   UNL     1       0.869   9.700  20.039  0.00  0.00    +0.000 A 
ATOM      5  C   UNL     1       1.282   8.551  20.682  0.00  0.00    +0.000 A 
ATOM      6  C   UNL     1       1.991   7.558  20.036  0.00  0.00    +0.000 A 
ATOM      7  O   UNL     1       0.977   8.534  22.030  0.00  0.00    +0.000 OA
ATOM      8  C   UNL     1       0.406   9.795  22.217  0.00  0.00    +0.000 A 
ATOM      9  O   UNL     1       0.094  10.220  23.323  0.00  0.00    +0.000 OA
ATOM     10  N   UNL     1       0.273  10.478  21.011  0.00  0.00    +0.000 N 
ENDROOT
BRANCH   1  12
ATOM     11  O   UNL     1       4.185   6.999  17.533  0.00  0.00    +0.000 OA
ATOM     12  C   UNL     1       3.093   6.679  18.006  0.00  0.00    +0.000 C 
BRANCH  12  13
ATOM     13  C   UNL     1       2.607   5.237  17.987  0.00  0.00    +0.000 C 
BRANCH  13  14
ATOM     14  N   UNL     1       3.369   4.366  18.911  0.00  0.00    +0.000 NA
ATOM     15  C   UNL     1       3.803   3.130  18.205  0.00  0.00    +0.000 C 
ATOM     16  C   UNL     1       2.650   2.163  17.870  0.00  0.00    +0.000 C 
ATOM     17  O   UNL     1       1.893   1.810  19.033  0.00  0.00    +0.000 OA
ATOM     18  C   UNL     1       1.410   2.977  19.716  0.00  0.00    +0.000 C 
ATOM     19  C   UNL     1       2.571   3.917  20.084  0.00  0.00    +0.000 C 
ENDBRANCH  13  14
ENDBRANCH  12  13
ENDBRANCH   1  12
BRANCH  10  20
ATOM     20  C   UNL     1      -0.023  11.896  20.959  0.00  0.00    +0.000 C 
BRANCH  20  21
ATOM     21  C   UNL     1      -1.479  12.281  20.642  0.00  0.00    +0.000 C 
BRANCH  21  22
ATOM     22  N   UNL     1      -1.982  13.391  21.477  0.00  0.00    +0.000 NA
ATOM     23  C   UNL     1      -1.913  13.116  22.931  0.00  0.00    +0.000 C 
ATOM     24  C   UNL     1      -2.924  12.058  23.400  0.00  0.00    +0.000 C 
ATOM     25  O   UNL     1      -4.261  12.465  23.092  0.00  0.00    +0.000 OA
ATOM     26  C   UNL     1      -4.419  12.702  21.687  0.00  0.00    +0.000 C 
ATOM     27  C   UNL     1      -3.391  13.718  21.152  0.00  0.00    +0.000 C 
ENDBRANCH  21  22
ENDBRANCH  20  21
ENDBRANCH  10  20
TORSDOF 6
ENDMDL
MODEL 6
REMARK VINA RESULT:      -7.4      2.595      3.106
REMARK  Name = 
REMARK  6 active torsions:
REMARK  status: ('A' for Active; 'I' for Inactive)
REMARK    1  A    between atoms: C_2  and  C_3
REMARK    2  A    between atoms: C_2  and  C_10
REMARK    3  A    between atoms: C_3  and  N_4
REMARK    4  A    between atoms: N_19  and  C_20
REMARK    5  A    between atoms: C_20  and  C_21
REMARK    6  A    between atoms: C_21  and  N_22
REMARK                            x       y       z     vdW  Elec       q    Type
REMARK                         _______ _______ _______ _____ _____    ______ ____
ROOT
ATOM      1  C   UNL     1       2.518   7.565  18.542  0.00  0.00    +0.000 A 
ATOM      2  C   UNL     1       2.025   8.679  17.833  0.00  0.00    +0.000 A 
ATOM      3  C   UNL     1       1.266   9.667  18.482  0.00  0.00    +0.000 A 
ATOM      4  C   UNL     1       1.017   9.512  19.829  0.00  0.00    +0.000 A 
ATOM      5  C   UNL     1       1.479   8.409  20.516  0.00  0.00    +0.000 A 
ATOM      6  C   UNL     1       2.233   7.424  19.910  0.00  0.00    +0.000 A 
ATOM      7  O   UNL     1       1.172   8.431  21.864  0.00  0.00    +0.000 OA
ATOM      8  C   UNL     1       0.546   9.672  22.001  0.00  0.00    +0.000 A 
ATOM      9  O   UNL     1       0.213  10.125  23.090  0.00  0.00    +0.000 OA
ATOM     10  N   UNL     1       0.385  10.300  20.769  0.00  0.00    +0.000 N 
ENDROOT
BRANCH   1  12
ATOM     11  O   UNL     1       4.080   6.842  16.958  0.00  0.00    +0.000 OA
ATOM     12  C   UNL     1       3.377   6.516  17.915  0.00  0.00    +0.000 C 
BRANCH  12  13
ATOM     13  C   UNL     1       3.429   5.113  18.503  0.00  0.00    +0.000 C 
BRANCH  13  14
ATOM     14  N   UNL     1       2.822   4.098  17.611  0.00  0.00    +0.000 NA
ATOM     15  C   UNL     1       1.386   3.916  17.949  0.00  0.00    +0.000 C 
ATOM     16  C   UNL     1       1.144   3.214  19.300  0.00  0.00    +0.000 C 
ATOM     17  O   UNL     1       1.818   1.952  19.374  0.00  0.00    +0.000 OA
ATOM     18  C   UNL     1       3.221   2.092  19.106  0.00  0.00    +0.000 C 
ATOM     19  C   UNL     1       3.453   2.756  17.738  0.00  0.00    +0.000 C 
ENDBRANCH  13  14
ENDBRANCH  12  13
ENDBRANCH   1  12
BRANCH  10  20
ATOM     20  C   UNL     1       0.027  11.701  20.662  0.00  0.00    +0.000 C 
BRANCH  20  21
ATOM     21  C   UNL     1      -1.473  12.015  20.513  0.00  0.00    +0.000 C 
BRANCH  21  22
ATOM     22  N   UNL     1      -1.902  13.190  21.298  0.00  0.00    +0.000 NA
ATOM     23  C   UNL     1      -1.779  13.000  22.763  0.00  0.00    +0.000 C 
ATOM     24  C   UNL     1      -2.803  12.009  23.337  0.00  0.00    +0.000 C 
ATOM     25  O   UNL     1      -4.137  12.444  23.060  0.00  0.00    +0.000 OA
ATOM     26  C   UNL     1      -4.348  12.603  21.650  0.00  0.00    +0.000 C 
ATOM     27  C   UNL     1      -3.312  13.547  21.012  0.00  0.00    +0.000 C 
ENDBRANCH  21  22
ENDBRANCH  20  21
ENDBRANCH  10  20
TORSDOF 6
ENDMDL
MODEL 7
REMARK VINA RESULT:      -7.2      2.823      3.405
REMARK  Name = 
REMARK  6 active torsions:
REMARK  status: ('A' for Active; 'I' for Inactive)
REMARK    1  A    between atoms: C_2  and  C_3
REMARK    2  A    between atoms: C_2  and  C_10
REMARK    3  A    between atoms: C_3  and  N_4
REMARK    4  A    between atoms: N_19  and  C_20
REMARK    5  A    between atoms: C_20  and  C_21
REMARK    6  A    between atoms: C_21  and  N_22
REMARK                            x       y       z     vdW  Elec       q    Type
REMARK                         _______ _______ _______ _____ _____    ______ ____
ROOT
ATOM      1  C   UNL     1       2.504   7.519  18.570  0.00  0.00    +0.000 A 
ATOM      2  C   UNL     1       1.934   8.573  17.828  0.00  0.00    +0.000 A 
ATOM      3  C   UNL     1       1.143   9.549  18.455  0.00  0.00    +0.000 A 
ATOM      4  C   UNL     1       0.939   9.443  19.815  0.00  0.00    +0.000 A 
ATOM      5  C   UNL     1       1.477   8.396  20.535  0.00  0.00    +0.000 A 
ATOM      6  C   UNL     1       2.265   7.425  19.950  0.00  0.00    +0.000 A 
ATOM      7  O   UNL     1       1.207   8.463  21.889  0.00  0.00    +0.000 OA
ATOM      8  C   UNL     1       0.520   9.675  21.991  0.00  0.00    +0.000 A 
ATOM      9  O   UNL     1       0.194  10.159  23.068  0.00  0.00    +0.000 OA
ATOM     10  N   UNL     1       0.293  10.239  20.739  0.00  0.00    +0.000 N 
ENDROOT
BRANCH   1  12
ATOM     11  O   UNL     1       4.148   6.839  17.051  0.00  0.00    +0.000 OA
ATOM     12  C   UNL     1       3.399   6.488  17.964  0.00  0.00    +0.000 C 
BRANCH  12  13
ATOM     13  C   UNL     1       3.429   5.072  18.522  0.00  0.00    +0.000 C 
BRANCH  13  14
ATOM     14  N   UNL     1       2.803   4.086  17.612  0.00  0.00    +0.000 NA
ATOM     15  C   UNL     1       1.369   3.908  17.963  0.00  0.00    +0.000 C 
ATOM     16  C   UNL     1       1.138   3.172  19.299  0.00  0.00    +0.000 C 
ATOM     17  O   UNL     1       1.801   1.903  19.331  0.00  0.00    +0.000 OA
ATOM     18  C   UNL     1       3.202   2.039  19.048  0.00  0.00    +0.000 C 
ATOM     19  C   UNL     1       3.423   2.736  17.695  0.00  0.00    +0.000 C 
ENDBRANCH  13  14
ENDBRANCH  12  13
ENDBRANCH   1  12
BRANCH  10  20
ATOM     20  C   UNL     1      -0.141  11.613  20.581  0.00  0.00    +0.000 C 
BRANCH  20  21
ATOM     21  C   UNL     1       0.955  12.644  20.256  0.00  0.00    +0.000 C 
BRANCH  21  22
ATOM     22  N   UNL     1       0.885  13.149  18.869  0.00  0.00    +0.000 NA
ATOM     23  C   UNL     1       2.193  13.150  18.173  0.00  0.00    +0.000 C 
ATOM     24  C   UNL     1       3.168  14.209  18.708  0.00  0.00    +0.000 C 
ATOM     25  O   UNL     1       2.605  15.520  18.589  0.00  0.00    +0.000 OA
ATOM     26  C   UNL     1       1.355  15.611  19.284  0.00  0.00    +0.000 C 
ATOM     27  C   UNL     1       0.356  14.533  18.823  0.00  0.00    +0.000 C 
ENDBRANCH  21  22
ENDBRANCH  20  21
ENDBRANCH  10  20
TORSDOF 6
ENDMDL
MODEL 8
REMARK VINA RESULT:      -7.2      2.815      3.658
REMARK  Name = 
REMARK  6 active torsions:
REMARK  status: ('A' for Active; 'I' for Inactive)
REMARK    1  A    between atoms: C_2  and  C_3
REMARK    2  A    between atoms: C_2  and  C_10
REMARK    3  A    between atoms: C_3  and  N_4
REMARK    4  A    between atoms: N_19  and  C_20
REMARK    5  A    between atoms: C_20  and  C_21
REMARK    6  A    between atoms: C_21  and  N_22
REMARK                            x       y       z     vdW  Elec       q    Type
REMARK                         _______ _______ _______ _____ _____    ______ ____
ROOT
ATOM      1  C   UNL     1       2.337   7.641  18.608  0.00  0.00    +0.000 A 
ATOM      2  C   UNL     1       1.797   8.727  17.888  0.00  0.00    +0.000 A 
ATOM      3  C   UNL     1       1.038   9.714  18.537  0.00  0.00    +0.000 A 
ATOM      4  C   UNL     1       0.835   9.587  19.896  0.00  0.00    +0.000 A 
ATOM      5  C   UNL     1       1.343   8.511  20.593  0.00  0.00    +0.000 A 
ATOM      6  C   UNL     1       2.099   7.528  19.987  0.00  0.00    +0.000 A 
ATOM      7  O   UNL     1       1.079   8.560  21.949  0.00  0.00    +0.000 OA
ATOM      8  C   UNL     1       0.429   9.790  22.077  0.00  0.00    +0.000 A 
ATOM      9  O   UNL     1       0.121  10.262  23.165  0.00  0.00    +0.000 OA
ATOM     10  N   UNL     1       0.216  10.384  20.837  0.00  0.00    +0.000 N 
ENDROOT
BRANCH   1  12
ATOM     11  O   UNL     1       4.288   6.944  17.521  0.00  0.00    +0.000 OA
ATOM     12  C   UNL     1       3.198   6.596  17.979  0.00  0.00    +0.000 C 
BRANCH  12  13
ATOM     13  C   UNL     1       2.764   5.137  17.983  0.00  0.00    +0.000 C 
BRANCH  13  14
ATOM     14  N   UNL     1       3.347   4.371  19.109  0.00  0.00    +0.000 NA
ATOM     15  C   UNL     1       4.057   3.170  18.594  0.00  0.00    +0.000 C 
ATOM     16  C   UNL     1       3.120   2.081  18.032  0.00  0.00    +0.000 C 
ATOM     17  O   UNL     1       2.132   1.682  18.989  0.00  0.00    +0.000 OA
ATOM     18  C   UNL     1       1.387   2.810  19.472  0.00  0.00    +0.000 C 
ATOM     19  C   UNL     1       2.326   3.872  20.069  0.00  0.00    +0.000 C 
ENDBRANCH  13  14
ENDBRANCH  12  13
ENDBRANCH   1  12
BRANCH  10  20
ATOM     20  C   UNL     1      -0.176  11.773  20.708  0.00  0.00    +0.000 C 
BRANCH  20  21
ATOM     21  C   UNL     1       0.939  12.820  20.886  0.00  0.00    +0.000 C 
BRANCH  21  22
ATOM     22  N   UNL     1       0.896  13.895  19.874  0.00  0.00    +0.000 NA
ATOM     23  C   UNL     1       1.165  13.421  18.496  0.00  0.00    +0.000 C 
ATOM     24  C   UNL     1       2.628  13.009  18.268  0.00  0.00    +0.000 C 
ATOM     25  O   UNL     1       3.509  14.104  18.537  0.00  0.00    +0.000 OA
ATOM     26  C   UNL     1       3.340  14.587  19.877  0.00  0.00    +0.000 C 
ATOM     27  C   UNL     1       1.877  14.964  20.177  0.00  0.00    +0.000 C 
ENDBRANCH  21  22
ENDBRANCH  20  21
ENDBRANCH  10  20
TORSDOF 6
ENDMDL
MODEL 9
REMARK VINA RESULT:      -7.2      2.670      3.293
REMARK  Name = 
REMARK  6 active torsions:
REMARK  status: ('A' for Active; 'I' for Inactive)
REMARK    1  A    between atoms: C_2  and  C_3
REMARK    2  A    between atoms: C_2  and  C_10
REMARK    3  A    between atoms: C_3  and  N_4
REMARK    4  A    between atoms: N_19  and  C_20
REMARK    5  A    between atoms: C_20  and  C_21
REMARK    6  A    between atoms: C_21  and  N_22
REMARK                            x       y       z     vdW  Elec       q    Type
REMARK                         _______ _______ _______ _____ _____    ______ ____
ROOT
ATOM      1  C   UNL     1       2.330   7.490  19.121  0.00  0.00    +0.000 A 
ATOM      2  C   UNL     1       1.951   8.567  18.295  0.00  0.00    +0.000 A 
ATOM      3  C   UNL     1       1.192   9.633  18.806  0.00  0.00    +0.000 A 
ATOM      4  C   UNL     1       0.828   9.590  20.136  0.00  0.00    +0.000 A 
ATOM      5  C   UNL     1       1.180   8.523  20.936  0.00  0.00    +0.000 A 
ATOM      6  C   UNL     1       1.930   7.464  20.466  0.00  0.00    +0.000 A 
ATOM      7  O   UNL     1       0.767   8.659  22.248  0.00  0.00    +0.000 OA
ATOM      8  C   UNL     1       0.193   9.932  22.244  0.00  0.00    +0.000 A 
ATOM      9  O   UNL     1      -0.203  10.479  23.266  0.00  0.00    +0.000 OA
ATOM     10  N   UNL     1       0.163  10.473  20.962  0.00  0.00    +0.000 N 
ENDROOT
BRANCH   1  12
ATOM     11  O   UNL     1       3.642   6.426  17.502  0.00  0.00    +0.000 OA
ATOM     12  C   UNL     1       3.184   6.361  18.644  0.00  0.00    +0.000 C 
BRANCH  12  13
ATOM     13  C   UNL     1       3.532   5.212  19.580  0.00  0.00    +0.000 C 
BRANCH  13  14
ATOM     14  N   UNL     1       3.089   3.898  19.060  0.00  0.00    +0.000 NA
ATOM     15  C   UNL     1       1.610   3.883  18.906  0.00  0.00    +0.000 C 
ATOM     16  C   UNL     1       0.842   3.876  20.244  0.00  0.00    +0.000 C 
ATOM     17  O   UNL     1       1.248   2.793  21.087  0.00  0.00    +0.000 OA
ATOM     18  C   UNL     1       2.666   2.802  21.304  0.00  0.00    +0.000 C 
ATOM     19  C   UNL     1       3.425   2.766  19.966  0.00  0.00    +0.000 C 
ENDBRANCH  13  14
ENDBRANCH  12  13
ENDBRANCH   1  12
BRANCH  10  20
ATOM     20  C   UNL     1      -0.117  11.875  20.726  0.00  0.00    +0.000 C 
BRANCH  20  21
ATOM     21  C   UNL     1       1.083  12.836  20.808  0.00  0.00    +0.000 C 
BRANCH  21  22
ATOM     22  N   UNL     1       1.637  13.190  19.484  0.00  0.00    +0.000 NA
ATOM     23  C   UNL     1       2.658  14.263  19.538  0.00  0.00    +0.000 C 
ATOM     24  C   UNL     1       2.073  15.644  19.870  0.00  0.00    +0.000 C 
ATOM     25  O   UNL     1       1.088  16.021  18.903  0.00  0.00    +0.000 OA
ATOM     26  C   UNL     1       0.036  15.051  18.831  0.00  0.00    +0.000 C 
ATOM     27  C   UNL     1       0.573  13.634  18.553  0.00  0.00    +0.000 C 
ENDBRANCH  21  22
ENDBRANCH  20  21
ENDBRANCH  10  20
TORSDOF 6
ENDMDL
