MODEL 1
REMARK VINA RESULT:      -5.7      0.000      0.000
REMARK  Name = 
REMARK  2 active torsions:
REMARK  status: ('A' for Active; 'I' for Inactive)
REMARK    1  A    between atoms: C_1  and  N_2
REMARK    2  A    between atoms: C_3  and  C_4
REMARK                            x       y       z     vdW  Elec       q    Type
REMARK                         _______ _______ _______ _____ _____    ______ ____
ROOT
ATOM      1  C   UNL     1       4.282   6.310  17.727  0.00  0.00    +0.000 C 
ATOM      2  N   UNL     1       3.842   4.948  17.919  0.00  0.00    +0.000 N 
ATOM      3  C   UNL     1       4.303   3.846  17.231  0.00  0.00    +0.000 A 
ATOM      4  N   UNL     1       3.698   2.749  17.643  0.00  0.00    +0.000 NA
ATOM      5  C   UNL     1       2.826   3.148  18.622  0.00  0.00    +0.000 A 
ATOM      6  C   UNL     1       1.942   2.368  19.386  0.00  0.00    +0.000 A 
ATOM      7  C   UNL     1       1.134   2.993  20.340  0.00  0.00    +0.000 A 
ATOM      8  C   UNL     1       1.206   4.371  20.533  0.00  0.00    +0.000 A 
ATOM      9  C   UNL     1       2.082   5.164  19.780  0.00  0.00    +0.000 A 
ATOM     10 CL   UNL     1       2.119   6.857  20.072  0.00  0.00    +0.000 Cl
ATOM     11  C   UNL     1       2.888   4.527  18.824  0.00  0.00    +0.000 A 
ENDROOT
BRANCH   3  12
ATOM     12  C   UNL     1       5.299   3.866  16.206  0.00  0.00    +0.000 C 
ATOM     13  N   UNL     1       6.123   3.824  15.388  0.00  0.00    +0.000 NA
ENDBRANCH   3  12
TORSDOF 1
ENDMDL
MODEL 2
REMARK VINA RESULT:      -5.7      1.777      1.829
REMARK  Name = 
REMARK  2 active torsions:
REMARK  status: ('A' for Active; 'I' for Inactive)
REMARK    1  A    between atoms: C_1  and  N_2
REMARK    2  A    between atoms: C_3  and  C_4
REMARK                            x       y       z     vdW  Elec       q    Type
REMARK                         _______ _______ _______ _____ _____    ______ ____
ROOT
ATOM      1  C   UNL     1       5.107   6.914  17.360  0.00  0.00    +0.000 C 
ATOM      2  N   UNL     1       4.898   5.746  18.183  0.00  0.00    +0.000 N 
ATOM      3  C   UNL     1       5.740   4.659  18.272  0.00  0.00    +0.000 A 
ATOM      4  N   UNL     1       5.260   3.761  19.110  0.00  0.00    +0.000 NA
ATOM      5  C   UNL     1       4.079   4.278  19.576  0.00  0.00    +0.000 A 
ATOM      6  C   UNL     1       3.175   3.719  20.493  0.00  0.00    +0.000 A 
ATOM      7  C   UNL     1       2.018   4.430  20.828  0.00  0.00    +0.000 A 
ATOM      8  C   UNL     1       1.768   5.677  20.259  0.00  0.00    +0.000 A 
ATOM      9  C   UNL     1       2.660   6.249  19.343  0.00  0.00    +0.000 A 
ATOM     10 CL   UNL     1       2.288   7.792  18.684  0.00  0.00    +0.000 Cl
ATOM     11  C   UNL     1       3.817   5.527  19.013  0.00  0.00    +0.000 A 
ENDROOT
BRANCH   3  12
ATOM     12  C   UNL     1       6.971   4.504  17.562  0.00  0.00    +0.000 C 
ATOM     13  N   UNL     1       7.952   4.322  16.966  0.00  0.00    +0.000 NA
ENDBRANCH   3  12
TORSDOF 1
ENDMDL
MODEL 3
REMARK VINA RESULT:      -5.7      2.535      4.724
REMARK  Name = 
REMARK  2 active torsions:
REMARK  status: ('A' for Active; 'I' for Inactive)
REMARK    1  A    between atoms: C_1  and  N_2
REMARK    2  A    between atoms: C_3  and  C_4
REMARK                            x       y       z     vdW  Elec       q    Type
REMARK                         _______ _______ _______ _____ _____    ______ ____
ROOT
ATOM      1  C   UNL     1       4.189   2.725  19.468  0.00  0.00    +0.000 C 
ATOM      2  N   UNL     1       3.423   3.944  19.585  0.00  0.00    +0.000 N 
ATOM      3  C   UNL     1       2.403   4.174  20.482  0.00  0.00    +0.000 A 
ATOM      4  N   UNL     1       1.908   5.386  20.329  0.00  0.00    +0.000 NA
ATOM      5  C   UNL     1       2.626   5.957  19.310  0.00  0.00    +0.000 A 
ATOM      6  C   UNL     1       2.498   7.241  18.755  0.00  0.00    +0.000 A 
ATOM      7  C   UNL     1       3.345   7.616  17.708  0.00  0.00    +0.000 A 
ATOM      8  C   UNL     1       4.304   6.729  17.223  0.00  0.00    +0.000 A 
ATOM      9  C   UNL     1       4.444   5.445  17.766  0.00  0.00    +0.000 A 
ATOM     10 CL   UNL     1       5.651   4.405  17.120  0.00  0.00    +0.000 Cl
ATOM     11  C   UNL     1       3.589   5.078  18.815  0.00  0.00    +0.000 A 
ENDROOT
BRANCH   3  12
ATOM     12  C   UNL     1       1.928   3.239  21.454  0.00  0.00    +0.000 C 
ATOM     13  N   UNL     1       1.599   2.455  22.246  0.00  0.00    +0.000 NA
ENDBRANCH   3  12
TORSDOF 1
ENDMDL
MODEL 4
REMARK VINA RESULT:      -5.6      1.391      1.727
REMARK  Name = 
REMARK  2 active torsions:
REMARK  status: ('A' for Active; 'I' for Inactive)
REMARK    1  A    between atoms: C_1  and  N_2
REMARK    2  A    between atoms: C_3  and  C_4
REMARK                            x       y       z     vdW  Elec       q    Type
REMARK                         _______ _______ _______ _____ _____    ______ ____
ROOT
ATOM      1  C   UNL     1       5.098   7.020  17.297  0.00  0.00    +0.000 C 
ATOM      2  N   UNL     1       4.753   5.632  17.097  0.00  0.00    +0.000 N 
ATOM      3  C   UNL     1       5.464   4.722  16.344  0.00  0.00    +0.000 A 
ATOM      4  N   UNL     1       4.882   3.540  16.363  0.00  0.00    +0.000 NA
ATOM      5  C   UNL     1       3.768   3.684  17.149  0.00  0.00    +0.000 A 
ATOM      6  C   UNL     1       2.803   2.724  17.493  0.00  0.00    +0.000 A 
ATOM      7  C   UNL     1       1.735   3.097  18.316  0.00  0.00    +0.000 A 
ATOM      8  C   UNL     1       1.632   4.403  18.790  0.00  0.00    +0.000 A 
ATOM      9  C   UNL     1       2.586   5.373  18.456  0.00  0.00    +0.000 A 
ATOM     10 CL   UNL     1       2.397   6.964  19.078  0.00  0.00    +0.000 Cl
ATOM     11  C   UNL     1       3.653   4.989  17.628  0.00  0.00    +0.000 A 
ENDROOT
BRANCH   3  12
ATOM     12  C   UNL     1       6.670   5.002  15.629  0.00  0.00    +0.000 C 
ATOM     13  N   UNL     1       7.629   5.289  15.040  0.00  0.00    +0.000 NA
ENDBRANCH   3  12
TORSDOF 1
ENDMDL
MODEL 5
REMARK VINA RESULT:      -5.6      1.910      4.219
REMARK  Name = 
REMARK  2 active torsions:
REMARK  status: ('A' for Active; 'I' for Inactive)
REMARK    1  A    between atoms: C_1  and  N_2
REMARK    2  A    between atoms: C_3  and  C_4
REMARK                            x       y       z     vdW  Elec       q    Type
REMARK                         _______ _______ _______ _____ _____    ______ ____
ROOT
ATOM      1  C   UNL     1       2.040   5.997  20.216  0.00  0.00    +0.000 C 
ATOM      2  N   UNL     1       2.939   5.092  19.539  0.00  0.00    +0.000 N 
ATOM      3  C   UNL     1       3.194   3.786  19.900  0.00  0.00    +0.000 A 
ATOM      4  N   UNL     1       4.063   3.233  19.078  0.00  0.00    +0.000 NA
ATOM      5  C   UNL     1       4.379   4.202  18.161  0.00  0.00    +0.000 A 
ATOM      6  C   UNL     1       5.260   4.127  17.069  0.00  0.00    +0.000 A 
ATOM      7  C   UNL     1       5.432   5.252  16.257  0.00  0.00    +0.000 A 
ATOM      8  C   UNL     1       4.739   6.430  16.525  0.00  0.00    +0.000 A 
ATOM      9  C   UNL     1       3.857   6.521  17.610  0.00  0.00    +0.000 A 
ATOM     10 CL   UNL     1       3.033   8.005  17.880  0.00  0.00    +0.000 Cl
ATOM     11  C   UNL     1       3.691   5.387  18.420  0.00  0.00    +0.000 A 
ENDROOT
BRANCH   3  12
ATOM     12  C   UNL     1       2.607   3.105  21.012  0.00  0.00    +0.000 C 
ATOM     13  N   UNL     1       2.124   2.606  21.944  0.00  0.00    +0.000 NA
ENDBRANCH   3  12
TORSDOF 1
ENDMDL
MODEL 6
REMARK VINA RESULT:      -5.5      1.163      1.277
REMARK  Name = 
REMARK  2 active torsions:
REMARK  status: ('A' for Active; 'I' for Inactive)
REMARK    1  A    between atoms: C_1  and  N_2
REMARK    2  A    between atoms: C_3  and  C_4
REMARK                            x       y       z     vdW  Elec       q    Type
REMARK                         _______ _______ _______ _____ _____    ______ ____
ROOT
ATOM      1  C   UNL     1       3.648   6.857  18.352  0.00  0.00    +0.000 C 
ATOM      2  N   UNL     1       3.553   5.476  17.942  0.00  0.00    +0.000 N 
ATOM      3  C   UNL     1       4.243   4.892  16.902  0.00  0.00    +0.000 A 
ATOM      4  N   UNL     1       3.929   3.616  16.787  0.00  0.00    +0.000 NA
ATOM      5  C   UNL     1       3.015   3.366  17.778  0.00  0.00    +0.000 A 
ATOM      6  C   UNL     1       2.365   2.161  18.092  0.00  0.00    +0.000 A 
ATOM      7  C   UNL     1       1.458   2.136  19.156  0.00  0.00    +0.000 A 
ATOM      8  C   UNL     1       1.204   3.289  19.895  0.00  0.00    +0.000 A 
ATOM      9  C   UNL     1       1.844   4.498  19.595  0.00  0.00    +0.000 A 
ATOM     10 CL   UNL     1       1.485   5.880  20.551  0.00  0.00    +0.000 Cl
ATOM     11  C   UNL     1       2.752   4.514  18.525  0.00  0.00    +0.000 A 
ENDROOT
BRANCH   3  12
ATOM     12  C   UNL     1       5.176   5.559  16.049  0.00  0.00    +0.000 C 
ATOM     13  N   UNL     1       5.956   6.132  15.406  0.00  0.00    +0.000 NA
ENDBRANCH   3  12
TORSDOF 1
ENDMDL
MODEL 7
REMARK VINA RESULT:      -5.5      2.019      2.874
REMARK  Name = 
REMARK  2 active torsions:
REMARK  status: ('A' for Active; 'I' for Inactive)
REMARK    1  A    between atoms: C_1  and  N_2
REMARK    2  A    between atoms: C_3  and  C_4
REMARK                            x       y       z     vdW  Elec       q    Type
REMARK                         _______ _______ _______ _____ _____    ______ ____
ROOT
ATOM      1  C   UNL     1       4.658   3.829  16.652  0.00  0.00    +0.000 C 
ATOM      2  N   UNL     1       4.114   4.673  17.690  0.00  0.00    +0.000 N 
ATOM      3  C   UNL     1       4.537   5.947  18.000  0.00  0.00    +0.000 A 
ATOM      4  N   UNL     1       3.837   6.445  19.000  0.00  0.00    +0.000 NA
ATOM      5  C   UNL     1       2.935   5.472  19.345  0.00  0.00    +0.000 A 
ATOM      6  C   UNL     1       1.955   5.496  20.351  0.00  0.00    +0.000 A 
ATOM      7  C   UNL     1       1.136   4.377  20.530  0.00  0.00    +0.000 A 
ATOM      8  C   UNL     1       1.291   3.252  19.722  0.00  0.00    +0.000 A 
ATOM      9  C   UNL     1       2.264   3.212  18.715  0.00  0.00    +0.000 A 
ATOM     10 CL   UNL     1       2.396   1.793  17.754  0.00  0.00    +0.000 Cl
ATOM     11  C   UNL     1       3.081   4.340  18.543  0.00  0.00    +0.000 A 
ENDROOT
BRANCH   3  12
ATOM     12  C   UNL     1       5.593   6.652  17.342  0.00  0.00    +0.000 C 
ATOM     13  N   UNL     1       6.476   7.170  16.793  0.00  0.00    +0.000 NA
ENDBRANCH   3  12
TORSDOF 1
ENDMDL
MODEL 8
REMARK VINA RESULT:      -5.4      1.450      1.494
REMARK  Name = 
REMARK  2 active torsions:
REMARK  status: ('A' for Active; 'I' for Inactive)
REMARK    1  A    between atoms: C_1  and  N_2
REMARK    2  A    between atoms: C_3  and  C_4
REMARK                            x       y       z     vdW  Elec       q    Type
REMARK                         _______ _______ _______ _____ _____    ______ ____
ROOT
ATOM      1  C   UNL     1       3.032   7.170  18.151  0.00  0.00    +0.000 C 
ATOM      2  N   UNL     1       3.487   5.810  18.327  0.00  0.00    +0.000 N 
ATOM      3  C   UNL     1       4.376   5.144  17.511  0.00  0.00    +0.000 A 
ATOM      4  N   UNL     1       4.581   3.916  17.945  0.00  0.00    +0.000 NA
ATOM      5  C   UNL     1       3.808   3.783  19.070  0.00  0.00    +0.000 A 
ATOM      6  C   UNL     1       3.665   2.668  19.912  0.00  0.00    +0.000 A 
ATOM      7  C   UNL     1       2.810   2.756  21.016  0.00  0.00    +0.000 A 
ATOM      8  C   UNL     1       2.113   3.934  21.277  0.00  0.00    +0.000 A 
ATOM      9  C   UNL     1       2.245   5.054  20.447  0.00  0.00    +0.000 A 
ATOM     10 CL   UNL     1       1.356   6.474  20.831  0.00  0.00    +0.000 Cl
ATOM     11  C   UNL     1       3.104   4.956  19.341  0.00  0.00    +0.000 A 
ENDROOT
BRANCH   3  12
ATOM     12  C   UNL     1       5.001   5.690  16.347  0.00  0.00    +0.000 C 
ATOM     13  N   UNL     1       5.466   6.178  15.401  0.00  0.00    +0.000 NA
ENDBRANCH   3  12
TORSDOF 1
ENDMDL
MODEL 9
REMARK VINA RESULT:      -5.4      1.232      1.334
REMARK  Name = 
REMARK  2 active torsions:
REMARK  status: ('A' for Active; 'I' for Inactive)
REMARK    1  A    between atoms: C_1  and  N_2
REMARK    2  A    between atoms: C_3  and  C_4
REMARK                            x       y       z     vdW  Elec       q    Type
REMARK                         _______ _______ _______ _____ _____    ______ ____
ROOT
ATOM      1  C   UNL     1       4.827   5.889  19.315  0.00  0.00    +0.000 C 
ATOM      2  N   UNL     1       4.363   4.719  18.608  0.00  0.00    +0.000 N 
ATOM      3  C   UNL     1       5.040   4.058  17.606  0.00  0.00    +0.000 A 
ATOM      4  N   UNL     1       4.343   3.029  17.167  0.00  0.00    +0.000 NA
ATOM      5  C   UNL     1       3.187   3.020  17.903  0.00  0.00    +0.000 A 
ATOM      6  C   UNL     1       2.105   2.127  17.831  0.00  0.00    +0.000 A 
ATOM      7  C   UNL     1       1.014   2.310  18.687  0.00  0.00    +0.000 A 
ATOM      8  C   UNL     1       1.002   3.363  19.600  0.00  0.00    +0.000 A 
ATOM      9  C   UNL     1       2.074   4.262  19.684  0.00  0.00    +0.000 A 
ATOM     10 CL   UNL     1       1.992   5.535  20.835  0.00  0.00    +0.000 Cl
ATOM     11  C   UNL     1       3.163   4.070  18.820  0.00  0.00    +0.000 A 
ENDROOT
BRANCH   3  12
ATOM     12  C   UNL     1       6.325   4.423  17.094  0.00  0.00    +0.000 C 
ATOM     13  N   UNL     1       7.387   4.661  16.689  0.00  0.00    +0.000 NA
ENDBRANCH   3  12
TORSDOF 1
ENDMDL
