MODEL 1
REMARK VINA RESULT:      -8.2      0.000      0.000
REMARK  Name = 
REMARK  5 active torsions:
REMARK  status: ('A' for Active; 'I' for Inactive)
REMARK    1  A    between atoms: N_2  and  C_4
REMARK    2  A    between atoms: C_7  and  N_8
REMARK    3  A    between atoms: N_8  and  C_9
REMARK    4  A    between atoms: C_9  and  N_11
REMARK    5  A    between atoms: N_11  and  C_12
REMARK                            x       y       z     vdW  Elec       q    Type
REMARK                         _______ _______ _______ _____ _____    ______ ____
ROOT
ATOM      1  N   UNL     1       1.244   6.126  20.875  0.00  0.00    +0.000 N 
ATOM      2  H   UNL     1       0.878   6.227  21.814  0.00  0.00    +0.000 HD
ENDROOT
BRANCH   1   3
ATOM      3  C   UNL     1       1.412   4.778  20.478  0.00  0.00    +0.000 A 
ATOM      4  C   UNL     1       1.993   3.964  21.471  0.00  0.00    +0.000 A 
ATOM      5  C   UNL     1       2.907   2.996  21.091  0.00  0.00    +0.000 A 
ATOM      6  C   UNL     1       3.092   2.824  19.725  0.00  0.00    +0.000 A 
ATOM      7  C   UNL     1       2.036   3.126  18.859  0.00  0.00    +0.000 A 
ATOM      8  C   UNL     1       1.322   4.284  19.171  0.00  0.00    +0.000 A 
ATOM      9  C   UNL     1       2.426   2.656  17.471  0.00  0.00    +0.000 C 
ATOM     10  C   UNL     1       3.908   3.012  17.547  0.00  0.00    +0.000 A 
ATOM     11  C   UNL     1       4.626   3.576  16.506  0.00  0.00    +0.000 A 
ATOM     12  C   UNL     1       5.694   4.385  16.849  0.00  0.00    +0.000 A 
ATOM     13 BR   UNL     1       6.544   5.405  15.493  0.00  0.00    +0.000 Br
ATOM     14  C   UNL     1       6.060   4.574  18.198  0.00  0.00    +0.000 A 
ATOM     15  C   UNL     1       5.377   3.893  19.237  0.00  0.00    +0.000 A 
ATOM     16  C   UNL     1       4.290   3.098  18.906  0.00  0.00    +0.000 A 
ENDBRANCH   1   3
BRANCH   1  17
ATOM     17  C   UNL     1       1.819   7.293  20.422  0.00  0.00    +0.000 C 
ATOM     18  S   UNL     1       2.310   7.647  18.870  0.00  0.00    +0.000 S 
BRANCH  17  19
ATOM     19  N   UNL     1       1.817   8.316  21.366  0.00  0.00    +0.000 N 
ATOM     20  H   UNL     1       2.641   8.358  21.958  0.00  0.00    +0.000 HD
BRANCH  19  24
ATOM     21  C   UNL     1      -1.181  11.134  22.284  0.00  0.00    +0.000 A 
ATOM     22  C   UNL     1      -0.678  11.072  20.979  0.00  0.00    +0.000 A 
ATOM     23  C   UNL     1       0.304  10.123  20.664  0.00  0.00    +0.000 A 
ATOM     24  C   UNL     1       0.773   9.232  21.638  0.00  0.00    +0.000 A 
ATOM     25  C   UNL     1       0.190   9.231  22.911  0.00  0.00    +0.000 A 
ATOM     26  C   UNL     1      -0.767  10.201  23.245  0.00  0.00    +0.000 A 
BRANCH  21  28
ATOM     27  O   UNL     1      -3.129  11.882  23.296  0.00  0.00    +0.000 OA
ATOM     28  N   UNL     1      -2.123  12.199  22.648  0.00  0.00    +0.000 N 
ATOM     29  O   UNL     1      -1.864  13.350  22.264  0.00  0.00    +0.000 OA
ENDBRANCH  21  28
ENDBRANCH  19  24
ENDBRANCH  17  19
ENDBRANCH   1  17
TORSDOF 5
ENDMDL
MODEL 2
REMARK VINA RESULT:      -8.0      6.986     10.661
REMARK  Name = 
REMARK  5 active torsions:
REMARK  status: ('A' for Active; 'I' for Inactive)
REMARK    1  A    between atoms: N_2  and  C_4
REMARK    2  A    between atoms: C_7  and  N_8
REMARK    3  A    between atoms: N_8  and  C_9
REMARK    4  A    between atoms: C_9  and  N_11
REMARK    5  A    between atoms: N_11  and  C_12
REMARK                            x       y       z     vdW  Elec       q    Type
REMARK                         _______ _______ _______ _____ _____    ______ ____
ROOT
ATOM      1  N   UNL     1      -4.117  12.051  16.662  0.00  0.00    +0.000 N 
ATOM      2  H   UNL     1      -3.782  13.005  16.708  0.00  0.00    +0.000 HD
ENDROOT
BRANCH   1   3
ATOM      3  C   UNL     1      -5.410  11.880  17.210  0.00  0.00    +0.000 A 
ATOM      4  C   UNL     1      -6.334  12.860  16.794  0.00  0.00    +0.000 A 
ATOM      5  C   UNL     1      -7.254  13.342  17.711  0.00  0.00    +0.000 A 
ATOM      6  C   UNL     1      -7.268  12.724  18.955  0.00  0.00    +0.000 A 
ATOM      7  C   UNL     1      -6.867  11.387  19.047  0.00  0.00    +0.000 A 
ATOM      8  C   UNL     1      -5.750  11.045  18.282  0.00  0.00    +0.000 A 
ATOM      9  C   UNL     1      -7.175  10.906  20.452  0.00  0.00    +0.000 C 
ATOM     10  C   UNL     1      -6.833  12.199  21.187  0.00  0.00    +0.000 A 
ATOM     11  C   UNL     1      -6.155  12.252  22.392  0.00  0.00    +0.000 A 
ATOM     12  C   UNL     1      -5.393  13.381  22.633  0.00  0.00    +0.000 A 
ATOM     13 BR   UNL     1      -4.225  13.398  24.129  0.00  0.00    +0.000 Br
ATOM     14  C   UNL     1      -5.360  14.447  21.710  0.00  0.00    +0.000 A 
ATOM     15  C   UNL     1      -6.155  14.414  20.537  0.00  0.00    +0.000 A 
ATOM     16  C   UNL     1      -6.905  13.277  20.274  0.00  0.00    +0.000 A 
ENDBRANCH   1   3
BRANCH   1  17
ATOM     17  C   UNL     1      -3.090  11.159  16.443  0.00  0.00    +0.000 C 
ATOM     18  S   UNL     1      -3.042   9.918  15.333  0.00  0.00    +0.000 S 
BRANCH  17  19
ATOM     19  N   UNL     1      -1.923  11.474  17.134  0.00  0.00    +0.000 N 
ATOM     20  H   UNL     1      -1.118  11.680  16.550  0.00  0.00    +0.000 HD
BRANCH  19  24
ATOM     21  C   UNL     1      -1.163  11.491  21.280  0.00  0.00    +0.000 A 
ATOM     22  C   UNL     1      -2.164  12.324  20.765  0.00  0.00    +0.000 A 
ATOM     23  C   UNL     1      -2.434  12.306  19.391  0.00  0.00    +0.000 A 
ATOM     24  C   UNL     1      -1.723  11.456  18.535  0.00  0.00    +0.000 A 
ATOM     25  C   UNL     1      -0.798  10.552  19.072  0.00  0.00    +0.000 A 
ATOM     26  C   UNL     1      -0.495  10.588  20.442  0.00  0.00    +0.000 A 
BRANCH  21  28
ATOM     27  O   UNL     1      -0.682  10.535  23.338  0.00  0.00    +0.000 OA
ATOM     28  N   UNL     1      -0.797  11.589  22.698  0.00  0.00    +0.000 N 
ATOM     29  O   UNL     1      -0.647  12.725  23.175  0.00  0.00    +0.000 OA
ENDBRANCH  21  28
ENDBRANCH  19  24
ENDBRANCH  17  19
ENDBRANCH   1  17
TORSDOF 5
ENDMDL
MODEL 3
REMARK VINA RESULT:      -7.9      2.574      2.980
REMARK  Name = 
REMARK  5 active torsions:
REMARK  status: ('A' for Active; 'I' for Inactive)
REMARK    1  A    between atoms: N_2  and  C_4
REMARK    2  A    between atoms: C_7  and  N_8
REMARK    3  A    between atoms: N_8  and  C_9
REMARK    4  A    between atoms: C_9  and  N_11
REMARK    5  A    between atoms: N_11  and  C_12
REMARK                            x       y       z     vdW  Elec       q    Type
REMARK                         _______ _______ _______ _____ _____    ______ ____
ROOT
ATOM      1  N   UNL     1       2.070   7.610  20.341  0.00  0.00    +0.000 N 
ATOM      2  H   UNL     1       2.986   7.936  20.058  0.00  0.00    +0.000 HD
ENDROOT
BRANCH   1   3
ATOM      3  C   UNL     1       1.822   6.259  20.001  0.00  0.00    +0.000 A 
ATOM      4  C   UNL     1       2.063   5.357  21.057  0.00  0.00    +0.000 A 
ATOM      5  C   UNL     1       2.642   4.132  20.769  0.00  0.00    +0.000 A 
ATOM      6  C   UNL     1       2.831   3.840  19.424  0.00  0.00    +0.000 A 
ATOM      7  C   UNL     1       1.970   4.413  18.483  0.00  0.00    +0.000 A 
ATOM      8  C   UNL     1       1.646   5.752  18.708  0.00  0.00    +0.000 A 
ATOM      9  C   UNL     1       2.261   3.773  17.139  0.00  0.00    +0.000 C 
ATOM     10  C   UNL     1       3.773   3.647  17.298  0.00  0.00    +0.000 A 
ATOM     11  C   UNL     1       4.684   3.901  16.287  0.00  0.00    +0.000 A 
ATOM     12  C   UNL     1       5.935   4.350  16.670  0.00  0.00    +0.000 A 
ATOM     13 BR   UNL     1       7.133   4.979  15.339  0.00  0.00    +0.000 Br
ATOM     14  C   UNL     1       6.274   4.485  18.034  0.00  0.00    +0.000 A 
ATOM     15  C   UNL     1       5.358   4.108  19.048  0.00  0.00    +0.000 A 
ATOM     16  C   UNL     1       4.093   3.680  18.675  0.00  0.00    +0.000 A 
ENDBRANCH   1   3
BRANCH   1  17
ATOM     17  C   UNL     1       1.218   8.658  20.616  0.00  0.00    +0.000 C 
ATOM     18  S   UNL     1       0.498   9.026  22.072  0.00  0.00    +0.000 S 
BRANCH  17  19
ATOM     19  N   UNL     1       1.110   9.574  19.573  0.00  0.00    +0.000 N 
ATOM     20  H   UNL     1       1.992   9.912  19.203  0.00  0.00    +0.000 HD
BRANCH  19  24
ATOM     21  C   UNL     1      -2.507  11.090  18.028  0.00  0.00    +0.000 A 
ATOM     22  C   UNL     1      -1.983  11.639  19.205  0.00  0.00    +0.000 A 
ATOM     23  C   UNL     1      -0.771  11.152  19.711  0.00  0.00    +0.000 A 
ATOM     24  C   UNL     1      -0.077  10.135  19.043  0.00  0.00    +0.000 A 
ATOM     25  C   UNL     1      -0.553   9.667  17.813  0.00  0.00    +0.000 A 
ATOM     26  C   UNL     1      -1.785  10.122  17.318  0.00  0.00    +0.000 A 
BRANCH  21  28
ATOM     27  O   UNL     1      -4.617  11.984  18.391  0.00  0.00    +0.000 OA
ATOM     28  N   UNL     1      -3.831  11.515  17.557  0.00  0.00    +0.000 N 
ATOM     29  O   UNL     1      -4.089  11.358  16.354  0.00  0.00    +0.000 OA
ENDBRANCH  21  28
ENDBRANCH  19  24
ENDBRANCH  17  19
ENDBRANCH   1  17
TORSDOF 5
ENDMDL
MODEL 4
REMARK VINA RESULT:      -7.8      4.978      9.436
REMARK  Name = 
REMARK  5 active torsions:
REMARK  status: ('A' for Active; 'I' for Inactive)
REMARK    1  A    between atoms: N_2  and  C_4
REMARK    2  A    between atoms: C_7  and  N_8
REMARK    3  A    between atoms: N_8  and  C_9
REMARK    4  A    between atoms: C_9  and  N_11
REMARK    5  A    between atoms: N_11  and  C_12
REMARK                            x       y       z     vdW  Elec       q    Type
REMARK                         _______ _______ _______ _____ _____    ______ ____
ROOT
ATOM      1  N   UNL     1       0.722   8.980  19.534  0.00  0.00    +0.000 N 
ATOM      2  H   UNL     1       1.077   8.338  18.836  0.00  0.00    +0.000 HD
ENDROOT
BRANCH   1   3
ATOM      3  C   UNL     1       0.166  10.159  18.984  0.00  0.00    +0.000 A 
ATOM      4  C   UNL     1       1.100  11.202  18.822  0.00  0.00    +0.000 A 
ATOM      5  C   UNL     1       0.702  12.503  19.086  0.00  0.00    +0.000 A 
ATOM      6  C   UNL     1      -0.643  12.688  19.381  0.00  0.00    +0.000 A 
ATOM      7  C   UNL     1      -1.579  11.795  18.848  0.00  0.00    +0.000 A 
ATOM      8  C   UNL     1      -1.199  10.452  18.865  0.00  0.00    +0.000 A 
ATOM      9  C   UNL     1      -2.963  12.341  19.146  0.00  0.00    +0.000 C 
ATOM     10  C   UNL     1      -2.662  12.907  20.530  0.00  0.00    +0.000 A 
ATOM     11  C   UNL     1      -3.522  12.814  21.611  0.00  0.00    +0.000 A 
ATOM     12  C   UNL     1      -2.947  12.783  22.868  0.00  0.00    +0.000 A 
ATOM     13 BR   UNL     1      -4.038  12.379  24.368  0.00  0.00    +0.000 Br
ATOM     14  C   UNL     1      -1.550  12.900  23.032  0.00  0.00    +0.000 A 
ATOM     15  C   UNL     1      -0.704  13.109  21.914  0.00  0.00    +0.000 A 
ATOM     16  C   UNL     1      -1.269  13.117  20.647  0.00  0.00    +0.000 A 
ENDBRANCH   1   3
BRANCH   1  17
ATOM     17  C   UNL     1       1.223   8.700  20.787  0.00  0.00    +0.000 C 
ATOM     18  S   UNL     1       0.692   9.297  22.249  0.00  0.00    +0.000 S 
BRANCH  17  19
ATOM     19  N   UNL     1       2.167   7.677  20.792  0.00  0.00    +0.000 N 
ATOM     20  H   UNL     1       3.047   7.906  21.244  0.00  0.00    +0.000 HD
BRANCH  19  24
ATOM     21  C   UNL     1       1.680   3.931  18.922  0.00  0.00    +0.000 A 
ATOM     22  C   UNL     1       2.491   4.898  18.315  0.00  0.00    +0.000 A 
ATOM     23  C   UNL     1       2.672   6.137  18.943  0.00  0.00    +0.000 A 
ATOM     24  C   UNL     1       2.062   6.408  20.175  0.00  0.00    +0.000 A 
ATOM     25  C   UNL     1       1.340   5.400  20.824  0.00  0.00    +0.000 A 
ATOM     26  C   UNL     1       1.123   4.169  20.186  0.00  0.00    +0.000 A 
BRANCH  21  28
ATOM     27  O   UNL     1       0.354   2.073  18.509  0.00  0.00    +0.000 OA
ATOM     28  N   UNL     1       1.394   2.677  18.215  0.00  0.00    +0.000 N 
ATOM     29  O   UNL     1       2.225   2.288  17.380  0.00  0.00    +0.000 OA
ENDBRANCH  21  28
ENDBRANCH  19  24
ENDBRANCH  17  19
ENDBRANCH   1  17
TORSDOF 5
ENDMDL
MODEL 5
REMARK VINA RESULT:      -7.8      6.843     10.761
REMARK  Name = 
REMARK  5 active torsions:
REMARK  status: ('A' for Active; 'I' for Inactive)
REMARK    1  A    between atoms: N_2  and  C_4
REMARK    2  A    between atoms: C_7  and  N_8
REMARK    3  A    between atoms: N_8  and  C_9
REMARK    4  A    between atoms: C_9  and  N_11
REMARK    5  A    between atoms: N_11  and  C_12
REMARK                            x       y       z     vdW  Elec       q    Type
REMARK                         _______ _______ _______ _____ _____    ______ ____
ROOT
ATOM      1  N   UNL     1      -4.531  12.020  16.595  0.00  0.00    +0.000 N 
ATOM      2  H   UNL     1      -4.385  12.910  16.134  0.00  0.00    +0.000 HD
ENDROOT
BRANCH   1   3
ATOM      3  C   UNL     1      -5.701  11.981  17.389  0.00  0.00    +0.000 A 
ATOM      4  C   UNL     1      -6.664  12.944  17.025  0.00  0.00    +0.000 A 
ATOM      5  C   UNL     1      -7.383  13.580  18.024  0.00  0.00    +0.000 A 
ATOM      6  C   UNL     1      -7.175  13.124  19.319  0.00  0.00    +0.000 A 
ATOM      7  C   UNL     1      -6.795  11.791  19.512  0.00  0.00    +0.000 A 
ATOM      8  C   UNL     1      -5.851  11.304  18.606  0.00  0.00    +0.000 A 
ATOM      9  C   UNL     1      -6.842  11.506  21.001  0.00  0.00    +0.000 C 
ATOM     10  C   UNL     1      -6.338  12.864  21.482  0.00  0.00    +0.000 A 
ATOM     11  C   UNL     1      -5.444  13.035  22.524  0.00  0.00    +0.000 A 
ATOM     12  C   UNL     1      -4.624  14.147  22.469  0.00  0.00    +0.000 A 
ATOM     13 BR   UNL     1      -3.194  14.297  23.709  0.00  0.00    +0.000 Br
ATOM     14  C   UNL     1      -4.741  15.087  21.423  0.00  0.00    +0.000 A 
ATOM     15  C   UNL     1      -5.744  14.945  20.431  0.00  0.00    +0.000 A 
ATOM     16  C   UNL     1      -6.556  13.821  20.464  0.00  0.00    +0.000 A 
ENDBRANCH   1   3
BRANCH   1  17
ATOM     17  C   UNL     1      -3.378  11.265  16.622  0.00  0.00    +0.000 C 
ATOM     18  S   UNL     1      -3.114   9.789  15.896  0.00  0.00    +0.000 S 
BRANCH  17  19
ATOM     19  N   UNL     1      -2.294  11.926  17.193  0.00  0.00    +0.000 N 
ATOM     20  H   UNL     1      -1.817  12.580  16.580  0.00  0.00    +0.000 HD
BRANCH  19  24
ATOM     21  C   UNL     1      -0.822  11.254  21.085  0.00  0.00    +0.000 A 
ATOM     22  C   UNL     1      -0.278  10.534  20.014  0.00  0.00    +0.000 A 
ATOM     23  C   UNL     1      -0.749  10.769  18.716  0.00  0.00    +0.000 A 
ATOM     24  C   UNL     1      -1.747  11.724  18.482  0.00  0.00    +0.000 A 
ATOM     25  C   UNL     1      -2.210  12.512  19.542  0.00  0.00    +0.000 A 
ATOM     26  C   UNL     1      -1.770  12.259  20.851  0.00  0.00    +0.000 A 
BRANCH  21  28
ATOM     27  O   UNL     1       0.463  10.071  22.611  0.00  0.00    +0.000 OA
ATOM     28  N   UNL     1      -0.414  10.931  22.458  0.00  0.00    +0.000 N 
ATOM     29  O   UNL     1      -0.990  11.525  23.382  0.00  0.00    +0.000 OA
ENDBRANCH  21  28
ENDBRANCH  19  24
ENDBRANCH  17  19
ENDBRANCH   1  17
TORSDOF 5
ENDMDL
MODEL 6
REMARK VINA RESULT:      -7.8      2.813      3.165
REMARK  Name = 
REMARK  5 active torsions:
REMARK  status: ('A' for Active; 'I' for Inactive)
REMARK    1  A    between atoms: N_2  and  C_4
REMARK    2  A    between atoms: C_7  and  N_8
REMARK    3  A    between atoms: N_8  and  C_9
REMARK    4  A    between atoms: C_9  and  N_11
REMARK    5  A    between atoms: N_11  and  C_12
REMARK                            x       y       z     vdW  Elec       q    Type
REMARK                         _______ _______ _______ _____ _____    ______ ____
ROOT
ATOM      1  N   UNL     1       2.082   7.873  19.646  0.00  0.00    +0.000 N 
ATOM      2  H   UNL     1       2.680   8.272  18.933  0.00  0.00    +0.000 HD
ENDROOT
BRANCH   1   3
ATOM      3  C   UNL     1       1.928   6.471  19.534  0.00  0.00    +0.000 A 
ATOM      4  C   UNL     1       2.269   5.769  20.707  0.00  0.00    +0.000 A 
ATOM      5  C   UNL     1       2.931   4.557  20.592  0.00  0.00    +0.000 A 
ATOM      6  C   UNL     1       3.102   4.067  19.303  0.00  0.00    +0.000 A 
ATOM      7  C   UNL     1       2.171   4.420  18.320  0.00  0.00    +0.000 A 
ATOM      8  C   UNL     1       1.752   5.751  18.345  0.00  0.00    +0.000 A 
ATOM      9  C   UNL     1       2.469   3.595  17.082  0.00  0.00    +0.000 C 
ATOM     10  C   UNL     1       3.991   3.604  17.196  0.00  0.00    +0.000 A 
ATOM     11  C   UNL     1       4.849   3.757  16.121  0.00  0.00    +0.000 A 
ATOM     12  C   UNL     1       6.073   4.349  16.376  0.00  0.00    +0.000 A 
ATOM     13 BR   UNL     1       7.178   4.839  14.912  0.00  0.00    +0.000 Br
ATOM     14  C   UNL     1       6.441   4.724  17.685  0.00  0.00    +0.000 A 
ATOM     15  C   UNL     1       5.588   4.451  18.784  0.00  0.00    +0.000 A 
ATOM     16  C   UNL     1       4.349   3.879  18.536  0.00  0.00    +0.000 A 
ENDBRANCH   1   3
BRANCH   1  17
ATOM     17  C   UNL     1       1.307   8.834  20.258  0.00  0.00    +0.000 C 
ATOM     18  S   UNL     1       0.896   8.931  21.870  0.00  0.00    +0.000 S 
BRANCH  17  19
ATOM     19  N   UNL     1       0.996   9.908  19.429  0.00  0.00    +0.000 N 
ATOM     20  H   UNL     1       1.754  10.565  19.272  0.00  0.00    +0.000 HD
BRANCH  19  24
ATOM     21  C   UNL     1      -2.691  10.998  17.699  0.00  0.00    +0.000 A 
ATOM     22  C   UNL     1      -1.933   9.978  17.109  0.00  0.00    +0.000 A 
ATOM     23  C   UNL     1      -0.718   9.598  17.693  0.00  0.00    +0.000 A 
ATOM     24  C   UNL     1      -0.264  10.219  18.863  0.00  0.00    +0.000 A 
ATOM     25  C   UNL     1      -1.076  11.163  19.504  0.00  0.00    +0.000 A 
ATOM     26  C   UNL     1      -2.277  11.575  18.908  0.00  0.00    +0.000 A 
BRANCH  21  28
ATOM     27  O   UNL     1      -4.732  12.099  17.711  0.00  0.00    +0.000 OA
ATOM     28  N   UNL     1      -3.905  11.478  17.030  0.00  0.00    +0.000 N 
ATOM     29  O   UNL     1      -4.040  11.212  15.826  0.00  0.00    +0.000 OA
ENDBRANCH  21  28
ENDBRANCH  19  24
ENDBRANCH  17  19
ENDBRANCH   1  17
TORSDOF 5
ENDMDL
MODEL 7
REMARK VINA RESULT:      -7.7      2.673      3.923
REMARK  Name = 
REMARK  5 active torsions:
REMARK  status: ('A' for Active; 'I' for Inactive)
REMARK    1  A    between atoms: N_2  and  C_4
REMARK    2  A    between atoms: C_7  and  N_8
REMARK    3  A    between atoms: N_8  and  C_9
REMARK    4  A    between atoms: C_9  and  N_11
REMARK    5  A    between atoms: N_11  and  C_12
REMARK                            x       y       z     vdW  Elec       q    Type
REMARK                         _______ _______ _______ _____ _____    ______ ____
ROOT
ATOM      1  N   UNL     1       2.114   4.518  18.769  0.00  0.00    +0.000 N 
ATOM      2  H   UNL     1       1.169   4.165  18.676  0.00  0.00    +0.000 HD
ENDROOT
BRANCH   1   3
ATOM      3  C   UNL     1       2.972   4.116  17.718  0.00  0.00    +0.000 A 
ATOM      4  C   UNL     1       3.583   2.865  17.934  0.00  0.00    +0.000 A 
ATOM      5  C   UNL     1       4.902   2.689  17.546  0.00  0.00    +0.000 A 
ATOM      6  C   UNL     1       5.487   3.743  16.856  0.00  0.00    +0.000 A 
ATOM      7  C   UNL     1       4.670   4.587  16.095  0.00  0.00    +0.000 A 
ATOM      8  C   UNL     1       3.454   4.933  16.688  0.00  0.00    +0.000 A 
ATOM      9  C   UNL     1       5.572   5.504  15.292  0.00  0.00    +0.000 C 
ATOM     10  C   UNL     1       6.655   5.699  16.349  0.00  0.00    +0.000 A 
ATOM     11  C   UNL     1       7.277   6.908  16.610  0.00  0.00    +0.000 A 
ATOM     12  C   UNL     1       7.732   7.112  17.900  0.00  0.00    +0.000 A 
ATOM     13 BR   UNL     1       8.340   8.840  18.397  0.00  0.00    +0.000 Br
ATOM     14  C   UNL     1       7.612   6.105  18.882  0.00  0.00    +0.000 A 
ATOM     15  C   UNL     1       7.074   4.835  18.555  0.00  0.00    +0.000 A 
ATOM     16  C   UNL     1       6.593   4.629  17.271  0.00  0.00    +0.000 A 
ENDBRANCH   1   3
BRANCH   1  17
ATOM     17  C   UNL     1       2.374   4.947  20.052  0.00  0.00    +0.000 C 
ATOM     18  S   UNL     1       2.325   4.046  21.453  0.00  0.00    +0.000 S 
BRANCH  17  19
ATOM     19  N   UNL     1       2.891   6.238  20.113  0.00  0.00    +0.000 N 
ATOM     20  H   UNL     1       3.829   6.309  20.494  0.00  0.00    +0.000 HD
BRANCH  19  24
ATOM     21  C   UNL     1       0.803   9.737  19.035  0.00  0.00    +0.000 A 
ATOM     22  C   UNL     1       0.760   9.297  20.364  0.00  0.00    +0.000 A 
ATOM     23  C   UNL     1       1.469   8.146  20.731  0.00  0.00    +0.000 A 
ATOM     24  C   UNL     1       2.228   7.444  19.786  0.00  0.00    +0.000 A 
ATOM     25  C   UNL     1       2.350   7.950  18.486  0.00  0.00    +0.000 A 
ATOM     26  C   UNL     1       1.615   9.081  18.100  0.00  0.00    +0.000 A 
BRANCH  21  28
ATOM     27  O   UNL     1       0.482  12.001  18.643  0.00  0.00    +0.000 OA
ATOM     28  N   UNL     1      -0.029  10.873  18.621  0.00  0.00    +0.000 N 
ATOM     29  O   UNL     1      -1.202  10.636  18.294  0.00  0.00    +0.000 OA
ENDBRANCH  21  28
ENDBRANCH  19  24
ENDBRANCH  17  19
ENDBRANCH   1  17
TORSDOF 5
ENDMDL
MODEL 8
REMARK VINA RESULT:      -7.6      2.593      3.612
REMARK  Name = 
REMARK  5 active torsions:
REMARK  status: ('A' for Active; 'I' for Inactive)
REMARK    1  A    between atoms: N_2  and  C_4
REMARK    2  A    between atoms: C_7  and  N_8
REMARK    3  A    between atoms: N_8  and  C_9
REMARK    4  A    between atoms: C_9  and  N_11
REMARK    5  A    between atoms: N_11  and  C_12
REMARK                            x       y       z     vdW  Elec       q    Type
REMARK                         _______ _______ _______ _____ _____    ______ ____
ROOT
ATOM      1  N   UNL     1       1.781   4.425  19.168  0.00  0.00    +0.000 N 
ATOM      2  H   UNL     1       0.790   4.409  18.961  0.00  0.00    +0.000 HD
ENDROOT
BRANCH   1   3
ATOM      3  C   UNL     1       2.582   3.882  18.135  0.00  0.00    +0.000 A 
ATOM      4  C   UNL     1       3.193   2.659  18.478  0.00  0.00    +0.000 A 
ATOM      5  C   UNL     1       4.488   2.416  18.051  0.00  0.00    +0.000 A 
ATOM      6  C   UNL     1       5.047   3.366  17.205  0.00  0.00    +0.000 A 
ATOM      7  C   UNL     1       4.199   4.119  16.384  0.00  0.00    +0.000 A 
ATOM      8  C   UNL     1       3.018   4.554  16.987  0.00  0.00    +0.000 A 
ATOM      9  C   UNL     1       5.067   4.914  15.428  0.00  0.00    +0.000 C 
ATOM     10  C   UNL     1       6.203   5.225  16.398  0.00  0.00    +0.000 A 
ATOM     11  C   UNL     1       6.848   6.448  16.473  0.00  0.00    +0.000 A 
ATOM     12  C   UNL     1       7.369   6.807  17.702  0.00  0.00    +0.000 A 
ATOM     13 BR   UNL     1       8.015   8.575  17.945  0.00  0.00    +0.000 Br
ATOM     14  C   UNL     1       7.291   5.934  18.808  0.00  0.00    +0.000 A 
ATOM     15  C   UNL     1       6.726   4.641  18.672  0.00  0.00    +0.000 A 
ATOM     16  C   UNL     1       6.180   4.281  17.450  0.00  0.00    +0.000 A 
ENDBRANCH   1   3
BRANCH   1  17
ATOM     17  C   UNL     1       2.019   4.607  20.512  0.00  0.00    +0.000 C 
ATOM     18  S   UNL     1       2.048   3.443  21.704  0.00  0.00    +0.000 S 
BRANCH  17  19
ATOM     19  N   UNL     1       2.436   5.895  20.835  0.00  0.00    +0.000 N 
ATOM     20  H   UNL     1       3.086   5.955  21.612  0.00  0.00    +0.000 HD
BRANCH  19  24
ATOM     21  C   UNL     1       1.223   9.604  19.241  0.00  0.00    +0.000 A 
ATOM     22  C   UNL     1       2.008   8.748  18.459  0.00  0.00    +0.000 A 
ATOM     23  C   UNL     1       2.396   7.505  18.977  0.00  0.00    +0.000 A 
ATOM     24  C   UNL     1       1.995   7.110  20.259  0.00  0.00    +0.000 A 
ATOM     25  C   UNL     1       1.124   7.926  20.992  0.00  0.00    +0.000 A 
ATOM     26  C   UNL     1       0.760   9.187  20.497  0.00  0.00    +0.000 A 
BRANCH  21  28
ATOM     27  O   UNL     1      -0.277  11.302  18.745  0.00  0.00    +0.000 OA
ATOM     28  N   UNL     1       0.910  10.951  18.750  0.00  0.00    +0.000 N 
ATOM     29  O   UNL     1       1.854  11.649  18.349  0.00  0.00    +0.000 OA
ENDBRANCH  21  28
ENDBRANCH  19  24
ENDBRANCH  17  19
ENDBRANCH   1  17
TORSDOF 5
ENDMDL
MODEL 9
REMARK VINA RESULT:      -7.5      5.045      9.521
REMARK  Name = 
REMARK  5 active torsions:
REMARK  status: ('A' for Active; 'I' for Inactive)
REMARK    1  A    between atoms: N_2  and  C_4
REMARK    2  A    between atoms: C_7  and  N_8
REMARK    3  A    between atoms: N_8  and  C_9
REMARK    4  A    between atoms: C_9  and  N_11
REMARK    5  A    between atoms: N_11  and  C_12
REMARK                            x       y       z     vdW  Elec       q    Type
REMARK                         _______ _______ _______ _____ _____    ______ ____
ROOT
ATOM      1  N   UNL     1       1.054   9.120  19.594  0.00  0.00    +0.000 N 
ATOM      2  H   UNL     1       1.859   8.789  19.077  0.00  0.00    +0.000 HD
ENDROOT
BRANCH   1   3
ATOM      3  C   UNL     1       0.388  10.201  18.970  0.00  0.00    +0.000 A 
ATOM      4  C   UNL     1       1.222  11.309  18.718  0.00  0.00    +0.000 A 
ATOM      5  C   UNL     1       0.710  12.584  18.894  0.00  0.00    +0.000 A 
ATOM      6  C   UNL     1      -0.644  12.669  19.196  0.00  0.00    +0.000 A 
ATOM      7  C   UNL     1      -1.499  11.659  18.744  0.00  0.00    +0.000 A 
ATOM      8  C   UNL     1      -0.998  10.361  18.851  0.00  0.00    +0.000 A 
ATOM      9  C   UNL     1      -2.924  12.099  19.023  0.00  0.00    +0.000 C 
ATOM     10  C   UNL     1      -2.664  12.790  20.358  0.00  0.00    +0.000 A 
ATOM     11  C   UNL     1      -3.502  12.699  21.456  0.00  0.00    +0.000 A 
ATOM     12  C   UNL     1      -2.915  12.812  22.704  0.00  0.00    +0.000 A 
ATOM     13 BR   UNL     1      -3.951  12.422  24.245  0.00  0.00    +0.000 Br
ATOM     14  C   UNL     1      -1.533  13.064  22.837  0.00  0.00    +0.000 A 
ATOM     15  C   UNL     1      -0.720  13.267  21.693  0.00  0.00    +0.000 A 
ATOM     16  C   UNL     1      -1.294  13.132  20.438  0.00  0.00    +0.000 A 
ENDBRANCH   1   3
BRANCH   1  17
ATOM     17  C   UNL     1       1.075   8.689  20.902  0.00  0.00    +0.000 C 
ATOM     18  S   UNL     1       0.091   9.187  22.151  0.00  0.00    +0.000 S 
BRANCH  17  19
ATOM     19  N   UNL     1       1.916   7.601  21.116  0.00  0.00    +0.000 N 
ATOM     20  H   UNL     1       2.564   7.703  21.890  0.00  0.00    +0.000 HD
BRANCH  19  24
ATOM     21  C   UNL     1       2.387   4.083  18.842  0.00  0.00    +0.000 A 
ATOM     22  C   UNL     1       1.464   4.097  19.896  0.00  0.00    +0.000 A 
ATOM     23  C   UNL     1       1.289   5.271  20.641  0.00  0.00    +0.000 A 
ATOM     24  C   UNL     1       2.017   6.427  20.332  0.00  0.00    +0.000 A 
ATOM     25  C   UNL     1       2.859   6.434  19.213  0.00  0.00    +0.000 A 
ATOM     26  C   UNL     1       3.068   5.254  18.484  0.00  0.00    +0.000 A 
BRANCH  21  28
ATOM     27  O   UNL     1       2.245   2.718  16.972  0.00  0.00    +0.000 OA
ATOM     28  N   UNL     1       2.658   2.826  18.134  0.00  0.00    +0.000 N 
ATOM     29  O   UNL     1       3.266   1.939  18.752  0.00  0.00    +0.000 OA
ENDBRANCH  21  28
ENDBRANCH  19  24
ENDBRANCH  17  19
ENDBRANCH   1  17
TORSDOF 5
ENDMDL
