MODEL 1
REMARK VINA RESULT:      -6.7      0.000      0.000
REMARK  Name = 
REMARK  4 active torsions:
REMARK  status: ('A' for Active; 'I' for Inactive)
REMARK    1  A    between atoms: C_2  and  C_3
REMARK    2  A    between atoms: C_6  and  C_7
REMARK    3  A    between atoms: C_10  and  O_11
REMARK    4  A    between atoms: C_12  and  O_13
REMARK                            x       y       z     vdW  Elec       q    Type
REMARK                         _______ _______ _______ _____ _____    ______ ____
ROOT
ATOM      1  C   UNL     1       4.793   4.569  17.002  0.00  0.00    +0.000 A 
ATOM      2  C   UNL     1       4.948   3.836  15.807  0.00  0.00    +0.000 A 
ATOM      3  C   UNL     1       5.996   4.100  14.920  0.00  0.00    +0.000 A 
ATOM      4  C   UNL     1       6.892   5.114  15.219  0.00  0.00    +0.000 A 
ATOM      5  C   UNL     1       6.742   5.860  16.384  0.00  0.00    +0.000 A 
ATOM      6  C   UNL     1       5.706   5.600  17.273  0.00  0.00    +0.000 A 
ENDROOT
BRANCH   1  10
ATOM      7  C   UNL     1       2.400   3.515  19.921  0.00  0.00    +0.000 A 
ATOM      8  C   UNL     1       1.605   4.130  18.980  0.00  0.00    +0.000 A 
ATOM      9  C   UNL     1       2.356   4.572  17.849  0.00  0.00    +0.000 A 
ATOM     10  C   UNL     1       3.704   4.273  17.949  0.00  0.00    +0.000 A 
ATOM     11  S   UNL     1       4.035   3.484  19.442  0.00  0.00    +0.000 S 
BRANCH   7  13
ATOM     12  N   UNL     1       1.569   2.514  22.157  0.00  0.00    +0.000 NA
ATOM     13  C   UNL     1       1.940   2.967  21.156  0.00  0.00    +0.000 C 
ENDBRANCH   7  13
ENDBRANCH   1  10
BRANCH   4  14
ATOM     14  O   UNL     1       7.940   5.416  14.396  0.00  0.00    +0.000 OA
ATOM     15  H   UNL     1       7.769   5.008  13.530  0.00  0.00    +0.000 HD
ENDBRANCH   4  14
BRANCH   5  16
ATOM     16  O   UNL     1       7.628   6.860  16.669  0.00  0.00    +0.000 OA
ATOM     17  H   UNL     1       7.464   7.538  15.983  0.00  0.00    +0.000 HD
ENDBRANCH   5  16
TORSDOF 4
ENDMDL
MODEL 2
REMARK VINA RESULT:      -6.7      1.392      1.546
REMARK  Name = 
REMARK  4 active torsions:
REMARK  status: ('A' for Active; 'I' for Inactive)
REMARK    1  A    between atoms: C_2  and  C_3
REMARK    2  A    between atoms: C_6  and  C_7
REMARK    3  A    between atoms: C_10  and  O_11
REMARK    4  A    between atoms: C_12  and  O_13
REMARK                            x       y       z     vdW  Elec       q    Type
REMARK                         _______ _______ _______ _____ _____    ______ ____
ROOT
ATOM      1  C   UNL     1       4.802   5.044  17.948  0.00  0.00    +0.000 A 
ATOM      2  C   UNL     1       4.525   5.812  16.798  0.00  0.00    +0.000 A 
ATOM      3  C   UNL     1       5.480   5.989  15.792  0.00  0.00    +0.000 A 
ATOM      4  C   UNL     1       6.728   5.405  15.939  0.00  0.00    +0.000 A 
ATOM      5  C   UNL     1       7.024   4.660  17.076  0.00  0.00    +0.000 A 
ATOM      6  C   UNL     1       6.079   4.476  18.078  0.00  0.00    +0.000 A 
ENDROOT
BRANCH   1  10
ATOM      7  C   UNL     1       2.342   3.837  20.750  0.00  0.00    +0.000 A 
ATOM      8  C   UNL     1       2.076   5.174  20.560  0.00  0.00    +0.000 A 
ATOM      9  C   UNL     1       2.912   5.750  19.556  0.00  0.00    +0.000 A 
ATOM     10  C   UNL     1       3.787   4.835  18.996  0.00  0.00    +0.000 A 
ATOM     11  S   UNL     1       3.593   3.291  19.731  0.00  0.00    +0.000 S 
BRANCH   7  13
ATOM     12  N   UNL     1       1.133   2.300  22.444  0.00  0.00    +0.000 NA
ATOM     13  C   UNL     1       1.671   2.989  21.682  0.00  0.00    +0.000 C 
ENDBRANCH   7  13
ENDBRANCH   1  10
BRANCH   4  14
ATOM     14  O   UNL     1       7.701   5.536  14.988  0.00  0.00    +0.000 OA
ATOM     15  H   UNL     1       7.282   5.859  14.171  0.00  0.00    +0.000 HD
ENDBRANCH   4  14
BRANCH   5  16
ATOM     16  O   UNL     1       8.259   4.091  17.213  0.00  0.00    +0.000 OA
ATOM     17  H   UNL     1       8.076   3.149  17.401  0.00  0.00    +0.000 HD
ENDBRANCH   5  16
TORSDOF 4
ENDMDL
MODEL 3
REMARK VINA RESULT:      -6.6      0.699      1.724
REMARK  Name = 
REMARK  4 active torsions:
REMARK  status: ('A' for Active; 'I' for Inactive)
REMARK    1  A    between atoms: C_2  and  C_3
REMARK    2  A    between atoms: C_6  and  C_7
REMARK    3  A    between atoms: C_10  and  O_11
REMARK    4  A    between atoms: C_12  and  O_13
REMARK                            x       y       z     vdW  Elec       q    Type
REMARK                         _______ _______ _______ _____ _____    ______ ____
ROOT
ATOM      1  C   UNL     1       4.797   4.581  17.110  0.00  0.00    +0.000 A 
ATOM      2  C   UNL     1       5.655   5.670  17.372  0.00  0.00    +0.000 A 
ATOM      3  C   UNL     1       6.702   5.998  16.506  0.00  0.00    +0.000 A 
ATOM      4  C   UNL     1       6.907   5.225  15.374  0.00  0.00    +0.000 A 
ATOM      5  C   UNL     1       6.083   4.135  15.111  0.00  0.00    +0.000 A 
ATOM      6  C   UNL     1       5.037   3.807  15.965  0.00  0.00    +0.000 A 
ENDROOT
BRANCH   1  10
ATOM      7  C   UNL     1       2.313   3.478  19.934  0.00  0.00    +0.000 A 
ATOM      8  C   UNL     1       1.537   4.017  18.932  0.00  0.00    +0.000 A 
ATOM      9  C   UNL     1       2.322   4.468  17.828  0.00  0.00    +0.000 A 
ATOM     10  C   UNL     1       3.677   4.251  18.009  0.00  0.00    +0.000 A 
ATOM     11  S   UNL     1       3.971   3.528  19.543  0.00  0.00    +0.000 S 
BRANCH   7  13
ATOM     12  N   UNL     1       1.415   2.498  22.152  0.00  0.00    +0.000 NA
ATOM     13  C   UNL     1       1.818   2.942  21.160  0.00  0.00    +0.000 C 
ENDBRANCH   7  13
ENDBRANCH   1  10
BRANCH   4  14
ATOM     14  O   UNL     1       7.909   5.499  14.487  0.00  0.00    +0.000 OA
ATOM     15  H   UNL     1       8.758   5.324  14.928  0.00  0.00    +0.000 HD
ENDBRANCH   4  14
BRANCH   5  16
ATOM     16  O   UNL     1       6.294   3.378  13.994  0.00  0.00    +0.000 OA
ATOM     17  H   UNL     1       5.985   3.938  13.255  0.00  0.00    +0.000 HD
ENDBRANCH   5  16
TORSDOF 4
ENDMDL
MODEL 4
REMARK VINA RESULT:      -6.4      1.042      1.062
REMARK  Name = 
REMARK  4 active torsions:
REMARK  status: ('A' for Active; 'I' for Inactive)
REMARK    1  A    between atoms: C_2  and  C_3
REMARK    2  A    between atoms: C_6  and  C_7
REMARK    3  A    between atoms: C_10  and  O_11
REMARK    4  A    between atoms: C_12  and  O_13
REMARK                            x       y       z     vdW  Elec       q    Type
REMARK                         _______ _______ _______ _____ _____    ______ ____
ROOT
ATOM      1  C   UNL     1       4.654   4.467  17.179  0.00  0.00    +0.000 A 
ATOM      2  C   UNL     1       4.446   5.095  15.933  0.00  0.00    +0.000 A 
ATOM      3  C   UNL     1       5.513   5.396  15.081  0.00  0.00    +0.000 A 
ATOM      4  C   UNL     1       6.803   5.078  15.479  0.00  0.00    +0.000 A 
ATOM      5  C   UNL     1       7.027   4.476  16.713  0.00  0.00    +0.000 A 
ATOM      6  C   UNL     1       5.971   4.171  17.563  0.00  0.00    +0.000 A 
ENDROOT
BRANCH   1  10
ATOM      7  C   UNL     1       2.151   3.393  19.997  0.00  0.00    +0.000 A 
ATOM      8  C   UNL     1       1.377   3.825  18.944  0.00  0.00    +0.000 A 
ATOM      9  C   UNL     1       2.168   4.254  17.836  0.00  0.00    +0.000 A 
ATOM     10  C   UNL     1       3.527   4.127  18.066  0.00  0.00    +0.000 A 
ATOM     11  S   UNL     1       3.814   3.514  19.648  0.00  0.00    +0.000 S 
BRANCH   7  13
ATOM     12  N   UNL     1       1.251   2.507  22.254  0.00  0.00    +0.000 NA
ATOM     13  C   UNL     1       1.650   2.903  21.240  0.00  0.00    +0.000 C 
ENDBRANCH   7  13
ENDBRANCH   1  10
BRANCH   4  14
ATOM     14  O   UNL     1       7.886   5.340  14.688  0.00  0.00    +0.000 OA
ATOM     15  H   UNL     1       8.070   4.545  14.158  0.00  0.00    +0.000 HD
ENDBRANCH   4  14
BRANCH   5  16
ATOM     16  O   UNL     1       8.301   4.170  17.098  0.00  0.00    +0.000 OA
ATOM     17  H   UNL     1       8.476   4.757  17.861  0.00  0.00    +0.000 HD
ENDBRANCH   5  16
TORSDOF 4
ENDMDL
MODEL 5
REMARK VINA RESULT:      -6.2      4.475      6.503
REMARK  Name = 
REMARK  4 active torsions:
REMARK  status: ('A' for Active; 'I' for Inactive)
REMARK    1  A    between atoms: C_2  and  C_3
REMARK    2  A    between atoms: C_6  and  C_7
REMARK    3  A    between atoms: C_10  and  O_11
REMARK    4  A    between atoms: C_12  and  O_13
REMARK                            x       y       z     vdW  Elec       q    Type
REMARK                         _______ _______ _______ _____ _____    ______ ____
ROOT
ATOM      1  C   UNL     1       3.284   4.562  18.401  0.00  0.00    +0.000 A 
ATOM      2  C   UNL     1       2.872   5.273  19.546  0.00  0.00    +0.000 A 
ATOM      3  C   UNL     1       2.012   4.703  20.490  0.00  0.00    +0.000 A 
ATOM      4  C   UNL     1       1.546   3.414  20.284  0.00  0.00    +0.000 A 
ATOM      5  C   UNL     1       1.926   2.705  19.149  0.00  0.00    +0.000 A 
ATOM      6  C   UNL     1       2.785   3.264  18.209  0.00  0.00    +0.000 A 
ENDROOT
BRANCH   1  10
ATOM      7  C   UNL     1       5.912   5.475  15.641  0.00  0.00    +0.000 A 
ATOM      8  C   UNL     1       5.398   6.671  16.089  0.00  0.00    +0.000 A 
ATOM      9  C   UNL     1       4.415   6.485  17.107  0.00  0.00    +0.000 A 
ATOM     10  C   UNL     1       4.211   5.153  17.420  0.00  0.00    +0.000 A 
ATOM     11  S   UNL     1       5.204   4.146  16.439  0.00  0.00    +0.000 S 
BRANCH   7  13
ATOM     12  N   UNL     1       7.728   5.224  13.816  0.00  0.00    +0.000 NA
ATOM     13  C   UNL     1       6.910   5.334  14.631  0.00  0.00    +0.000 C 
ENDBRANCH   7  13
ENDBRANCH   1  10
BRANCH   4  14
ATOM     14  O   UNL     1       0.709   2.800  21.172  0.00  0.00    +0.000 OA
ATOM     15  H   UNL     1       0.219   2.109  20.695  0.00  0.00    +0.000 HD
ENDBRANCH   4  14
BRANCH   5  16
ATOM     16  O   UNL     1       1.459   1.436  18.952  0.00  0.00    +0.000 OA
ATOM     17  H   UNL     1       1.797   0.929  19.717  0.00  0.00    +0.000 HD
ENDBRANCH   5  16
TORSDOF 4
ENDMDL
MODEL 6
REMARK VINA RESULT:      -6.1      4.474      6.440
REMARK  Name = 
REMARK  4 active torsions:
REMARK  status: ('A' for Active; 'I' for Inactive)
REMARK    1  A    between atoms: C_2  and  C_3
REMARK    2  A    between atoms: C_6  and  C_7
REMARK    3  A    between atoms: C_10  and  O_11
REMARK    4  A    between atoms: C_12  and  O_13
REMARK                            x       y       z     vdW  Elec       q    Type
REMARK                         _______ _______ _______ _____ _____    ______ ____
ROOT
ATOM      1  C   UNL     1       3.793   3.915  18.303  0.00  0.00    +0.000 A 
ATOM      2  C   UNL     1       2.524   4.063  17.706  0.00  0.00    +0.000 A 
ATOM      3  C   UNL     1       1.350   3.760  18.403  0.00  0.00    +0.000 A 
ATOM      4  C   UNL     1       1.442   3.294  19.705  0.00  0.00    +0.000 A 
ATOM      5  C   UNL     1       2.687   3.123  20.303  0.00  0.00    +0.000 A 
ATOM      6  C   UNL     1       3.857   3.426  19.617  0.00  0.00    +0.000 A 
ENDROOT
BRANCH   1  10
ATOM      7  C   UNL     1       6.671   4.840  15.810  0.00  0.00    +0.000 A 
ATOM      8  C   UNL     1       7.249   4.792  17.058  0.00  0.00    +0.000 A 
ATOM      9  C   UNL     1       6.303   4.465  18.075  0.00  0.00    +0.000 A 
ATOM     10  C   UNL     1       5.028   4.259  17.577  0.00  0.00    +0.000 A 
ATOM     11  S   UNL     1       5.003   4.501  15.874  0.00  0.00    +0.000 S 
BRANCH   7  13
ATOM     12  N   UNL     1       7.909   5.384  13.604  0.00  0.00    +0.000 NA
ATOM     13  C   UNL     1       7.359   5.139  14.595  0.00  0.00    +0.000 C 
ENDBRANCH   7  13
ENDBRANCH   1  10
BRANCH   4  14
ATOM     14  O   UNL     1       0.332   2.987  20.441  0.00  0.00    +0.000 OA
ATOM     15  H   UNL     1       0.089   3.772  20.961  0.00  0.00    +0.000 HD
ENDBRANCH   4  14
BRANCH   5  16
ATOM     16  O   UNL     1       2.767   2.660  21.585  0.00  0.00    +0.000 OA
ATOM     17  H   UNL     1       2.180   3.251  22.098  0.00  0.00    +0.000 HD
ENDBRANCH   5  16
TORSDOF 4
ENDMDL
MODEL 7
REMARK VINA RESULT:      -6.1      1.368      1.905
REMARK  Name = 
REMARK  4 active torsions:
REMARK  status: ('A' for Active; 'I' for Inactive)
REMARK    1  A    between atoms: C_2  and  C_3
REMARK    2  A    between atoms: C_6  and  C_7
REMARK    3  A    between atoms: C_10  and  O_11
REMARK    4  A    between atoms: C_12  and  O_13
REMARK                            x       y       z     vdW  Elec       q    Type
REMARK                         _______ _______ _______ _____ _____    ______ ____
ROOT
ATOM      1  C   UNL     1       4.233   5.052  17.581  0.00  0.00    +0.000 A 
ATOM      2  C   UNL     1       4.463   6.343  17.063  0.00  0.00    +0.000 A 
ATOM      3  C   UNL     1       5.291   6.548  15.955  0.00  0.00    +0.000 A 
ATOM      4  C   UNL     1       5.907   5.456  15.364  0.00  0.00    +0.000 A 
ATOM      5  C   UNL     1       5.707   4.177  15.874  0.00  0.00    +0.000 A 
ATOM      6  C   UNL     1       4.882   3.966  16.972  0.00  0.00    +0.000 A 
ENDROOT
BRANCH   1  10
ATOM      7  C   UNL     1       2.123   3.826  20.647  0.00  0.00    +0.000 A 
ATOM      8  C   UNL     1       1.787   5.147  20.458  0.00  0.00    +0.000 A 
ATOM      9  C   UNL     1       2.493   5.728  19.361  0.00  0.00    +0.000 A 
ATOM     10  C   UNL     1       3.340   4.833  18.733  0.00  0.00    +0.000 A 
ATOM     11  S   UNL     1       3.283   3.301  19.516  0.00  0.00    +0.000 S 
BRANCH   7  13
ATOM     12  N   UNL     1       1.141   2.284  22.478  0.00  0.00    +0.000 NA
ATOM     13  C   UNL     1       1.585   2.977  21.661  0.00  0.00    +0.000 C 
ENDBRANCH   7  13
ENDBRANCH   1  10
BRANCH   4  14
ATOM     14  O   UNL     1       6.721   5.591  14.275  0.00  0.00    +0.000 OA
ATOM     15  H   UNL     1       6.641   4.784  13.737  0.00  0.00    +0.000 HD
ENDBRANCH   4  14
BRANCH   5  16
ATOM     16  O   UNL     1       6.321   3.108  15.287  0.00  0.00    +0.000 OA
ATOM     17  H   UNL     1       5.621   2.428  15.220  0.00  0.00    +0.000 HD
ENDBRANCH   5  16
TORSDOF 4
ENDMDL
MODEL 8
REMARK VINA RESULT:      -6.1      4.497      6.564
REMARK  Name = 
REMARK  4 active torsions:
REMARK  status: ('A' for Active; 'I' for Inactive)
REMARK    1  A    between atoms: C_2  and  C_3
REMARK    2  A    between atoms: C_6  and  C_7
REMARK    3  A    between atoms: C_10  and  O_11
REMARK    4  A    between atoms: C_12  and  O_13
REMARK                            x       y       z     vdW  Elec       q    Type
REMARK                         _______ _______ _______ _____ _____    ______ ____
ROOT
ATOM      1  C   UNL     1       3.820   4.085  18.472  0.00  0.00    +0.000 A 
ATOM      2  C   UNL     1       3.513   4.756  19.674  0.00  0.00    +0.000 A 
ATOM      3  C   UNL     1       2.364   4.449  20.408  0.00  0.00    +0.000 A 
ATOM      4  C   UNL     1       1.504   3.471  19.934  0.00  0.00    +0.000 A 
ATOM      5  C   UNL     1       1.781   2.813  18.740  0.00  0.00    +0.000 A 
ATOM      6  C   UNL     1       2.924   3.110  18.007  0.00  0.00    +0.000 A 
ENDROOT
BRANCH   1  10
ATOM      7  C   UNL     1       6.658   4.897  15.894  0.00  0.00    +0.000 A 
ATOM      8  C   UNL     1       7.260   4.882  17.131  0.00  0.00    +0.000 A 
ATOM      9  C   UNL     1       6.331   4.597  18.177  0.00  0.00    +0.000 A 
ATOM     10  C   UNL     1       5.045   4.391  17.711  0.00  0.00    +0.000 A 
ATOM     11  S   UNL     1       4.987   4.580  16.002  0.00  0.00    +0.000 S 
BRANCH   7  13
ATOM     12  N   UNL     1       7.862   5.364  13.652  0.00  0.00    +0.000 NA
ATOM     13  C   UNL     1       7.324   5.150  14.657  0.00  0.00    +0.000 C 
ENDBRANCH   7  13
ENDBRANCH   1  10
BRANCH   4  14
ATOM     14  O   UNL     1       0.369   3.121  20.609  0.00  0.00    +0.000 OA
ATOM     15  H   UNL     1      -0.395   3.340  20.048  0.00  0.00    +0.000 HD
ENDBRANCH   4  14
BRANCH   5  16
ATOM     16  O   UNL     1       0.926   1.853  18.278  0.00  0.00    +0.000 OA
ATOM     17  H   UNL     1       1.188   1.040  18.755  0.00  0.00    +0.000 HD
ENDBRANCH   5  16
TORSDOF 4
ENDMDL
MODEL 9
REMARK VINA RESULT:      -6.1      4.349      6.414
REMARK  Name = 
REMARK  4 active torsions:
REMARK  status: ('A' for Active; 'I' for Inactive)
REMARK    1  A    between atoms: C_2  and  C_3
REMARK    2  A    between atoms: C_6  and  C_7
REMARK    3  A    between atoms: C_10  and  O_11
REMARK    4  A    between atoms: C_12  and  O_13
REMARK                            x       y       z     vdW  Elec       q    Type
REMARK                         _______ _______ _______ _____ _____    ______ ____
ROOT
ATOM      1  C   UNL     1       3.248   4.350  18.978  0.00  0.00    +0.000 A 
ATOM      2  C   UNL     1       1.907   4.708  19.227  0.00  0.00    +0.000 A 
ATOM      3  C   UNL     1       1.185   4.142  20.282  0.00  0.00    +0.000 A 
ATOM      4  C   UNL     1       1.802   3.200  21.090  0.00  0.00    +0.000 A 
ATOM      5  C   UNL     1       3.118   2.821  20.846  0.00  0.00    +0.000 A 
ATOM      6  C   UNL     1       3.843   3.382  19.802  0.00  0.00    +0.000 A 
ENDROOT
BRANCH   1  10
ATOM      7  C   UNL     1       5.506   5.338  15.930  0.00  0.00    +0.000 A 
ATOM      8  C   UNL     1       4.922   6.506  16.366  0.00  0.00    +0.000 A 
ATOM      9  C   UNL     1       4.060   6.291  17.484  0.00  0.00    +0.000 A 
ATOM     10  C   UNL     1       4.018   4.966  17.882  0.00  0.00    +0.000 A 
ATOM     11  S   UNL     1       5.009   3.999  16.860  0.00  0.00    +0.000 S 
BRANCH   7  13
ATOM     12  N   UNL     1       7.160   5.140  13.951  0.00  0.00    +0.000 NA
ATOM     13  C   UNL     1       6.415   5.231  14.835  0.00  0.00    +0.000 C 
ENDBRANCH   7  13
ENDBRANCH   1  10
BRANCH   4  14
ATOM     14  O   UNL     1       1.151   2.616  22.140  0.00  0.00    +0.000 OA
ATOM     15  H   UNL     1       0.599   3.293  22.567  0.00  0.00    +0.000 HD
ENDBRANCH   4  14
BRANCH   5  16
ATOM     16  O   UNL     1       3.715   1.888  21.646  0.00  0.00    +0.000 OA
ATOM     17  H   UNL     1       4.132   1.260  21.023  0.00  0.00    +0.000 HD
ENDBRANCH   5  16
TORSDOF 4
ENDMDL
