MODEL 1
REMARK VINA RESULT:      -7.3      0.000      0.000
REMARK  Name = 
REMARK  14 active torsions:
REMARK  status: ('A' for Active; 'I' for Inactive)
REMARK    1  A    between atoms: C_1  and  N_2
REMARK    2  A    between atoms: N_10  and  C_11
REMARK    3  A    between atoms: C_11  and  C_12
REMARK    4  A    between atoms: C_12  and  O_13
REMARK    5  A    between atoms: O_13  and  P_14
REMARK    6  A    between atoms: P_14  and  O_16
REMARK    7  A    between atoms: P_14  and  O_17
REMARK    8  A    between atoms: O_17  and  P_18
REMARK    9  A    between atoms: P_18  and  O_20
REMARK   10  A    between atoms: P_18  and  O_21
REMARK   11  A    between atoms: O_21  and  P_22
REMARK   12  A    between atoms: P_22  and  O_24
REMARK   13  A    between atoms: P_22  and  O_25
REMARK   14  A    between atoms: N_26  and  C_27
REMARK                            x       y       z     vdW  Elec       q    Type
REMARK                         _______ _______ _______ _____ _____    ______ ____
ROOT
ATOM      1  O   UNL     1       2.942   3.921  18.918  0.00  0.00    +0.000 OA
ENDROOT
BRANCH   1   2
ATOM      2  P   UNL     1       4.665   4.068  18.964  0.00  0.00    +0.000 P 
ATOM      3  O   UNL     1       4.771   2.786  19.793  0.00  0.00    +0.000 OA
BRANCH   2   4
ATOM      4  O   UNL     1       4.716   3.719  17.375  0.00  0.00    +0.000 OA
ATOM      5  H   UNL     1       3.851   3.443  17.018  0.00  0.00    +0.000 HD
ENDBRANCH   2   4
BRANCH   2   6
ATOM      6  O   UNL     1       6.388   4.216  19.008  0.00  0.00    +0.000 OA
BRANCH   6   7
ATOM      7  P   UNL     1       6.940   4.969  17.552  0.00  0.00    +0.000 P 
ATOM      8  O   UNL     1       7.221   6.256  18.340  0.00  0.00    +0.000 OA
BRANCH   7   9
ATOM      9  O   UNL     1       8.306   4.047  17.672  0.00  0.00    +0.000 OA
ATOM     10  H   UNL     1       7.983   3.163  17.973  0.00  0.00    +0.000 HD
ENDBRANCH   7   9
BRANCH   7  11
ATOM     11  O   UNL     1       7.492   5.722  16.095  0.00  0.00    +0.000 OA
BRANCH  11  12
ATOM     12  P   UNL     1       6.860   4.868  14.730  0.00  0.00    +0.000 P 
ATOM     13  O   UNL     1       5.613   5.748  14.664  0.00  0.00    +0.000 OA
BRANCH  12  14
ATOM     14  O   UNL     1       7.957   5.578  13.756  0.00  0.00    +0.000 OA
ATOM     15  H   UNL     1       7.666   6.456  13.454  0.00  0.00    +0.000 HD
ENDBRANCH  12  14
BRANCH  12  16
ATOM     16  O   UNL     1       6.228   4.015  13.364  0.00  0.00    +0.000 OA
ATOM     17  H   UNL     1       6.594   3.114  13.490  0.00  0.00    +0.000 HD
ENDBRANCH  12  16
ENDBRANCH  11  12
ENDBRANCH   7  11
ENDBRANCH   6   7
ENDBRANCH   2   6
ENDBRANCH   1   2
BRANCH   1  18
ATOM     18  C   UNL     1       2.292   5.185  18.692  0.00  0.00    +0.000 C 
BRANCH  18  19
ATOM     19  C   UNL     1       2.866   6.350  19.492  0.00  0.00    +0.000 C 
BRANCH  19  29
ATOM     20  C   UNL     1      -0.559   9.479  22.565  0.00  0.00    +0.000 C 
ATOM     21  N   UNL     1       0.129   9.474  21.291  0.00  0.00    +0.000 N 
ATOM     22  C   UNL     1       0.948   8.387  20.990  0.00  0.00    +0.000 A 
ATOM     23  O   UNL     1       1.105   7.423  21.732  0.00  0.00    +0.000 OA
ATOM     24  C   UNL     1       1.573   8.497  19.718  0.00  0.00    +0.000 A 
ATOM     25  C   UNL     1       1.375   9.555  18.875  0.00  0.00    +0.000 A 
ATOM     26  N   UNL     1       2.057   9.416  17.708  0.00  0.00    +0.000 NA
ATOM     27  C   UNL     1       2.677   8.267  17.843  0.00  0.00    +0.000 A 
ATOM     28 CL   UNL     1       3.660   7.545  16.654  0.00  0.00    +0.000 Cl
ATOM     29  N   UNL     1       2.433   7.661  19.050  0.00  0.00    +0.000 N 
ATOM     30  N   UNL     1       0.548  10.599  19.218  0.00  0.00    +0.000 N 
ATOM     31  C   UNL     1       0.340  11.734  18.340  0.00  0.00    +0.000 C 
ATOM     32  C   UNL     1      -0.096  10.586  20.455  0.00  0.00    +0.000 A 
ATOM     33  O   UNL     1      -0.840  11.503  20.802  0.00  0.00    +0.000 OA
ENDBRANCH  19  29
ENDBRANCH  18  19
ENDBRANCH   1  18
TORSDOF 12
ENDMDL
MODEL 2
REMARK VINA RESULT:      -7.1      1.702      2.627
REMARK  Name = 
REMARK  14 active torsions:
REMARK  status: ('A' for Active; 'I' for Inactive)
REMARK    1  A    between atoms: C_1  and  N_2
REMARK    2  A    between atoms: N_10  and  C_11
REMARK    3  A    between atoms: C_11  and  C_12
REMARK    4  A    between atoms: C_12  and  O_13
REMARK    5  A    between atoms: O_13  and  P_14
REMARK    6  A    between atoms: P_14  and  O_16
REMARK    7  A    between atoms: P_14  and  O_17
REMARK    8  A    between atoms: O_17  and  P_18
REMARK    9  A    between atoms: P_18  and  O_20
REMARK   10  A    between atoms: P_18  and  O_21
REMARK   11  A    between atoms: O_21  and  P_22
REMARK   12  A    between atoms: P_22  and  O_24
REMARK   13  A    between atoms: P_22  and  O_25
REMARK   14  A    between atoms: N_26  and  C_27
REMARK                            x       y       z     vdW  Elec       q    Type
REMARK                         _______ _______ _______ _____ _____    ______ ____
ROOT
ATOM      1  O   UNL     1       2.472   5.291  20.789  0.00  0.00    +0.000 OA
ENDROOT
BRANCH   1   2
ATOM      2  P   UNL     1       2.901   4.226  19.496  0.00  0.00    +0.000 P 
ATOM      3  O   UNL     1       2.984   3.047  20.469  0.00  0.00    +0.000 OA
BRANCH   2   4
ATOM      4  O   UNL     1       1.391   4.367  18.906  0.00  0.00    +0.000 OA
ATOM      5  H   UNL     1       1.329   4.143  17.959  0.00  0.00    +0.000 HD
ENDBRANCH   2   4
BRANCH   2   6
ATOM      6  O   UNL     1       3.330   3.162  18.201  0.00  0.00    +0.000 OA
BRANCH   6   7
ATOM      7  P   UNL     1       4.725   3.777  17.386  0.00  0.00    +0.000 P 
ATOM      8  O   UNL     1       4.108   5.182  17.417  0.00  0.00    +0.000 OA
BRANCH   7   9
ATOM      9  O   UNL     1       5.549   3.604  18.807  0.00  0.00    +0.000 OA
ATOM     10  H   UNL     1       5.969   2.711  18.745  0.00  0.00    +0.000 HD
ENDBRANCH   7   9
BRANCH   7  11
ATOM     11  O   UNL     1       6.122   4.393  16.571  0.00  0.00    +0.000 OA
BRANCH  11  12
ATOM     12  P   UNL     1       7.040   5.375  17.661  0.00  0.00    +0.000 P 
ATOM     13  O   UNL     1       8.134   4.320  17.806  0.00  0.00    +0.000 OA
BRANCH  12  14
ATOM     14  O   UNL     1       7.507   6.336  16.430  0.00  0.00    +0.000 OA
ATOM     15  H   UNL     1       7.383   7.279  16.635  0.00  0.00    +0.000 HD
ENDBRANCH  12  14
BRANCH  12  16
ATOM     16  O   UNL     1       7.958   6.357  18.750  0.00  0.00    +0.000 OA
ATOM     17  H   UNL     1       7.498   6.212  19.605  0.00  0.00    +0.000 HD
ENDBRANCH  12  16
ENDBRANCH  11  12
ENDBRANCH   7  11
ENDBRANCH   6   7
ENDBRANCH   2   6
ENDBRANCH   1   2
BRANCH   1  18
ATOM     18  C   UNL     1       1.557   6.319  20.370  0.00  0.00    +0.000 C 
BRANCH  18  19
ATOM     19  C   UNL     1       1.881   7.715  20.893  0.00  0.00    +0.000 C 
BRANCH  19  29
ATOM     20  C   UNL     1      -1.639  11.414  23.105  0.00  0.00    +0.000 C 
ATOM     21  N   UNL     1      -1.010  11.064  21.848  0.00  0.00    +0.000 N 
ATOM     22  C   UNL     1      -0.122   9.989  21.834  0.00  0.00    +0.000 A 
ATOM     23  O   UNL     1       0.142   9.308  22.819  0.00  0.00    +0.000 OA
ATOM     24  C   UNL     1       0.435   9.746  20.549  0.00  0.00    +0.000 A 
ATOM     25  C   UNL     1       0.117  10.484  19.443  0.00  0.00    +0.000 A 
ATOM     26  N   UNL     1       0.756  10.038  18.329  0.00  0.00    +0.000 NA
ATOM     27  C   UNL     1       1.470   9.026  18.760  0.00  0.00    +0.000 A 
ATOM     28 CL   UNL     1       2.452   8.038  17.781  0.00  0.00    +0.000 Cl
ATOM     29  N   UNL     1       1.328   8.800  20.107  0.00  0.00    +0.000 N 
ATOM     30  N   UNL     1      -0.772  11.530  19.511  0.00  0.00    +0.000 N 
ATOM     31  C   UNL     1      -1.108  12.329  18.348  0.00  0.00    +0.000 C 
ATOM     32  C   UNL     1      -1.358  11.854  20.734  0.00  0.00    +0.000 A 
ATOM     33  O   UNL     1      -2.156  12.785  20.839  0.00  0.00    +0.000 OA
ENDBRANCH  19  29
ENDBRANCH  18  19
ENDBRANCH   1  18
TORSDOF 12
ENDMDL
MODEL 3
REMARK VINA RESULT:      -7.1      1.570      2.338
REMARK  Name = 
REMARK  14 active torsions:
REMARK  status: ('A' for Active; 'I' for Inactive)
REMARK    1  A    between atoms: C_1  and  N_2
REMARK    2  A    between atoms: N_10  and  C_11
REMARK    3  A    between atoms: C_11  and  C_12
REMARK    4  A    between atoms: C_12  and  O_13
REMARK    5  A    between atoms: O_13  and  P_14
REMARK    6  A    between atoms: P_14  and  O_16
REMARK    7  A    between atoms: P_14  and  O_17
REMARK    8  A    between atoms: O_17  and  P_18
REMARK    9  A    between atoms: P_18  and  O_20
REMARK   10  A    between atoms: P_18  and  O_21
REMARK   11  A    between atoms: O_21  and  P_22
REMARK   12  A    between atoms: P_22  and  O_24
REMARK   13  A    between atoms: P_22  and  O_25
REMARK   14  A    between atoms: N_26  and  C_27
REMARK                            x       y       z     vdW  Elec       q    Type
REMARK                         _______ _______ _______ _____ _____    ______ ____
ROOT
ATOM      1  O   UNL     1       1.851   5.145  21.114  0.00  0.00    +0.000 OA
ENDROOT
BRANCH   1   2
ATOM      2  P   UNL     1       2.625   4.346  19.789  0.00  0.00    +0.000 P 
ATOM      3  O   UNL     1       2.726   3.053  20.604  0.00  0.00    +0.000 OA
BRANCH   2   4
ATOM      4  O   UNL     1       1.220   4.388  18.969  0.00  0.00    +0.000 OA
ATOM      5  H   UNL     1       0.881   3.500  18.749  0.00  0.00    +0.000 HD
ENDBRANCH   2   4
BRANCH   2   6
ATOM      6  O   UNL     1       3.399   3.547  18.464  0.00  0.00    +0.000 OA
BRANCH   6   7
ATOM      7  P   UNL     1       5.065   4.007  18.407  0.00  0.00    +0.000 P 
ATOM      8  O   UNL     1       4.738   5.249  19.247  0.00  0.00    +0.000 OA
BRANCH   7   9
ATOM      9  O   UNL     1       5.369   2.790  19.482  0.00  0.00    +0.000 OA
ATOM     10  H   UNL     1       5.586   2.008  18.918  0.00  0.00    +0.000 HD
ENDBRANCH   7   9
BRANCH   7  11
ATOM     11  O   UNL     1       6.733   4.467  18.350  0.00  0.00    +0.000 OA
BRANCH  11  12
ATOM     12  P   UNL     1       7.148   4.926  16.734  0.00  0.00    +0.000 P 
ATOM     13  O   UNL     1       6.164   3.933  16.121  0.00  0.00    +0.000 OA
BRANCH  12  14
ATOM     14  O   UNL     1       6.326   6.324  16.901  0.00  0.00    +0.000 OA
ATOM     15  H   UNL     1       6.919   7.087  17.008  0.00  0.00    +0.000 HD
ENDBRANCH  12  14
BRANCH  12  16
ATOM     16  O   UNL     1       7.563   5.386  15.119  0.00  0.00    +0.000 OA
ATOM     17  H   UNL     1       7.974   4.569  14.765  0.00  0.00    +0.000 HD
ENDBRANCH  12  16
ENDBRANCH  11  12
ENDBRANCH   7  11
ENDBRANCH   6   7
ENDBRANCH   2   6
ENDBRANCH   1   2
BRANCH   1  18
ATOM     18  C   UNL     1       1.149   6.331  20.700  0.00  0.00    +0.000 C 
BRANCH  18  19
ATOM     19  C   UNL     1       1.975   7.613  20.754  0.00  0.00    +0.000 C 
BRANCH  19  29
ATOM     20  C   UNL     1      -1.491  11.278  23.103  0.00  0.00    +0.000 C 
ATOM     21  N   UNL     1      -0.879  10.956  21.830  0.00  0.00    +0.000 N 
ATOM     22  C   UNL     1       0.000   9.876  21.777  0.00  0.00    +0.000 A 
ATOM     23  O   UNL     1       0.271   9.168  22.741  0.00  0.00    +0.000 OA
ATOM     24  C   UNL     1       0.540   9.662  20.480  0.00  0.00    +0.000 A 
ATOM     25  C   UNL     1       0.215  10.431  19.398  0.00  0.00    +0.000 A 
ATOM     26  N   UNL     1       0.838  10.010  18.265  0.00  0.00    +0.000 NA
ATOM     27  C   UNL     1       1.549   8.981  18.661  0.00  0.00    +0.000 A 
ATOM     28 CL   UNL     1       2.512   8.012  17.645  0.00  0.00    +0.000 Cl
ATOM     29  N   UNL     1       1.421   8.722  20.003  0.00  0.00    +0.000 N 
ATOM     30  N   UNL     1      -0.665  11.481  19.503  0.00  0.00    +0.000 N 
ATOM     31  C   UNL     1      -1.008  12.314  18.366  0.00  0.00    +0.000 C 
ATOM     32  C   UNL     1      -1.234  11.778  20.741  0.00  0.00    +0.000 A 
ATOM     33  O   UNL     1      -2.024  12.712  20.879  0.00  0.00    +0.000 OA
ENDBRANCH  19  29
ENDBRANCH  18  19
ENDBRANCH   1  18
TORSDOF 12
ENDMDL
MODEL 4
REMARK VINA RESULT:      -7.0      1.688      2.471
REMARK  Name = 
REMARK  14 active torsions:
REMARK  status: ('A' for Active; 'I' for Inactive)
REMARK    1  A    between atoms: C_1  and  N_2
REMARK    2  A    between atoms: N_10  and  C_11
REMARK    3  A    between atoms: C_11  and  C_12
REMARK    4  A    between atoms: C_12  and  O_13
REMARK    5  A    between atoms: O_13  and  P_14
REMARK    6  A    between atoms: P_14  and  O_16
REMARK    7  A    between atoms: P_14  and  O_17
REMARK    8  A    between atoms: O_17  and  P_18
REMARK    9  A    between atoms: P_18  and  O_20
REMARK   10  A    between atoms: P_18  and  O_21
REMARK   11  A    between atoms: O_21  and  P_22
REMARK   12  A    between atoms: P_22  and  O_24
REMARK   13  A    between atoms: P_22  and  O_25
REMARK   14  A    between atoms: N_26  and  C_27
REMARK                            x       y       z     vdW  Elec       q    Type
REMARK                         _______ _______ _______ _____ _____    ______ ____
ROOT
ATOM      1  O   UNL     1       2.994   3.628  17.858  0.00  0.00    +0.000 OA
ENDROOT
BRANCH   1   2
ATOM      2  P   UNL     1       4.599   4.209  18.144  0.00  0.00    +0.000 P 
ATOM      3  O   UNL     1       4.667   3.430  19.460  0.00  0.00    +0.000 OA
BRANCH   2   4
ATOM      4  O   UNL     1       5.129   3.287  16.913  0.00  0.00    +0.000 OA
ATOM      5  H   UNL     1       4.955   2.336  17.047  0.00  0.00    +0.000 HD
ENDBRANCH   2   4
BRANCH   2   6
ATOM      6  O   UNL     1       6.203   4.790  18.428  0.00  0.00    +0.000 OA
BRANCH   6   7
ATOM      7  P   UNL     1       6.944   5.200  16.920  0.00  0.00    +0.000 P 
ATOM      8  O   UNL     1       7.380   6.546  17.514  0.00  0.00    +0.000 OA
BRANCH   7   9
ATOM      9  O   UNL     1       8.140   4.122  17.291  0.00  0.00    +0.000 OA
ATOM     10  H   UNL     1       7.664   3.274  17.469  0.00  0.00    +0.000 HD
ENDBRANCH   7   9
BRANCH   7  11
ATOM     11  O   UNL     1       7.685   5.610  15.411  0.00  0.00    +0.000 OA
BRANCH  11  12
ATOM     12  P   UNL     1       7.106   4.543  14.177  0.00  0.00    +0.000 P 
ATOM     13  O   UNL     1       5.651   4.939  14.415  0.00  0.00    +0.000 OA
BRANCH  12  14
ATOM     14  O   UNL     1       7.658   5.553  13.021  0.00  0.00    +0.000 OA
ATOM     15  H   UNL     1       7.643   5.143  12.139  0.00  0.00    +0.000 HD
ENDBRANCH  12  14
BRANCH  12  16
ATOM     16  O   UNL     1       6.528   3.479  12.942  0.00  0.00    +0.000 OA
ATOM     17  H   UNL     1       6.135   2.745  13.462  0.00  0.00    +0.000 HD
ENDBRANCH  12  16
ENDBRANCH  11  12
ENDBRANCH   7  11
ENDBRANCH   6   7
ENDBRANCH   2   6
ENDBRANCH   1   2
BRANCH   1  18
ATOM     18  C   UNL     1       2.002   4.654  18.039  0.00  0.00    +0.000 C 
BRANCH  18  19
ATOM     19  C   UNL     1       2.565   6.049  18.292  0.00  0.00    +0.000 C 
BRANCH  19  29
ATOM     20  C   UNL     1       1.560  11.519  18.089  0.00  0.00    +0.000 C 
ATOM     21  N   UNL     1       1.462  10.384  18.984  0.00  0.00    +0.000 N 
ATOM     22  C   UNL     1       1.846   9.133  18.504  0.00  0.00    +0.000 A 
ATOM     23  O   UNL     1       2.282   8.939  17.374  0.00  0.00    +0.000 OA
ATOM     24  C   UNL     1       1.700   8.099  19.468  0.00  0.00    +0.000 A 
ATOM     25  C   UNL     1       1.245   8.319  20.738  0.00  0.00    +0.000 A 
ATOM     26  N   UNL     1       1.224   7.179  21.479  0.00  0.00    +0.000 NA
ATOM     27  C   UNL     1       1.666   6.260  20.654  0.00  0.00    +0.000 A 
ATOM     28 CL   UNL     1       1.901   4.622  21.055  0.00  0.00    +0.000 Cl
ATOM     29  N   UNL     1       1.965   6.752  19.408  0.00  0.00    +0.000 N 
ATOM     30  N   UNL     1       0.887   9.576  21.164  0.00  0.00    +0.000 N 
ATOM     31  C   UNL     1       0.390   9.820  22.504  0.00  0.00    +0.000 C 
ATOM     32  C   UNL     1       0.981  10.651  20.281  0.00  0.00    +0.000 A 
ATOM     33  O   UNL     1       0.667  11.792  20.621  0.00  0.00    +0.000 OA
ENDBRANCH  19  29
ENDBRANCH  18  19
ENDBRANCH   1  18
TORSDOF 12
ENDMDL
MODEL 5
REMARK VINA RESULT:      -6.8      4.962      8.126
REMARK  Name = 
REMARK  14 active torsions:
REMARK  status: ('A' for Active; 'I' for Inactive)
REMARK    1  A    between atoms: C_1  and  N_2
REMARK    2  A    between atoms: N_10  and  C_11
REMARK    3  A    between atoms: C_11  and  C_12
REMARK    4  A    between atoms: C_12  and  O_13
REMARK    5  A    between atoms: O_13  and  P_14
REMARK    6  A    between atoms: P_14  and  O_16
REMARK    7  A    between atoms: P_14  and  O_17
REMARK    8  A    between atoms: O_17  and  P_18
REMARK    9  A    between atoms: P_18  and  O_20
REMARK   10  A    between atoms: P_18  and  O_21
REMARK   11  A    between atoms: O_21  and  P_22
REMARK   12  A    between atoms: P_22  and  O_24
REMARK   13  A    between atoms: P_22  and  O_25
REMARK   14  A    between atoms: N_26  and  C_27
REMARK                            x       y       z     vdW  Elec       q    Type
REMARK                         _______ _______ _______ _____ _____    ______ ____
ROOT
ATOM      1  O   UNL     1       2.307   8.649  17.245  0.00  0.00    +0.000 OA
ENDROOT
BRANCH   1   2
ATOM      2  P   UNL     1       1.260   9.360  18.425  0.00  0.00    +0.000 P 
ATOM      3  O   UNL     1       1.869   8.482  19.521  0.00  0.00    +0.000 OA
BRANCH   2   4
ATOM      4  O   UNL     1       2.089  10.754  18.291  0.00  0.00    +0.000 OA
ATOM      5  H   UNL     1       2.835  10.814  18.916  0.00  0.00    +0.000 HD
ENDBRANCH   2   4
BRANCH   2   6
ATOM      6  O   UNL     1       0.213  10.071  19.604  0.00  0.00    +0.000 OA
BRANCH   6   7
ATOM      7  P   UNL     1      -1.151  10.779  18.811  0.00  0.00    +0.000 P 
ATOM      8  O   UNL     1      -0.465  12.150  18.882  0.00  0.00    +0.000 OA
BRANCH   7   9
ATOM      9  O   UNL     1      -0.624  10.071  17.415  0.00  0.00    +0.000 OA
ATOM     10  H   UNL     1       0.058   9.419  17.709  0.00  0.00    +0.000 HD
ENDBRANCH   7   9
BRANCH   7  11
ATOM     11  O   UNL     1      -2.517  11.488  18.017  0.00  0.00    +0.000 OA
BRANCH  11  12
ATOM     12  P   UNL     1      -2.939  10.535  16.637  0.00  0.00    +0.000 P 
ATOM     13  O   UNL     1      -4.426  10.848  16.783  0.00  0.00    +0.000 OA
BRANCH  12  14
ATOM     14  O   UNL     1      -2.339  11.679  15.642  0.00  0.00    +0.000 OA
ATOM     15  H   UNL     1      -3.000  12.360  15.427  0.00  0.00    +0.000 HD
ENDBRANCH  12  14
BRANCH  12  16
ATOM     16  O   UNL     1      -3.361   9.583  15.255  0.00  0.00    +0.000 OA
ATOM     17  H   UNL     1      -3.139   8.674  15.548  0.00  0.00    +0.000 HD
ENDBRANCH  12  16
ENDBRANCH  11  12
ENDBRANCH   7  11
ENDBRANCH   6   7
ENDBRANCH   2   6
ENDBRANCH   1   2
BRANCH   1  18
ATOM     18  C   UNL     1       3.425   7.971  17.845  0.00  0.00    +0.000 C 
BRANCH  18  19
ATOM     19  C   UNL     1       3.983   6.812  17.025  0.00  0.00    +0.000 C 
BRANCH  19  29
ATOM     20  C   UNL     1       0.433   2.914  18.807  0.00  0.00    +0.000 C 
ATOM     21  N   UNL     1       1.831   3.286  18.875  0.00  0.00    +0.000 N 
ATOM     22  C   UNL     1       2.246   4.420  18.178  0.00  0.00    +0.000 A 
ATOM     23  O   UNL     1       1.492   5.135  17.526  0.00  0.00    +0.000 OA
ATOM     24  C   UNL     1       3.637   4.679  18.315  0.00  0.00    +0.000 A 
ATOM     25  C   UNL     1       4.473   3.902  19.067  0.00  0.00    +0.000 A 
ATOM     26  N   UNL     1       5.748   4.372  19.066  0.00  0.00    +0.000 NA
ATOM     27  C   UNL     1       5.689   5.439  18.306  0.00  0.00    +0.000 A 
ATOM     28 CL   UNL     1       6.999   6.476  17.978  0.00  0.00    +0.000 Cl
ATOM     29  N   UNL     1       4.432   5.677  17.807  0.00  0.00    +0.000 N 
ATOM     30  N   UNL     1       4.010   2.798  19.742  0.00  0.00    +0.000 N 
ATOM     31  C   UNL     1       4.888   1.956  20.533  0.00  0.00    +0.000 C 
ATOM     32  C   UNL     1       2.661   2.454  19.654  0.00  0.00    +0.000 A 
ATOM     33  O   UNL     1       2.207   1.471  20.239  0.00  0.00    +0.000 OA
ENDBRANCH  19  29
ENDBRANCH  18  19
ENDBRANCH   1  18
TORSDOF 12
ENDMDL
MODEL 6
REMARK VINA RESULT:      -6.8      2.050      3.333
REMARK  Name = 
REMARK  14 active torsions:
REMARK  status: ('A' for Active; 'I' for Inactive)
REMARK    1  A    between atoms: C_1  and  N_2
REMARK    2  A    between atoms: N_10  and  C_11
REMARK    3  A    between atoms: C_11  and  C_12
REMARK    4  A    between atoms: C_12  and  O_13
REMARK    5  A    between atoms: O_13  and  P_14
REMARK    6  A    between atoms: P_14  and  O_16
REMARK    7  A    between atoms: P_14  and  O_17
REMARK    8  A    between atoms: O_17  and  P_18
REMARK    9  A    between atoms: P_18  and  O_20
REMARK   10  A    between atoms: P_18  and  O_21
REMARK   11  A    between atoms: O_21  and  P_22
REMARK   12  A    between atoms: P_22  and  O_24
REMARK   13  A    between atoms: P_22  and  O_25
REMARK   14  A    between atoms: N_26  and  C_27
REMARK                            x       y       z     vdW  Elec       q    Type
REMARK                         _______ _______ _______ _____ _____    ______ ____
ROOT
ATOM      1  O   UNL     1       1.946   5.365  21.505  0.00  0.00    +0.000 OA
ENDROOT
BRANCH   1   2
ATOM      2  P   UNL     1       2.199   3.856  20.697  0.00  0.00    +0.000 P 
ATOM      3  O   UNL     1       2.114   3.107  22.029  0.00  0.00    +0.000 OA
BRANCH   2   4
ATOM      4  O   UNL     1       0.721   3.990  20.029  0.00  0.00    +0.000 OA
ATOM      5  H   UNL     1       0.586   3.381  19.278  0.00  0.00    +0.000 HD
ENDBRANCH   2   4
BRANCH   2   6
ATOM      6  O   UNL     1       2.451   2.348  19.888  0.00  0.00    +0.000 OA
BRANCH   6   7
ATOM      7  P   UNL     1       3.358   2.615  18.440  0.00  0.00    +0.000 P 
ATOM      8  O   UNL     1       3.771   1.137  18.441  0.00  0.00    +0.000 OA
BRANCH   7   9
ATOM      9  O   UNL     1       1.919   2.691  17.632  0.00  0.00    +0.000 OA
ATOM     10  H   UNL     1       2.168   2.906  16.700  0.00  0.00    +0.000 HD
ENDBRANCH   7   9
BRANCH   7  11
ATOM     11  O   UNL     1       4.266   2.883  16.990  0.00  0.00    +0.000 OA
BRANCH  11  12
ATOM     12  P   UNL     1       5.230   4.308  17.170  0.00  0.00    +0.000 P 
ATOM     13  O   UNL     1       4.025   5.165  17.548  0.00  0.00    +0.000 OA
BRANCH  12  14
ATOM     14  O   UNL     1       5.833   3.743  18.576  0.00  0.00    +0.000 OA
ATOM     15  H   UNL     1       5.817   2.771  18.617  0.00  0.00    +0.000 HD
ENDBRANCH  12  14
BRANCH  12  16
ATOM     16  O   UNL     1       6.195   5.732  17.352  0.00  0.00    +0.000 OA
ATOM     17  H   UNL     1       6.207   6.097  16.441  0.00  0.00    +0.000 HD
ENDBRANCH  12  16
ENDBRANCH  11  12
ENDBRANCH   7  11
ENDBRANCH   6   7
ENDBRANCH   2   6
ENDBRANCH   1   2
BRANCH   1  18
ATOM     18  C   UNL     1       1.424   6.375  20.624  0.00  0.00    +0.000 C 
BRANCH  18  19
ATOM     19  C   UNL     1       2.016   7.766  20.826  0.00  0.00    +0.000 C 
BRANCH  19  29
ATOM     20  C   UNL     1      -1.571  11.315  23.173  0.00  0.00    +0.000 C 
ATOM     21  N   UNL     1      -0.986  10.982  21.891  0.00  0.00    +0.000 N 
ATOM     22  C   UNL     1      -0.048   9.951  21.843  0.00  0.00    +0.000 A 
ATOM     23  O   UNL     1       0.295   9.294  22.820  0.00  0.00    +0.000 OA
ATOM     24  C   UNL     1       0.459   9.722  20.535  0.00  0.00    +0.000 A 
ATOM     25  C   UNL     1       0.054  10.432  19.440  0.00  0.00    +0.000 A 
ATOM     26  N   UNL     1       0.661  10.006  18.300  0.00  0.00    +0.000 NA
ATOM     27  C   UNL     1       1.442   9.033  18.705  0.00  0.00    +0.000 A 
ATOM     28 CL   UNL     1       2.424   8.084  17.688  0.00  0.00    +0.000 Cl
ATOM     29  N   UNL     1       1.375   8.816  20.059  0.00  0.00    +0.000 N 
ATOM     30  N   UNL     1      -0.881  11.435  19.541  0.00  0.00    +0.000 N 
ATOM     31  C   UNL     1      -1.309  12.205  18.389  0.00  0.00    +0.000 C 
ATOM     32  C   UNL     1      -1.423  11.743  20.788  0.00  0.00    +0.000 A 
ATOM     33  O   UNL     1      -2.260  12.636  20.923  0.00  0.00    +0.000 OA
ENDBRANCH  19  29
ENDBRANCH  18  19
ENDBRANCH   1  18
TORSDOF 12
ENDMDL
MODEL 7
REMARK VINA RESULT:      -6.8      1.890      3.056
REMARK  Name = 
REMARK  14 active torsions:
REMARK  status: ('A' for Active; 'I' for Inactive)
REMARK    1  A    between atoms: C_1  and  N_2
REMARK    2  A    between atoms: N_10  and  C_11
REMARK    3  A    between atoms: C_11  and  C_12
REMARK    4  A    between atoms: C_12  and  O_13
REMARK    5  A    between atoms: O_13  and  P_14
REMARK    6  A    between atoms: P_14  and  O_16
REMARK    7  A    between atoms: P_14  and  O_17
REMARK    8  A    between atoms: O_17  and  P_18
REMARK    9  A    between atoms: P_18  and  O_20
REMARK   10  A    between atoms: P_18  and  O_21
REMARK   11  A    between atoms: O_21  and  P_22
REMARK   12  A    between atoms: P_22  and  O_24
REMARK   13  A    between atoms: P_22  and  O_25
REMARK   14  A    between atoms: N_26  and  C_27
REMARK                            x       y       z     vdW  Elec       q    Type
REMARK                         _______ _______ _______ _____ _____    ______ ____
ROOT
ATOM      1  O   UNL     1       1.560   5.971  20.943  0.00  0.00    +0.000 OA
ENDROOT
BRANCH   1   2
ATOM      2  P   UNL     1       2.360   4.665  20.138  0.00  0.00    +0.000 P 
ATOM      3  O   UNL     1       1.519   4.901  18.881  0.00  0.00    +0.000 OA
BRANCH   2   4
ATOM      4  O   UNL     1       3.719   5.558  20.084  0.00  0.00    +0.000 OA
ATOM      5  H   UNL     1       4.352   5.332  20.792  0.00  0.00    +0.000 HD
ENDBRANCH   2   4
BRANCH   2   6
ATOM      6  O   UNL     1       3.161   3.359  19.334  0.00  0.00    +0.000 OA
BRANCH   6   7
ATOM      7  P   UNL     1       4.581   3.952  18.544  0.00  0.00    +0.000 P 
ATOM      8  O   UNL     1       5.440   3.348  19.663  0.00  0.00    +0.000 OA
BRANCH   7   9
ATOM      9  O   UNL     1       4.376   2.757  17.423  0.00  0.00    +0.000 OA
ATOM     10  H   UNL     1       4.071   1.975  17.945  0.00  0.00    +0.000 HD
ENDBRANCH   7   9
BRANCH   7  11
ATOM     11  O   UNL     1       6.002   4.546  17.754  0.00  0.00    +0.000 OA
BRANCH  11  12
ATOM     12  P   UNL     1       5.550   5.709  16.555  0.00  0.00    +0.000 P 
ATOM     13  O   UNL     1       5.570   4.670  15.436  0.00  0.00    +0.000 OA
BRANCH  12  14
ATOM     14  O   UNL     1       4.021   5.725  17.121  0.00  0.00    +0.000 OA
ATOM     15  H   UNL     1       3.972   5.440  18.050  0.00  0.00    +0.000 HD
ENDBRANCH  12  14
BRANCH  12  16
ATOM     16  O   UNL     1       5.097   6.871  15.356  0.00  0.00    +0.000 OA
ATOM     17  H   UNL     1       4.989   7.690  15.885  0.00  0.00    +0.000 HD
ENDBRANCH  12  16
ENDBRANCH  11  12
ENDBRANCH   7  11
ENDBRANCH   6   7
ENDBRANCH   2   6
ENDBRANCH   1   2
BRANCH   1  18
ATOM     18  C   UNL     1       1.767   7.230  20.279  0.00  0.00    +0.000 C 
BRANCH  18  19
ATOM     19  C   UNL     1       1.275   8.449  21.054  0.00  0.00    +0.000 C 
BRANCH  19  29
ATOM     20  C   UNL     1      -1.221  12.961  23.146  0.00  0.00    +0.000 C 
ATOM     21  N   UNL     1      -0.687  12.437  21.906  0.00  0.00    +0.000 N 
ATOM     22  C   UNL     1      -0.099  11.173  21.924  0.00  0.00    +0.000 A 
ATOM     23  O   UNL     1      -0.027  10.468  22.925  0.00  0.00    +0.000 OA
ATOM     24  C   UNL     1       0.394  10.771  20.653  0.00  0.00    +0.000 A 
ATOM     25  C   UNL     1       0.286  11.543  19.530  0.00  0.00    +0.000 A 
ATOM     26  N   UNL     1       0.805  10.928  18.434  0.00  0.00    +0.000 NA
ATOM     27  C   UNL     1       1.234   9.777  18.894  0.00  0.00    +0.000 A 
ATOM     28 CL   UNL     1       1.946   8.554  17.947  0.00  0.00    +0.000 Cl
ATOM     29  N   UNL     1       1.023   9.622  20.242  0.00  0.00    +0.000 N 
ATOM     30  N   UNL     1      -0.311  12.781  19.566  0.00  0.00    +0.000 N 
ATOM     31  C   UNL     1      -0.419  13.616  18.384  0.00  0.00    +0.000 C 
ATOM     32  C   UNL     1      -0.810  13.267  20.773  0.00  0.00    +0.000 A 
ATOM     33  O   UNL     1      -1.348  14.372  20.849  0.00  0.00    +0.000 OA
ENDBRANCH  19  29
ENDBRANCH  18  19
ENDBRANCH   1  18
TORSDOF 12
ENDMDL
MODEL 8
REMARK VINA RESULT:      -6.7      1.698      2.576
REMARK  Name = 
REMARK  14 active torsions:
REMARK  status: ('A' for Active; 'I' for Inactive)
REMARK    1  A    between atoms: C_1  and  N_2
REMARK    2  A    between atoms: N_10  and  C_11
REMARK    3  A    between atoms: C_11  and  C_12
REMARK    4  A    between atoms: C_12  and  O_13
REMARK    5  A    between atoms: O_13  and  P_14
REMARK    6  A    between atoms: P_14  and  O_16
REMARK    7  A    between atoms: P_14  and  O_17
REMARK    8  A    between atoms: O_17  and  P_18
REMARK    9  A    between atoms: P_18  and  O_20
REMARK   10  A    between atoms: P_18  and  O_21
REMARK   11  A    between atoms: O_21  and  P_22
REMARK   12  A    between atoms: P_22  and  O_24
REMARK   13  A    between atoms: P_22  and  O_25
REMARK   14  A    between atoms: N_26  and  C_27
REMARK                            x       y       z     vdW  Elec       q    Type
REMARK                         _______ _______ _______ _____ _____    ______ ____
ROOT
ATOM      1  O   UNL     1       2.306   5.203  18.385  0.00  0.00    +0.000 OA
ENDROOT
BRANCH   1   2
ATOM      2  P   UNL     1       3.957   4.724  18.582  0.00  0.00    +0.000 P 
ATOM      3  O   UNL     1       3.579   3.259  18.348  0.00  0.00    +0.000 OA
BRANCH   2   4
ATOM      4  O   UNL     1       4.314   5.447  17.169  0.00  0.00    +0.000 OA
ATOM      5  H   UNL     1       3.548   5.509  16.569  0.00  0.00    +0.000 HD
ENDBRANCH   2   4
BRANCH   2   6
ATOM      6  O   UNL     1       5.608   4.246  18.780  0.00  0.00    +0.000 OA
BRANCH   6   7
ATOM      7  P   UNL     1       6.536   4.808  17.433  0.00  0.00    +0.000 P 
ATOM      8  O   UNL     1       7.823   4.436  18.181  0.00  0.00    +0.000 OA
BRANCH   7   9
ATOM      9  O   UNL     1       6.062   3.448  16.624  0.00  0.00    +0.000 OA
ATOM     10  H   UNL     1       5.154   3.657  16.296  0.00  0.00    +0.000 HD
ENDBRANCH   7   9
BRANCH   7  11
ATOM     11  O   UNL     1       7.464   5.371  16.085  0.00  0.00    +0.000 OA
BRANCH  11  12
ATOM     12  P   UNL     1       6.868   4.646  14.632  0.00  0.00    +0.000 P 
ATOM     13  O   UNL     1       5.553   5.420  14.699  0.00  0.00    +0.000 OA
BRANCH  12  14
ATOM     14  O   UNL     1       7.878   5.563  13.739  0.00  0.00    +0.000 OA
ATOM     15  H   UNL     1       8.649   5.059  13.425  0.00  0.00    +0.000 HD
ENDBRANCH  12  14
BRANCH  12  16
ATOM     16  O   UNL     1       6.272   3.923  13.178  0.00  0.00    +0.000 OA
ATOM     17  H   UNL     1       6.378   2.965  13.359  0.00  0.00    +0.000 HD
ENDBRANCH  12  16
ENDBRANCH  11  12
ENDBRANCH   7  11
ENDBRANCH   6   7
ENDBRANCH   2   6
ENDBRANCH   1   2
BRANCH   1  18
ATOM     18  C   UNL     1       2.184   6.530  17.842  0.00  0.00    +0.000 C 
BRANCH  18  19
ATOM     19  C   UNL     1       2.729   7.638  18.737  0.00  0.00    +0.000 C 
BRANCH  19  29
ATOM     20  C   UNL     1       0.906  12.889  18.465  0.00  0.00    +0.000 C 
ATOM     21  N   UNL     1       0.794  11.694  19.276  0.00  0.00    +0.000 N 
ATOM     22  C   UNL     1       1.480  10.552  18.864  0.00  0.00    +0.000 A 
ATOM     23  O   UNL     1       2.190  10.506  17.865  0.00  0.00    +0.000 OA
ATOM     24  C   UNL     1       1.289   9.445  19.735  0.00  0.00    +0.000 A 
ATOM     25  C   UNL     1       0.523   9.505  20.865  0.00  0.00    +0.000 A 
ATOM     26  N   UNL     1       0.521   8.328  21.546  0.00  0.00    +0.000 NA
ATOM     27  C   UNL     1       1.288   7.546  20.822  0.00  0.00    +0.000 A 
ATOM     28 CL   UNL     1       1.692   5.940  21.218  0.00  0.00    +0.000 Cl
ATOM     29  N   UNL     1       1.779   8.163  19.698  0.00  0.00    +0.000 N 
ATOM     30  N   UNL     1      -0.126  10.660  21.231  0.00  0.00    +0.000 N 
ATOM     31  C   UNL     1      -0.953  10.733  22.421  0.00  0.00    +0.000 C 
ATOM     32  C   UNL     1      -0.011  11.795  20.429  0.00  0.00    +0.000 A 
ATOM     33  O   UNL     1      -0.579  12.848  20.718  0.00  0.00    +0.000 OA
ENDBRANCH  19  29
ENDBRANCH  18  19
ENDBRANCH   1  18
TORSDOF 12
ENDMDL
MODEL 9
REMARK VINA RESULT:      -6.7      1.919      3.183
REMARK  Name = 
REMARK  14 active torsions:
REMARK  status: ('A' for Active; 'I' for Inactive)
REMARK    1  A    between atoms: C_1  and  N_2
REMARK    2  A    between atoms: N_10  and  C_11
REMARK    3  A    between atoms: C_11  and  C_12
REMARK    4  A    between atoms: C_12  and  O_13
REMARK    5  A    between atoms: O_13  and  P_14
REMARK    6  A    between atoms: P_14  and  O_16
REMARK    7  A    between atoms: P_14  and  O_17
REMARK    8  A    between atoms: O_17  and  P_18
REMARK    9  A    between atoms: P_18  and  O_20
REMARK   10  A    between atoms: P_18  and  O_21
REMARK   11  A    between atoms: O_21  and  P_22
REMARK   12  A    between atoms: P_22  and  O_24
REMARK   13  A    between atoms: P_22  and  O_25
REMARK   14  A    between atoms: N_26  and  C_27
REMARK                            x       y       z     vdW  Elec       q    Type
REMARK                         _______ _______ _______ _____ _____    ______ ____
ROOT
ATOM      1  O   UNL     1       5.078   5.981  18.667  0.00  0.00    +0.000 OA
ENDROOT
BRANCH   1   2
ATOM      2  P   UNL     1       6.102   5.166  17.535  0.00  0.00    +0.000 P 
ATOM      3  O   UNL     1       7.316   5.396  18.438  0.00  0.00    +0.000 OA
BRANCH   2   4
ATOM      4  O   UNL     1       5.372   3.762  17.916  0.00  0.00    +0.000 OA
ATOM      5  H   UNL     1       4.852   3.815  18.741  0.00  0.00    +0.000 HD
ENDBRANCH   2   4
BRANCH   2   6
ATOM      6  O   UNL     1       7.124   4.350  16.402  0.00  0.00    +0.000 OA
BRANCH   6   7
ATOM      7  P   UNL     1       6.331   4.262  14.868  0.00  0.00    +0.000 P 
ATOM      8  O   UNL     1       5.221   5.177  15.404  0.00  0.00    +0.000 OA
BRANCH   7   9
ATOM      9  O   UNL     1       7.507   5.260  14.277  0.00  0.00    +0.000 OA
ATOM     10  H   UNL     1       8.294   5.082  14.847  0.00  0.00    +0.000 HD
ENDBRANCH   7   9
BRANCH   7  11
ATOM     11  O   UNL     1       5.536   4.174  13.333  0.00  0.00    +0.000 OA
BRANCH  11  12
ATOM     12  P   UNL     1       6.309   2.975  12.353  0.00  0.00    +0.000 P 
ATOM     13  O   UNL     1       5.081   2.806  11.462  0.00  0.00    +0.000 OA
BRANCH  12  14
ATOM     14  O   UNL     1       7.222   4.122  11.639  0.00  0.00    +0.000 OA
ATOM     15  H   UNL     1       6.933   5.020  11.877  0.00  0.00    +0.000 HD
ENDBRANCH  12  14
BRANCH  12  16
ATOM     16  O   UNL     1       7.082   1.778  11.372  0.00  0.00    +0.000 OA
ATOM     17  H   UNL     1       7.837   2.273  10.989  0.00  0.00    +0.000 HD
ENDBRANCH  12  16
ENDBRANCH  11  12
ENDBRANCH   7  11
ENDBRANCH   6   7
ENDBRANCH   2   6
ENDBRANCH   1   2
BRANCH   1  18
ATOM     18  C   UNL     1       4.297   7.019  18.048  0.00  0.00    +0.000 C 
BRANCH  18  19
ATOM     19  C   UNL     1       2.791   6.776  18.058  0.00  0.00    +0.000 C 
BRANCH  19  29
ATOM     20  C   UNL     1       0.993  12.017  18.575  0.00  0.00    +0.000 C 
ATOM     21  N   UNL     1       1.078  10.773  19.312  0.00  0.00    +0.000 N 
ATOM     22  C   UNL     1       1.632   9.665  18.672  0.00  0.00    +0.000 A 
ATOM     23  O   UNL     1       2.073   9.687  17.528  0.00  0.00    +0.000 OA
ATOM     24  C   UNL     1       1.655   8.504  19.491  0.00  0.00    +0.000 A 
ATOM     25  C   UNL     1       1.193   8.486  20.778  0.00  0.00    +0.000 A 
ATOM     26  N   UNL     1       1.351   7.269  21.362  0.00  0.00    +0.000 NA
ATOM     27  C   UNL     1       1.909   6.541  20.424  0.00  0.00    +0.000 A 
ATOM     28 CL   UNL     1       2.388   4.917  20.606  0.00  0.00    +0.000 Cl
ATOM     29  N   UNL     1       2.112   7.231  19.255  0.00  0.00    +0.000 N 
ATOM     30  N   UNL     1       0.663   9.611  21.364  0.00  0.00    +0.000 N 
ATOM     31  C   UNL     1       0.156   9.602  22.724  0.00  0.00    +0.000 C 
ATOM     32  C   UNL     1       0.583  10.794  20.631  0.00  0.00    +0.000 A 
ATOM     33  O   UNL     1       0.112  11.822  21.118  0.00  0.00    +0.000 OA
ENDBRANCH  19  29
ENDBRANCH  18  19
ENDBRANCH   1  18
TORSDOF 12
ENDMDL
