MODEL 1
REMARK VINA RESULT:      -7.9      0.000      0.000
REMARK  Name = 
REMARK  16 active torsions:
REMARK  status: ('A' for Active; 'I' for Inactive)
REMARK    1  A    between atoms: C_1  and  C_2
REMARK    2  A    between atoms: C_2  and  O_3
REMARK    3  A    between atoms: O_3  and  C_4
REMARK    4  A    between atoms: C_7  and  C_8
REMARK    5  A    between atoms: C_8  and  C_9
REMARK    6  A    between atoms: C_9  and  N_10
REMARK    7  A    between atoms: C_9  and  C_11
REMARK    8  A    between atoms: N_13  and  C_14
REMARK    9  A    between atoms: C_14  and  C_15
REMARK   10  A    between atoms: C_14  and  C_27
REMARK   11  A    between atoms: N_17  and  C_18
REMARK   12  A    between atoms: C_18  and  C_19
REMARK   13  A    between atoms: C_22  and  C_23
REMARK   14  A    between atoms: C_23  and  N_24
REMARK   15  A    between atoms: C_27  and  O_28
REMARK   16  A    between atoms: C_27  and  C_29
REMARK                            x       y       z     vdW  Elec       q    Type
REMARK                         _______ _______ _______ _____ _____    ______ ____
ROOT
ATOM      1  C   UNL     1       3.277   6.085  18.286  0.00  0.00    +0.000 C 
ENDROOT
BRANCH   1   4
ATOM      2  C   UNL     1       5.587   5.229  18.134  0.00  0.00    +0.000 C 
ATOM      3  O   UNL     1       5.823   5.596  19.280  0.00  0.00    +0.000 OA
ATOM      4  N   UNL     1       4.372   5.468  17.526  0.00  0.00    +0.000 N 
ATOM      5  H   UNL     1       4.160   4.821  16.769  0.00  0.00    +0.000 HD
BRANCH   2   6
ATOM      6  C   UNL     1       6.586   4.518  17.198  0.00  0.00    +0.000 C 
BRANCH   6   7
ATOM      7  N   UNL     1       7.791   4.158  17.992  0.00  0.00    +0.000 NA
ATOM      8  H   UNL     1       8.476   3.722  17.366  0.00  0.00    +0.000 HD
ATOM      9  H   UNL     1       7.539   3.426  18.662  0.00  0.00    +0.000 HD
ENDBRANCH   6   7
BRANCH   6  10
ATOM     10  C   UNL     1       6.948   5.352  15.958  0.00  0.00    +0.000 C 
BRANCH  10  14
ATOM     11  C   UNL     1       5.717   3.606  12.197  0.00  0.00    +0.000 A 
ATOM     12  C   UNL     1       4.916   3.489  13.330  0.00  0.00    +0.000 A 
ATOM     13  C   UNL     1       5.318   4.056  14.539  0.00  0.00    +0.000 A 
ATOM     14  C   UNL     1       6.541   4.732  14.639  0.00  0.00    +0.000 A 
ATOM     15  C   UNL     1       7.363   4.808  13.506  0.00  0.00    +0.000 A 
ATOM     16  C   UNL     1       6.957   4.237  12.295  0.00  0.00    +0.000 A 
BRANCH  11  17
ATOM     17  O   UNL     1       5.198   3.056  11.058  0.00  0.00    +0.000 OA
BRANCH  17  19
ATOM     18  C   UNL     1       3.263   3.918   9.973  0.00  0.00    +0.000 C 
ATOM     19  C   UNL     1       3.775   2.944  11.019  0.00  0.00    +0.000 C 
ENDBRANCH  17  19
ENDBRANCH  11  17
ENDBRANCH  10  14
ENDBRANCH   6  10
ENDBRANCH   2   6
ENDBRANCH   1   4
BRANCH   1  20
ATOM     20  C   UNL     1       3.049   7.504  17.722  0.00  0.00    +0.000 C 
ATOM     21  O   UNL     1       3.670   7.951  16.761  0.00  0.00    +0.000 OA
ATOM     22  N   UNL     1       2.160   8.276  18.451  0.00  0.00    +0.000 N 
ATOM     23  H   UNL     1       1.933   7.969  19.399  0.00  0.00    +0.000 HD
BRANCH  22  24
ATOM     24  C   UNL     1       1.987   9.668  18.119  0.00  0.00    +0.000 C 
BRANCH  24  25
ATOM     25  C   UNL     1       0.548  10.104  18.185  0.00  0.00    +0.000 A 
ATOM     26  C   UNL     1       0.159  11.161  19.016  0.00  0.00    +0.000 A 
ATOM     27  C   UNL     1      -1.171  11.589  19.050  0.00  0.00    +0.000 A 
ATOM     28  C   UNL     1      -2.149  10.965  18.261  0.00  0.00    +0.000 A 
ATOM     29  C   UNL     1      -1.765   9.879  17.463  0.00  0.00    +0.000 A 
ATOM     30  C   UNL     1      -0.432   9.457  17.421  0.00  0.00    +0.000 A 
BRANCH  28  31
ATOM     31  C   UNL     1      -3.585  11.425  18.357  0.00  0.00    +0.000 C 
BRANCH  31  32
ATOM     32  N   UNL     1      -4.106  11.964  17.102  0.00  0.00    +0.000 NA
ATOM     33  H   UNL     1      -4.572  12.849  17.299  0.00  0.00    +0.000 HD
ATOM     34  H   UNL     1      -4.822  11.334  16.746  0.00  0.00    +0.000 HD
ENDBRANCH  31  32
ENDBRANCH  28  31
ENDBRANCH  24  25
ENDBRANCH  22  24
ENDBRANCH   1  20
BRANCH   1  35
ATOM     35  C   UNL     1       1.983   5.227  18.261  0.00  0.00    +0.000 C 
BRANCH  35  36
ATOM     36  C   UNL     1       1.971   4.226  19.414  0.00  0.00    +0.000 A 
ATOM     37  C   UNL     1       1.531   2.908  19.205  0.00  0.00    +0.000 A 
ATOM     38  C   UNL     1       1.413   2.017  20.274  0.00  0.00    +0.000 A 
ATOM     39  C   UNL     1       1.741   2.424  21.566  0.00  0.00    +0.000 A 
ATOM     40  C   UNL     1       2.225   3.708  21.784  0.00  0.00    +0.000 A 
ATOM     41  C   UNL     1       2.335   4.606  20.721  0.00  0.00    +0.000 A 
ENDBRANCH  35  36
BRANCH  35  42
ATOM     42  O   UNL     1       1.810   4.498  17.041  0.00  0.00    +0.000 OA
ATOM     43  H   UNL     1       0.967   4.019  17.092  0.00  0.00    +0.000 HD
ENDBRANCH  35  42
ENDBRANCH   1  35
TORSDOF 15
ENDMDL
MODEL 2
REMARK VINA RESULT:      -7.7      1.881      2.425
REMARK  Name = 
REMARK  16 active torsions:
REMARK  status: ('A' for Active; 'I' for Inactive)
REMARK    1  A    between atoms: C_1  and  C_2
REMARK    2  A    between atoms: C_2  and  O_3
REMARK    3  A    between atoms: O_3  and  C_4
REMARK    4  A    between atoms: C_7  and  C_8
REMARK    5  A    between atoms: C_8  and  C_9
REMARK    6  A    between atoms: C_9  and  N_10
REMARK    7  A    between atoms: C_9  and  C_11
REMARK    8  A    between atoms: N_13  and  C_14
REMARK    9  A    between atoms: C_14  and  C_15
REMARK   10  A    between atoms: C_14  and  C_27
REMARK   11  A    between atoms: N_17  and  C_18
REMARK   12  A    between atoms: C_18  and  C_19
REMARK   13  A    between atoms: C_22  and  C_23
REMARK   14  A    between atoms: C_23  and  N_24
REMARK   15  A    between atoms: C_27  and  O_28
REMARK   16  A    between atoms: C_27  and  C_29
REMARK                            x       y       z     vdW  Elec       q    Type
REMARK                         _______ _______ _______ _____ _____    ______ ____
ROOT
ATOM      1  C   UNL     1       3.288   6.098  18.405  0.00  0.00    +0.000 C 
ENDROOT
BRANCH   1   4
ATOM      2  C   UNL     1       5.602   5.241  18.441  0.00  0.00    +0.000 C 
ATOM      3  O   UNL     1       5.608   5.240  19.667  0.00  0.00    +0.000 OA
ATOM      4  N   UNL     1       4.520   5.696  17.716  0.00  0.00    +0.000 N 
ATOM      5  H   UNL     1       4.471   5.313  16.773  0.00  0.00    +0.000 HD
BRANCH   2   6
ATOM      6  C   UNL     1       6.776   4.805  17.539  0.00  0.00    +0.000 C 
BRANCH   6   7
ATOM      7  N   UNL     1       8.010   4.771  18.369  0.00  0.00    +0.000 NA
ATOM      8  H   UNL     1       7.926   5.477  19.107  0.00  0.00    +0.000 HD
ATOM      9  H   UNL     1       8.802   5.077  17.797  0.00  0.00    +0.000 HD
ENDBRANCH   6   7
BRANCH   6  10
ATOM     10  C   UNL     1       6.946   5.697  16.299  0.00  0.00    +0.000 C 
BRANCH  10  14
ATOM     11  C   UNL     1       6.379   3.671  12.520  0.00  0.00    +0.000 A 
ATOM     12  C   UNL     1       7.421   4.578  12.690  0.00  0.00    +0.000 A 
ATOM     13  C   UNL     1       7.600   5.226  13.912  0.00  0.00    +0.000 A 
ATOM     14  C   UNL     1       6.722   4.992  14.979  0.00  0.00    +0.000 A 
ATOM     15  C   UNL     1       5.649   4.112  14.787  0.00  0.00    +0.000 A 
ATOM     16  C   UNL     1       5.473   3.464  13.559  0.00  0.00    +0.000 A 
BRANCH  11  17
ATOM     17  O   UNL     1       6.333   3.059  11.298  0.00  0.00    +0.000 OA
BRANCH  17  19
ATOM     18  C   UNL     1       6.261   0.692  11.060  0.00  0.00    +0.000 C 
ATOM     19  C   UNL     1       7.165   1.908  11.152  0.00  0.00    +0.000 C 
ENDBRANCH  17  19
ENDBRANCH  11  17
ENDBRANCH  10  14
ENDBRANCH   6  10
ENDBRANCH   2   6
ENDBRANCH   1   4
BRANCH   1  20
ATOM     20  C   UNL     1       2.937   7.531  17.952  0.00  0.00    +0.000 C 
ATOM     21  O   UNL     1       3.583   8.144  17.106  0.00  0.00    +0.000 OA
ATOM     22  N   UNL     1       1.893   8.115  18.650  0.00  0.00    +0.000 N 
ATOM     23  H   UNL     1       1.619   7.688  19.536  0.00  0.00    +0.000 HD
BRANCH  22  24
ATOM     24  C   UNL     1       1.578   9.504  18.430  0.00  0.00    +0.000 C 
BRANCH  24  25
ATOM     25  C   UNL     1       0.855  10.126  19.595  0.00  0.00    +0.000 A 
ATOM     26  C   UNL     1       0.558  11.494  19.603  0.00  0.00    +0.000 A 
ATOM     27  C   UNL     1      -0.143  12.064  20.669  0.00  0.00    +0.000 A 
ATOM     28  C   UNL     1      -0.558  11.284  21.759  0.00  0.00    +0.000 A 
ATOM     29  C   UNL     1      -0.221   9.923  21.767  0.00  0.00    +0.000 A 
ATOM     30  C   UNL     1       0.473   9.350  20.697  0.00  0.00    +0.000 A 
BRANCH  28  31
ATOM     31  C   UNL     1      -1.276  11.942  22.913  0.00  0.00    +0.000 C 
BRANCH  31  32
ATOM     32  N   UNL     1      -1.067  13.387  22.977  0.00  0.00    +0.000 NA
ATOM     33  H   UNL     1      -1.978  13.844  23.028  0.00  0.00    +0.000 HD
ATOM     34  H   UNL     1      -0.638  13.697  22.107  0.00  0.00    +0.000 HD
ENDBRANCH  31  32
ENDBRANCH  28  31
ENDBRANCH  24  25
ENDBRANCH  22  24
ENDBRANCH   1  20
BRANCH   1  35
ATOM     35  C   UNL     1       2.122   5.101  18.162  0.00  0.00    +0.000 C 
BRANCH  35  36
ATOM     36  C   UNL     1       1.851   4.264  19.410  0.00  0.00    +0.000 A 
ATOM     37  C   UNL     1       2.399   4.639  20.648  0.00  0.00    +0.000 A 
ATOM     38  C   UNL     1       2.249   3.823  21.771  0.00  0.00    +0.000 A 
ATOM     39  C   UNL     1       1.542   2.625  21.679  0.00  0.00    +0.000 A 
ATOM     40  C   UNL     1       0.952   2.263  20.474  0.00  0.00    +0.000 A 
ATOM     41  C   UNL     1       1.108   3.069  19.346  0.00  0.00    +0.000 A 
ENDBRANCH  35  36
BRANCH  35  42
ATOM     42  O   UNL     1       2.361   4.205  17.071  0.00  0.00    +0.000 OA
ATOM     43  H   UNL     1       2.028   4.620  16.260  0.00  0.00    +0.000 HD
ENDBRANCH  35  42
ENDBRANCH   1  35
TORSDOF 15
ENDMDL
MODEL 3
REMARK VINA RESULT:      -7.5      1.182      1.771
REMARK  Name = 
REMARK  16 active torsions:
REMARK  status: ('A' for Active; 'I' for Inactive)
REMARK    1  A    between atoms: C_1  and  C_2
REMARK    2  A    between atoms: C_2  and  O_3
REMARK    3  A    between atoms: O_3  and  C_4
REMARK    4  A    between atoms: C_7  and  C_8
REMARK    5  A    between atoms: C_8  and  C_9
REMARK    6  A    between atoms: C_9  and  N_10
REMARK    7  A    between atoms: C_9  and  C_11
REMARK    8  A    between atoms: N_13  and  C_14
REMARK    9  A    between atoms: C_14  and  C_15
REMARK   10  A    between atoms: C_14  and  C_27
REMARK   11  A    between atoms: N_17  and  C_18
REMARK   12  A    between atoms: C_18  and  C_19
REMARK   13  A    between atoms: C_22  and  C_23
REMARK   14  A    between atoms: C_23  and  N_24
REMARK   15  A    between atoms: C_27  and  O_28
REMARK   16  A    between atoms: C_27  and  C_29
REMARK                            x       y       z     vdW  Elec       q    Type
REMARK                         _______ _______ _______ _____ _____    ______ ____
ROOT
ATOM      1  C   UNL     1       3.247   6.203  18.247  0.00  0.00    +0.000 C 
ENDROOT
BRANCH   1   4
ATOM      2  C   UNL     1       5.540   5.303  18.392  0.00  0.00    +0.000 C 
ATOM      3  O   UNL     1       5.557   5.478  19.605  0.00  0.00    +0.000 OA
ATOM      4  N   UNL     1       4.463   5.676  17.615  0.00  0.00    +0.000 N 
ATOM      5  H   UNL     1       4.395   5.162  16.738  0.00  0.00    +0.000 HD
BRANCH   2   6
ATOM      6  C   UNL     1       6.695   4.712  17.557  0.00  0.00    +0.000 C 
BRANCH   6   7
ATOM      7  N   UNL     1       7.873   4.543  18.448  0.00  0.00    +0.000 NA
ATOM      8  H   UNL     1       8.685   4.982  18.002  0.00  0.00    +0.000 HD
ATOM      9  H   UNL     1       8.106   3.548  18.504  0.00  0.00    +0.000 HD
ENDBRANCH   6   7
BRANCH   6  10
ATOM     10  C   UNL     1       7.033   5.556  16.317  0.00  0.00    +0.000 C 
BRANCH  10  14
ATOM     11  C   UNL     1       6.335   3.589  12.528  0.00  0.00    +0.000 A 
ATOM     12  C   UNL     1       7.371   4.510  12.671  0.00  0.00    +0.000 A 
ATOM     13  C   UNL     1       7.591   5.138  13.896  0.00  0.00    +0.000 A 
ATOM     14  C   UNL     1       6.763   4.872  14.994  0.00  0.00    +0.000 A 
ATOM     15  C   UNL     1       5.696   3.979  14.831  0.00  0.00    +0.000 A 
ATOM     16  C   UNL     1       5.477   3.350  13.600  0.00  0.00    +0.000 A 
BRANCH  11  17
ATOM     17  O   UNL     1       6.246   2.999  11.298  0.00  0.00    +0.000 OA
BRANCH  17  19
ATOM     18  C   UNL     1       6.265   0.622  11.172  0.00  0.00    +0.000 C 
ATOM     19  C   UNL     1       7.109   1.881  11.086  0.00  0.00    +0.000 C 
ENDBRANCH  17  19
ENDBRANCH  11  17
ENDBRANCH  10  14
ENDBRANCH   6  10
ENDBRANCH   2   6
ENDBRANCH   1   4
BRANCH   1  20
ATOM     20  C   UNL     1       2.959   7.592  17.635  0.00  0.00    +0.000 C 
ATOM     21  O   UNL     1       3.438   7.966  16.568  0.00  0.00    +0.000 OA
ATOM     22  N   UNL     1       2.197   8.425  18.436  0.00  0.00    +0.000 N 
ATOM     23  H   UNL     1       2.106   8.181  19.423  0.00  0.00    +0.000 HD
BRANCH  22  24
ATOM     24  C   UNL     1       1.996   9.799  18.047  0.00  0.00    +0.000 C 
BRANCH  24  25
ATOM     25  C   UNL     1       0.807  10.425  18.724  0.00  0.00    +0.000 A 
ATOM     26  C   UNL     1       0.977  11.271  19.827  0.00  0.00    +0.000 A 
ATOM     27  C   UNL     1      -0.125  11.880  20.434  0.00  0.00    +0.000 A 
ATOM     28  C   UNL     1      -1.426  11.653  19.960  0.00  0.00    +0.000 A 
ATOM     29  C   UNL     1      -1.596  10.772  18.883  0.00  0.00    +0.000 A 
ATOM     30  C   UNL     1      -0.493  10.169  18.269  0.00  0.00    +0.000 A 
BRANCH  28  31
ATOM     31  C   UNL     1      -2.596  12.293  20.668  0.00  0.00    +0.000 C 
BRANCH  31  32
ATOM     32  N   UNL     1      -3.542  12.938  19.759  0.00  0.00    +0.000 NA
ATOM     33  H   UNL     1      -4.095  12.214  19.301  0.00  0.00    +0.000 HD
ATOM     34  H   UNL     1      -3.021  13.410  19.023  0.00  0.00    +0.000 HD
ENDBRANCH  31  32
ENDBRANCH  28  31
ENDBRANCH  24  25
ENDBRANCH  22  24
ENDBRANCH   1  20
BRANCH   1  35
ATOM     35  C   UNL     1       2.039   5.236  18.107  0.00  0.00    +0.000 C 
BRANCH  35  36
ATOM     36  C   UNL     1       1.863   4.399  19.371  0.00  0.00    +0.000 A 
ATOM     37  C   UNL     1       2.349   4.865  20.604  0.00  0.00    +0.000 A 
ATOM     38  C   UNL     1       2.290   4.060  21.744  0.00  0.00    +0.000 A 
ATOM     39  C   UNL     1       1.737   2.783  21.673  0.00  0.00    +0.000 A 
ATOM     40  C   UNL     1       1.207   2.325  20.473  0.00  0.00    +0.000 A 
ATOM     41  C   UNL     1       1.273   3.120  19.328  0.00  0.00    +0.000 A 
ENDBRANCH  35  36
BRANCH  35  42
ATOM     42  O   UNL     1       2.157   4.341  16.996  0.00  0.00    +0.000 OA
ATOM     43  H   UNL     1       2.488   4.845  16.235  0.00  0.00    +0.000 HD
ENDBRANCH  35  42
ENDBRANCH   1  35
TORSDOF 15
ENDMDL
MODEL 4
REMARK VINA RESULT:      -7.5      0.892      1.012
REMARK  Name = 
REMARK  16 active torsions:
REMARK  status: ('A' for Active; 'I' for Inactive)
REMARK    1  A    between atoms: C_1  and  C_2
REMARK    2  A    between atoms: C_2  and  O_3
REMARK    3  A    between atoms: O_3  and  C_4
REMARK    4  A    between atoms: C_7  and  C_8
REMARK    5  A    between atoms: C_8  and  C_9
REMARK    6  A    between atoms: C_9  and  N_10
REMARK    7  A    between atoms: C_9  and  C_11
REMARK    8  A    between atoms: N_13  and  C_14
REMARK    9  A    between atoms: C_14  and  C_15
REMARK   10  A    between atoms: C_14  and  C_27
REMARK   11  A    between atoms: N_17  and  C_18
REMARK   12  A    between atoms: C_18  and  C_19
REMARK   13  A    between atoms: C_22  and  C_23
REMARK   14  A    between atoms: C_23  and  N_24
REMARK   15  A    between atoms: C_27  and  O_28
REMARK   16  A    between atoms: C_27  and  C_29
REMARK                            x       y       z     vdW  Elec       q    Type
REMARK                         _______ _______ _______ _____ _____    ______ ____
ROOT
ATOM      1  C   UNL     1       3.358   6.146  18.333  0.00  0.00    +0.000 C 
ENDROOT
BRANCH   1   4
ATOM      2  C   UNL     1       5.684   5.326  18.240  0.00  0.00    +0.000 C 
ATOM      3  O   UNL     1       5.895   5.725  19.380  0.00  0.00    +0.000 OA
ATOM      4  N   UNL     1       4.476   5.529  17.607  0.00  0.00    +0.000 N 
ATOM      5  H   UNL     1       4.287   4.860  16.863  0.00  0.00    +0.000 HD
BRANCH   2   6
ATOM      6  C   UNL     1       6.710   4.608  17.339  0.00  0.00    +0.000 C 
BRANCH   6   7
ATOM      7  N   UNL     1       7.898   4.269  18.166  0.00  0.00    +0.000 NA
ATOM      8  H   UNL     1       8.221   3.332  17.905  0.00  0.00    +0.000 HD
ATOM      9  H   UNL     1       7.608   4.188  19.144  0.00  0.00    +0.000 HD
ENDBRANCH   6   7
BRANCH   6  10
ATOM     10  C   UNL     1       7.095   5.427  16.096  0.00  0.00    +0.000 C 
BRANCH  10  14
ATOM     11  C   UNL     1       5.840   3.687  12.340  0.00  0.00    +0.000 A 
ATOM     12  C   UNL     1       5.037   3.586  13.473  0.00  0.00    +0.000 A 
ATOM     13  C   UNL     1       5.447   4.152  14.680  0.00  0.00    +0.000 A 
ATOM     14  C   UNL     1       6.680   4.809  14.778  0.00  0.00    +0.000 A 
ATOM     15  C   UNL     1       7.504   4.868  13.646  0.00  0.00    +0.000 A 
ATOM     16  C   UNL     1       7.090   4.299  12.436  0.00  0.00    +0.000 A 
BRANCH  11  17
ATOM     17  O   UNL     1       5.314   3.141  11.203  0.00  0.00    +0.000 OA
BRANCH  17  19
ATOM     18  C   UNL     1       3.339   3.881  10.101  0.00  0.00    +0.000 C 
ATOM     19  C   UNL     1       3.895   2.984  11.192  0.00  0.00    +0.000 C 
ENDBRANCH  17  19
ENDBRANCH  11  17
ENDBRANCH  10  14
ENDBRANCH   6  10
ENDBRANCH   2   6
ENDBRANCH   1   4
BRANCH   1  20
ATOM     20  C   UNL     1       3.068   7.515  17.682  0.00  0.00    +0.000 C 
ATOM     21  O   UNL     1       3.528   7.851  16.594  0.00  0.00    +0.000 OA
ATOM     22  N   UNL     1       2.326   8.380  18.469  0.00  0.00    +0.000 N 
ATOM     23  H   UNL     1       2.253   8.169  19.466  0.00  0.00    +0.000 HD
BRANCH  22  24
ATOM     24  C   UNL     1       2.127   9.741  18.040  0.00  0.00    +0.000 C 
BRANCH  24  25
ATOM     25  C   UNL     1       0.810  10.308  18.499  0.00  0.00    +0.000 A 
ATOM     26  C   UNL     1       0.761  11.252  19.531  0.00  0.00    +0.000 A 
ATOM     27  C   UNL     1      -0.459  11.803  19.934  0.00  0.00    +0.000 A 
ATOM     28  C   UNL     1      -1.661  11.418  19.322  0.00  0.00    +0.000 A 
ATOM     29  C   UNL     1      -1.612  10.441  18.319  0.00  0.00    +0.000 A 
ATOM     30  C   UNL     1      -0.391   9.895  17.909  0.00  0.00    +0.000 A 
BRANCH  28  31
ATOM     31  C   UNL     1      -2.965  12.003  19.813  0.00  0.00    +0.000 C 
BRANCH  31  32
ATOM     32  N   UNL     1      -2.907  13.446  20.034  0.00  0.00    +0.000 NA
ATOM     33  H   UNL     1      -3.171  13.917  19.170  0.00  0.00    +0.000 HD
ATOM     34  H   UNL     1      -1.942  13.711  20.224  0.00  0.00    +0.000 HD
ENDBRANCH  31  32
ENDBRANCH  28  31
ENDBRANCH  24  25
ENDBRANCH  22  24
ENDBRANCH   1  20
BRANCH   1  35
ATOM     35  C   UNL     1       2.102   5.233  18.372  0.00  0.00    +0.000 C 
BRANCH  35  36
ATOM     36  C   UNL     1       2.210   4.205  19.495  0.00  0.00    +0.000 A 
ATOM     37  C   UNL     1       1.252   4.173  20.522  0.00  0.00    +0.000 A 
ATOM     38  C   UNL     1       1.401   3.310  21.610  0.00  0.00    +0.000 A 
ATOM     39  C   UNL     1       2.503   2.460  21.685  0.00  0.00    +0.000 A 
ATOM     40  C   UNL     1       3.434   2.443  20.655  0.00  0.00    +0.000 A 
ATOM     41  C   UNL     1       3.296   3.311  19.570  0.00  0.00    +0.000 A 
ENDBRANCH  35  36
BRANCH  35  42
ATOM     42  O   UNL     1       1.876   4.528  17.146  0.00  0.00    +0.000 OA
ATOM     43  H   UNL     1       1.214   5.017  16.634  0.00  0.00    +0.000 HD
ENDBRANCH  35  42
ENDBRANCH   1  35
TORSDOF 15
ENDMDL
MODEL 5
REMARK VINA RESULT:      -7.5      1.815      2.180
REMARK  Name = 
REMARK  16 active torsions:
REMARK  status: ('A' for Active; 'I' for Inactive)
REMARK    1  A    between atoms: C_1  and  C_2
REMARK    2  A    between atoms: C_2  and  O_3
REMARK    3  A    between atoms: O_3  and  C_4
REMARK    4  A    between atoms: C_7  and  C_8
REMARK    5  A    between atoms: C_8  and  C_9
REMARK    6  A    between atoms: C_9  and  N_10
REMARK    7  A    between atoms: C_9  and  C_11
REMARK    8  A    between atoms: N_13  and  C_14
REMARK    9  A    between atoms: C_14  and  C_15
REMARK   10  A    between atoms: C_14  and  C_27
REMARK   11  A    between atoms: N_17  and  C_18
REMARK   12  A    between atoms: C_18  and  C_19
REMARK   13  A    between atoms: C_22  and  C_23
REMARK   14  A    between atoms: C_23  and  N_24
REMARK   15  A    between atoms: C_27  and  O_28
REMARK   16  A    between atoms: C_27  and  C_29
REMARK                            x       y       z     vdW  Elec       q    Type
REMARK                         _______ _______ _______ _____ _____    ______ ____
ROOT
ATOM      1  C   UNL     1       3.438   6.033  18.497  0.00  0.00    +0.000 C 
ENDROOT
BRANCH   1   4
ATOM      2  C   UNL     1       5.786   5.282  18.387  0.00  0.00    +0.000 C 
ATOM      3  O   UNL     1       5.926   5.465  19.591  0.00  0.00    +0.000 OA
ATOM      4  N   UNL     1       4.608   5.581  17.734  0.00  0.00    +0.000 N 
ATOM      5  H   UNL     1       4.477   5.059  16.869  0.00  0.00    +0.000 HD
BRANCH   2   6
ATOM      6  C   UNL     1       6.877   4.761  17.427  0.00  0.00    +0.000 C 
BRANCH   6   7
ATOM      7  N   UNL     1       8.148   4.643  18.190  0.00  0.00    +0.000 NA
ATOM      8  H   UNL     1       8.415   5.575  18.524  0.00  0.00    +0.000 HD
ATOM      9  H   UNL     1       8.895   4.366  17.548  0.00  0.00    +0.000 HD
ENDBRANCH   6   7
BRANCH   6  10
ATOM     10  C   UNL     1       7.042   5.635  16.174  0.00  0.00    +0.000 C 
BRANCH  10  14
ATOM     11  C   UNL     1       6.388   3.559  12.436  0.00  0.00    +0.000 A 
ATOM     12  C   UNL     1       5.599   3.283  13.549  0.00  0.00    +0.000 A 
ATOM     13  C   UNL     1       5.814   3.958  14.751  0.00  0.00    +0.000 A 
ATOM     14  C   UNL     1       6.839   4.905  14.863  0.00  0.00    +0.000 A 
ATOM     15  C   UNL     1       7.659   5.146  13.753  0.00  0.00    +0.000 A 
ATOM     16  C   UNL     1       7.440   4.466  12.549  0.00  0.00    +0.000 A 
BRANCH  11  17
ATOM     17  O   UNL     1       6.054   2.875  11.301  0.00  0.00    +0.000 OA
BRANCH  17  19
ATOM     18  C   UNL     1       6.135   0.506  11.078  0.00  0.00    +0.000 C 
ATOM     19  C   UNL     1       6.923   1.797  10.949  0.00  0.00    +0.000 C 
ENDBRANCH  17  19
ENDBRANCH  11  17
ENDBRANCH  10  14
ENDBRANCH   6  10
ENDBRANCH   2   6
ENDBRANCH   1   4
BRANCH   1  20
ATOM     20  C   UNL     1       3.043   7.431  17.974  0.00  0.00    +0.000 C 
ATOM     21  O   UNL     1       3.797   8.136  17.309  0.00  0.00    +0.000 OA
ATOM     22  N   UNL     1       1.802   7.874  18.400  0.00  0.00    +0.000 N 
ATOM     23  H   UNL     1       1.375   7.394  19.194  0.00  0.00    +0.000 HD
BRANCH  22  24
ATOM     24  C   UNL     1       1.390   9.225  18.112  0.00  0.00    +0.000 C 
BRANCH  24  25
ATOM     25  C   UNL     1       0.681   9.875  19.269  0.00  0.00    +0.000 A 
ATOM     26  C   UNL     1       0.822   9.370  20.568  0.00  0.00    +0.000 A 
ATOM     27  C   UNL     1       0.191   9.995  21.647  0.00  0.00    +0.000 A 
ATOM     28  C   UNL     1      -0.605  11.134  21.456  0.00  0.00    +0.000 A 
ATOM     29  C   UNL     1      -0.779  11.611  20.150  0.00  0.00    +0.000 A 
ATOM     30  C   UNL     1      -0.140  10.992  19.070  0.00  0.00    +0.000 A 
BRANCH  28  31
ATOM     31  C   UNL     1      -1.307  11.756  22.640  0.00  0.00    +0.000 C 
BRANCH  31  32
ATOM     32  N   UNL     1      -0.616  12.928  23.174  0.00  0.00    +0.000 NA
ATOM     33  H   UNL     1       0.038  13.267  22.469  0.00  0.00    +0.000 HD
ATOM     34  H   UNL     1      -0.055  12.643  23.974  0.00  0.00    +0.000 HD
ENDBRANCH  31  32
ENDBRANCH  28  31
ENDBRANCH  24  25
ENDBRANCH  22  24
ENDBRANCH   1  20
BRANCH   1  35
ATOM     35  C   UNL     1       2.259   5.024  18.429  0.00  0.00    +0.000 C 
BRANCH  35  36
ATOM     36  C   UNL     1       2.270   4.092  19.638  0.00  0.00    +0.000 A 
ATOM     37  C   UNL     1       3.365   3.241  19.868  0.00  0.00    +0.000 A 
ATOM     38  C   UNL     1       3.337   2.308  20.907  0.00  0.00    +0.000 A 
ATOM     39  C   UNL     1       2.221   2.216  21.738  0.00  0.00    +0.000 A 
ATOM     40  C   UNL     1       1.151   3.083  21.555  0.00  0.00    +0.000 A 
ATOM     41  C   UNL     1       1.168   4.010  20.512  0.00  0.00    +0.000 A 
ENDBRANCH  35  36
BRANCH  35  42
ATOM     42  O   UNL     1       2.274   4.216  17.247  0.00  0.00    +0.000 OA
ATOM     43  H   UNL     1       3.088   3.688  17.252  0.00  0.00    +0.000 HD
ENDBRANCH  35  42
ENDBRANCH   1  35
TORSDOF 15
ENDMDL
MODEL 6
REMARK VINA RESULT:      -7.4      4.310      9.216
REMARK  Name = 
REMARK  16 active torsions:
REMARK  status: ('A' for Active; 'I' for Inactive)
REMARK    1  A    between atoms: C_1  and  C_2
REMARK    2  A    between atoms: C_2  and  O_3
REMARK    3  A    between atoms: O_3  and  C_4
REMARK    4  A    between atoms: C_7  and  C_8
REMARK    5  A    between atoms: C_8  and  C_9
REMARK    6  A    between atoms: C_9  and  N_10
REMARK    7  A    between atoms: C_9  and  C_11
REMARK    8  A    between atoms: N_13  and  C_14
REMARK    9  A    between atoms: C_14  and  C_15
REMARK   10  A    between atoms: C_14  and  C_27
REMARK   11  A    between atoms: N_17  and  C_18
REMARK   12  A    between atoms: C_18  and  C_19
REMARK   13  A    between atoms: C_22  and  C_23
REMARK   14  A    between atoms: C_23  and  N_24
REMARK   15  A    between atoms: C_27  and  O_28
REMARK   16  A    between atoms: C_27  and  C_29
REMARK                            x       y       z     vdW  Elec       q    Type
REMARK                         _______ _______ _______ _____ _____    ______ ____
ROOT
ATOM      1  C   UNL     1       6.688   6.211  17.249  0.00  0.00    +0.000 C 
ENDROOT
BRANCH   1   4
ATOM      2  C   UNL     1       4.291   6.802  17.254  0.00  0.00    +0.000 C 
ATOM      3  O   UNL     1       4.372   7.236  16.110  0.00  0.00    +0.000 OA
ATOM      4  N   UNL     1       5.392   6.317  17.931  0.00  0.00    +0.000 N 
ATOM      5  H   UNL     1       5.157   5.664  18.677  0.00  0.00    +0.000 HD
BRANCH   2   6
ATOM      6  C   UNL     1       3.010   6.776  18.114  0.00  0.00    +0.000 C 
BRANCH   6   7
ATOM      7  N   UNL     1       2.379   5.438  17.966  0.00  0.00    +0.000 NA
ATOM      8  H   UNL     1       3.075   4.789  17.584  0.00  0.00    +0.000 HD
ATOM      9  H   UNL     1       1.648   5.494  17.252  0.00  0.00    +0.000 HD
ENDBRANCH   6   7
BRANCH   6  10
ATOM     10  C   UNL     1       2.032   7.910  17.769  0.00  0.00    +0.000 C 
BRANCH  10  14
ATOM     11  C   UNL     1       0.793  10.391  21.089  0.00  0.00    +0.000 A 
ATOM     12  C   UNL     1       0.903  10.923  19.806  0.00  0.00    +0.000 A 
ATOM     13  C   UNL     1       1.301  10.117  18.740  0.00  0.00    +0.000 A 
ATOM     14  C   UNL     1       1.618   8.767  18.945  0.00  0.00    +0.000 A 
ATOM     15  C   UNL     1       1.548   8.249  20.245  0.00  0.00    +0.000 A 
ATOM     16  C   UNL     1       1.149   9.061  21.313  0.00  0.00    +0.000 A 
BRANCH  11  17
ATOM     17  O   UNL     1       0.346  11.261  22.043  0.00  0.00    +0.000 OA
BRANCH  17  19
ATOM     18  C   UNL     1      -1.389  12.502  23.097  0.00  0.00    +0.000 C 
ATOM     19  C   UNL     1      -1.068  11.296  22.234  0.00  0.00    +0.000 C 
ENDBRANCH  17  19
ENDBRANCH  11  17
ENDBRANCH  10  14
ENDBRANCH   6  10
ENDBRANCH   2   6
ENDBRANCH   1   4
BRANCH   1  20
ATOM     20  C   UNL     1       7.771   6.760  18.203  0.00  0.00    +0.000 C 
ATOM     21  O   UNL     1       8.280   6.089  19.097  0.00  0.00    +0.000 OA
ATOM     22  N   UNL     1       8.052   8.105  18.038  0.00  0.00    +0.000 N 
ATOM     23  H   UNL     1       7.381   8.669  17.514  0.00  0.00    +0.000 HD
BRANCH  22  24
ATOM     24  C   UNL     1       8.926   8.770  18.972  0.00  0.00    +0.000 C 
BRANCH  24  25
ATOM     25  C   UNL     1       8.986  10.258  18.752  0.00  0.00    +0.000 A 
ATOM     26  C   UNL     1       8.275  10.854  17.703  0.00  0.00    +0.000 A 
ATOM     27  C   UNL     1       8.303  12.239  17.520  0.00  0.00    +0.000 A 
ATOM     28  C   UNL     1       9.048  13.064  18.375  0.00  0.00    +0.000 A 
ATOM     29  C   UNL     1       9.793  12.460  19.398  0.00  0.00    +0.000 A 
ATOM     30  C   UNL     1       9.759  11.075  19.587  0.00  0.00    +0.000 A 
BRANCH  28  31
ATOM     31  C   UNL     1       9.090  14.553  18.121  0.00  0.00    +0.000 C 
BRANCH  31  32
ATOM     32  N   UNL     1      10.097  14.945  17.137  0.00  0.00    +0.000 NA
ATOM     33  H   UNL     1       9.700  14.831  16.205  0.00  0.00    +0.000 HD
ATOM     34  H   UNL     1      10.883  14.300  17.196  0.00  0.00    +0.000 HD
ENDBRANCH  31  32
ENDBRANCH  28  31
ENDBRANCH  24  25
ENDBRANCH  22  24
ENDBRANCH   1  20
BRANCH   1  35
ATOM     35  C   UNL     1       6.994   4.761  16.783  0.00  0.00    +0.000 C 
BRANCH  35  36
ATOM     36  C   UNL     1       6.838   4.632  15.269  0.00  0.00    +0.000 A 
ATOM     37  C   UNL     1       5.833   3.815  14.727  0.00  0.00    +0.000 A 
ATOM     38  C   UNL     1       5.751   3.604  13.349  0.00  0.00    +0.000 A 
ATOM     39  C   UNL     1       6.665   4.213  12.490  0.00  0.00    +0.000 A 
ATOM     40  C   UNL     1       7.636   5.064  13.005  0.00  0.00    +0.000 A 
ATOM     41  C   UNL     1       7.728   5.269  14.382  0.00  0.00    +0.000 A 
ENDBRANCH  35  36
BRANCH  35  42
ATOM     42  O   UNL     1       6.154   3.779  17.399  0.00  0.00    +0.000 OA
ATOM     43  H   UNL     1       5.247   4.124  17.417  0.00  0.00    +0.000 HD
ENDBRANCH  35  42
ENDBRANCH   1  35
TORSDOF 15
ENDMDL
MODEL 7
REMARK VINA RESULT:      -7.4      1.035      1.623
REMARK  Name = 
REMARK  16 active torsions:
REMARK  status: ('A' for Active; 'I' for Inactive)
REMARK    1  A    between atoms: C_1  and  C_2
REMARK    2  A    between atoms: C_2  and  O_3
REMARK    3  A    between atoms: O_3  and  C_4
REMARK    4  A    between atoms: C_7  and  C_8
REMARK    5  A    between atoms: C_8  and  C_9
REMARK    6  A    between atoms: C_9  and  N_10
REMARK    7  A    between atoms: C_9  and  C_11
REMARK    8  A    between atoms: N_13  and  C_14
REMARK    9  A    between atoms: C_14  and  C_15
REMARK   10  A    between atoms: C_14  and  C_27
REMARK   11  A    between atoms: N_17  and  C_18
REMARK   12  A    between atoms: C_18  and  C_19
REMARK   13  A    between atoms: C_22  and  C_23
REMARK   14  A    between atoms: C_23  and  N_24
REMARK   15  A    between atoms: C_27  and  O_28
REMARK   16  A    between atoms: C_27  and  C_29
REMARK                            x       y       z     vdW  Elec       q    Type
REMARK                         _______ _______ _______ _____ _____    ______ ____
ROOT
ATOM      1  C   UNL     1       2.822   6.557  18.726  0.00  0.00    +0.000 C 
ENDROOT
BRANCH   1   4
ATOM      2  C   UNL     1       5.060   5.515  18.718  0.00  0.00    +0.000 C 
ATOM      3  O   UNL     1       5.040   5.407  19.939  0.00  0.00    +0.000 OA
ATOM      4  N   UNL     1       4.033   6.117  18.021  0.00  0.00    +0.000 N 
ATOM      5  H   UNL     1       3.973   5.822  17.048  0.00  0.00    +0.000 HD
BRANCH   2   6
ATOM      6  C   UNL     1       6.214   5.064  17.798  0.00  0.00    +0.000 C 
BRANCH   6   7
ATOM      7  N   UNL     1       7.458   5.004  18.611  0.00  0.00    +0.000 NA
ATOM      8  H   UNL     1       7.510   4.084  19.060  0.00  0.00    +0.000 HD
ATOM      9  H   UNL     1       7.383   5.673  19.382  0.00  0.00    +0.000 HD
ENDBRANCH   6   7
BRANCH   6  10
ATOM     10  C   UNL     1       6.383   5.962  16.562  0.00  0.00    +0.000 C 
BRANCH  10  14
ATOM     11  C   UNL     1       6.705   3.822  12.816  0.00  0.00    +0.000 A 
ATOM     12  C   UNL     1       5.814   3.402  13.800  0.00  0.00    +0.000 A 
ATOM     13  C   UNL     1       5.714   4.098  15.005  0.00  0.00    +0.000 A 
ATOM     14  C   UNL     1       6.522   5.215  15.253  0.00  0.00    +0.000 A 
ATOM     15  C   UNL     1       7.448   5.606  14.277  0.00  0.00    +0.000 A 
ATOM     16  C   UNL     1       7.546   4.905  13.070  0.00  0.00    +0.000 A 
BRANCH  11  17
ATOM     17  O   UNL     1       6.680   3.095  11.659  0.00  0.00    +0.000 OA
BRANCH  17  19
ATOM     18  C   UNL     1       6.062   0.883  11.037  0.00  0.00    +0.000 C 
ATOM     19  C   UNL     1       5.551   2.238  11.492  0.00  0.00    +0.000 C 
ENDBRANCH  17  19
ENDBRANCH  11  17
ENDBRANCH  10  14
ENDBRANCH   6  10
ENDBRANCH   2   6
ENDBRANCH   1   4
BRANCH   1  20
ATOM     20  C   UNL     1       2.480   7.980  18.236  0.00  0.00    +0.000 C 
ATOM     21  O   UNL     1       2.933   8.461  17.201  0.00  0.00    +0.000 OA
ATOM     22  N   UNL     1       1.699   8.716  19.112  0.00  0.00    +0.000 N 
ATOM     23  H   UNL     1       1.629   8.386  20.076  0.00  0.00    +0.000 HD
BRANCH  22  24
ATOM     24  C   UNL     1       1.446  10.109  18.843  0.00  0.00    +0.000 C 
BRANCH  24  25
ATOM     25  C   UNL     1       0.005  10.383  18.505  0.00  0.00    +0.000 A 
ATOM     26  C   UNL     1      -0.643   9.656  17.499  0.00  0.00    +0.000 A 
ATOM     27  C   UNL     1      -1.991   9.887  17.210  0.00  0.00    +0.000 A 
ATOM     28  C   UNL     1      -2.724  10.854  17.913  0.00  0.00    +0.000 A 
ATOM     29  C   UNL     1      -2.061  11.609  18.890  0.00  0.00    +0.000 A 
ATOM     30  C   UNL     1      -0.714  11.373  19.186  0.00  0.00    +0.000 A 
BRANCH  28  31
ATOM     31  C   UNL     1      -4.166  11.106  17.543  0.00  0.00    +0.000 C 
BRANCH  31  32
ATOM     32  N   UNL     1      -5.022  11.376  18.696  0.00  0.00    +0.000 NA
ATOM     33  H   UNL     1      -4.428  11.557  19.505  0.00  0.00    +0.000 HD
ATOM     34  H   UNL     1      -5.556  10.537  18.914  0.00  0.00    +0.000 HD
ENDBRANCH  31  32
ENDBRANCH  28  31
ENDBRANCH  24  25
ENDBRANCH  22  24
ENDBRANCH   1  20
BRANCH   1  35
ATOM     35  C   UNL     1       1.638   5.569  18.541  0.00  0.00    +0.000 C 
BRANCH  35  36
ATOM     36  C   UNL     1       1.664   4.481  19.611  0.00  0.00    +0.000 A 
ATOM     37  C   UNL     1       2.045   4.790  20.928  0.00  0.00    +0.000 A 
ATOM     38  C   UNL     1       2.177   3.784  21.887  0.00  0.00    +0.000 A 
ATOM     39  C   UNL     1       1.922   2.455  21.550  0.00  0.00    +0.000 A 
ATOM     40  C   UNL     1       1.498   2.137  20.266  0.00  0.00    +0.000 A 
ATOM     41  C   UNL     1       1.374   3.138  19.301  0.00  0.00    +0.000 A 
ENDBRANCH  35  36
BRANCH  35  42
ATOM     42  O   UNL     1       1.630   4.929  17.260  0.00  0.00    +0.000 OA
ATOM     43  H   UNL     1       2.487   4.493  17.134  0.00  0.00    +0.000 HD
ENDBRANCH  35  42
ENDBRANCH   1  35
TORSDOF 15
ENDMDL
MODEL 8
REMARK VINA RESULT:      -7.4      4.233     11.284
REMARK  Name = 
REMARK  16 active torsions:
REMARK  status: ('A' for Active; 'I' for Inactive)
REMARK    1  A    between atoms: C_1  and  C_2
REMARK    2  A    between atoms: C_2  and  O_3
REMARK    3  A    between atoms: O_3  and  C_4
REMARK    4  A    between atoms: C_7  and  C_8
REMARK    5  A    between atoms: C_8  and  C_9
REMARK    6  A    between atoms: C_9  and  N_10
REMARK    7  A    between atoms: C_9  and  C_11
REMARK    8  A    between atoms: N_13  and  C_14
REMARK    9  A    between atoms: C_14  and  C_15
REMARK   10  A    between atoms: C_14  and  C_27
REMARK   11  A    between atoms: N_17  and  C_18
REMARK   12  A    between atoms: C_18  and  C_19
REMARK   13  A    between atoms: C_22  and  C_23
REMARK   14  A    between atoms: C_23  and  N_24
REMARK   15  A    between atoms: C_27  and  O_28
REMARK   16  A    between atoms: C_27  and  C_29
REMARK                            x       y       z     vdW  Elec       q    Type
REMARK                         _______ _______ _______ _____ _____    ______ ____
ROOT
ATOM      1  C   UNL     1       0.861  11.072  20.211  0.00  0.00    +0.000 C 
ENDROOT
BRANCH   1   4
ATOM      2  C   UNL     1       0.724  13.309  21.245  0.00  0.00    +0.000 C 
ATOM      3  O   UNL     1       1.835  13.600  20.817  0.00  0.00    +0.000 OA
ATOM      4  N   UNL     1       0.168  12.062  21.045  0.00  0.00    +0.000 N 
ATOM      5  H   UNL     1      -0.849  12.055  21.098  0.00  0.00    +0.000 HD
BRANCH   2   6
ATOM      6  C   UNL     1      -0.180  14.230  22.090  0.00  0.00    +0.000 C 
BRANCH   6   7
ATOM      7  N   UNL     1       0.685  15.222  22.781  0.00  0.00    +0.000 NA
ATOM      8  H   UNL     1       0.149  16.085  22.916  0.00  0.00    +0.000 HD
ATOM      9  H   UNL     1       1.454  15.481  22.158  0.00  0.00    +0.000 HD
ENDBRANCH   6   7
BRANCH   6  10
ATOM     10  C   UNL     1      -1.067  13.458  23.080  0.00  0.00    +0.000 C 
BRANCH  10  14
ATOM     11  C   UNL     1      -5.272  13.487  22.064  0.00  0.00    +0.000 A 
ATOM     12  C   UNL     1      -4.348  14.186  21.290  0.00  0.00    +0.000 A 
ATOM     13  C   UNL     1      -2.994  14.171  21.622  0.00  0.00    +0.000 A 
ATOM     14  C   UNL     1      -2.544  13.472  22.750  0.00  0.00    +0.000 A 
ATOM     15  C   UNL     1      -3.483  12.807  23.549  0.00  0.00    +0.000 A 
ATOM     16  C   UNL     1      -4.842  12.825  23.213  0.00  0.00    +0.000 A 
BRANCH  11  17
ATOM     17  O   UNL     1      -6.561  13.532  21.614  0.00  0.00    +0.000 OA
BRANCH  17  19
ATOM     18  C   UNL     1      -6.896  11.587  20.283  0.00  0.00    +0.000 C 
ATOM     19  C   UNL     1      -7.250  12.282  21.586  0.00  0.00    +0.000 C 
ENDBRANCH  17  19
ENDBRANCH  11  17
ENDBRANCH  10  14
ENDBRANCH   6  10
ENDBRANCH   2   6
ENDBRANCH   1   4
BRANCH   1  20
ATOM     20  C   UNL     1       0.531   9.670  20.769  0.00  0.00    +0.000 C 
ATOM     21  O   UNL     1      -0.433   9.446  21.495  0.00  0.00    +0.000 OA
ATOM     22  N   UNL     1       1.471   8.698  20.469  0.00  0.00    +0.000 N 
ATOM     23  H   UNL     1       2.390   9.009  20.149  0.00  0.00    +0.000 HD
BRANCH  22  24
ATOM     24  C   UNL     1       1.359   7.390  21.066  0.00  0.00    +0.000 C 
BRANCH  24  25
ATOM     25  C   UNL     1       1.824   6.292  20.148  0.00  0.00    +0.000 A 
ATOM     26  C   UNL     1       1.672   4.948  20.509  0.00  0.00    +0.000 A 
ATOM     27  C   UNL     1       2.072   3.928  19.641  0.00  0.00    +0.000 A 
ATOM     28  C   UNL     1       2.641   4.225  18.394  0.00  0.00    +0.000 A 
ATOM     29  C   UNL     1       2.831   5.572  18.054  0.00  0.00    +0.000 A 
ATOM     30  C   UNL     1       2.423   6.593  18.918  0.00  0.00    +0.000 A 
BRANCH  28  31
ATOM     31  C   UNL     1       3.102   3.097  17.500  0.00  0.00    +0.000 C 
BRANCH  31  32
ATOM     32  N   UNL     1       2.400   1.839  17.745  0.00  0.00    +0.000 NA
ATOM     33  H   UNL     1       1.454   2.053  18.062  0.00  0.00    +0.000 HD
ATOM     34  H   UNL     1       2.857   1.351  18.513  0.00  0.00    +0.000 HD
ENDBRANCH  31  32
ENDBRANCH  28  31
ENDBRANCH  24  25
ENDBRANCH  22  24
ENDBRANCH   1  20
BRANCH   1  35
ATOM     35  C   UNL     1       0.500  11.207  18.707  0.00  0.00    +0.000 C 
BRANCH  35  36
ATOM     36  C   UNL     1      -0.995  10.989  18.484  0.00  0.00    +0.000 A 
ATOM     37  C   UNL     1      -1.444   9.922  17.687  0.00  0.00    +0.000 A 
ATOM     38  C   UNL     1      -2.801   9.778  17.387  0.00  0.00    +0.000 A 
ATOM     39  C   UNL     1      -3.730  10.690  17.886  0.00  0.00    +0.000 A 
ATOM     40  C   UNL     1      -3.309  11.722  18.716  0.00  0.00    +0.000 A 
ATOM     41  C   UNL     1      -1.954  11.877  19.010  0.00  0.00    +0.000 A 
ENDBRANCH  35  36
BRANCH  35  42
ATOM     42  O   UNL     1       1.211  10.289  17.869  0.00  0.00    +0.000 OA
ATOM     43  H   UNL     1       0.717   9.455  17.847  0.00  0.00    +0.000 HD
ENDBRANCH  35  42
ENDBRANCH   1  35
TORSDOF 15
ENDMDL
MODEL 9
REMARK VINA RESULT:      -7.1      3.873      8.749
REMARK  Name = 
REMARK  16 active torsions:
REMARK  status: ('A' for Active; 'I' for Inactive)
REMARK    1  A    between atoms: C_1  and  C_2
REMARK    2  A    between atoms: C_2  and  O_3
REMARK    3  A    between atoms: O_3  and  C_4
REMARK    4  A    between atoms: C_7  and  C_8
REMARK    5  A    between atoms: C_8  and  C_9
REMARK    6  A    between atoms: C_9  and  N_10
REMARK    7  A    between atoms: C_9  and  C_11
REMARK    8  A    between atoms: N_13  and  C_14
REMARK    9  A    between atoms: C_14  and  C_15
REMARK   10  A    between atoms: C_14  and  C_27
REMARK   11  A    between atoms: N_17  and  C_18
REMARK   12  A    between atoms: C_18  and  C_19
REMARK   13  A    between atoms: C_22  and  C_23
REMARK   14  A    between atoms: C_23  and  N_24
REMARK   15  A    between atoms: C_27  and  O_28
REMARK   16  A    between atoms: C_27  and  C_29
REMARK                            x       y       z     vdW  Elec       q    Type
REMARK                         _______ _______ _______ _____ _____    ______ ____
ROOT
ATOM      1  C   UNL     1       5.950   6.036  16.575  0.00  0.00    +0.000 C 
ENDROOT
BRANCH   1   4
ATOM      2  C   UNL     1       4.585   5.782  18.616  0.00  0.00    +0.000 C 
ATOM      3  O   UNL     1       5.279   4.843  18.991  0.00  0.00    +0.000 OA
ATOM      4  N   UNL     1       4.800   6.412  17.408  0.00  0.00    +0.000 N 
ATOM      5  H   UNL     1       4.442   7.365  17.376  0.00  0.00    +0.000 HD
BRANCH   2   6
ATOM      6  C   UNL     1       3.371   6.357  19.375  0.00  0.00    +0.000 C 
BRANCH   6   7
ATOM      7  N   UNL     1       2.796   5.276  20.218  0.00  0.00    +0.000 NA
ATOM      8  H   UNL     1       3.211   5.336  21.154  0.00  0.00    +0.000 HD
ATOM      9  H   UNL     1       3.101   4.371  19.850  0.00  0.00    +0.000 HD
ENDBRANCH   6   7
BRANCH   6  10
ATOM     10  C   UNL     1       2.317   6.976  18.442  0.00  0.00    +0.000 C 
BRANCH  10  14
ATOM     11  C   UNL     1       0.899  10.905  19.562  0.00  0.00    +0.000 A 
ATOM     12  C   UNL     1       1.442  10.679  18.300  0.00  0.00    +0.000 A 
ATOM     13  C   UNL     1       1.895   9.409  17.945  0.00  0.00    +0.000 A 
ATOM     14  C   UNL     1       1.833   8.348  18.857  0.00  0.00    +0.000 A 
ATOM     15  C   UNL     1       1.327   8.592  20.141  0.00  0.00    +0.000 A 
ATOM     16  C   UNL     1       0.873   9.869  20.494  0.00  0.00    +0.000 A 
BRANCH  11  17
ATOM     17  O   UNL     1       0.441  12.175  19.780  0.00  0.00    +0.000 OA
BRANCH  17  19
ATOM     18  C   UNL     1      -1.864  12.285  19.200  0.00  0.00    +0.000 C 
ATOM     19  C   UNL     1      -0.457  12.685  18.795  0.00  0.00    +0.000 C 
ENDBRANCH  17  19
ENDBRANCH  11  17
ENDBRANCH  10  14
ENDBRANCH   6  10
ENDBRANCH   2   6
ENDBRANCH   1   4
BRANCH   1  20
ATOM     20  C   UNL     1       7.234   6.350  17.372  0.00  0.00    +0.000 C 
ATOM     21  O   UNL     1       7.982   5.479  17.808  0.00  0.00    +0.000 OA
ATOM     22  N   UNL     1       7.425   7.693  17.648  0.00  0.00    +0.000 N 
ATOM     23  H   UNL     1       6.622   8.317  17.545  0.00  0.00    +0.000 HD
BRANCH  22  24
ATOM     24  C   UNL     1       8.499   8.096  18.521  0.00  0.00    +0.000 C 
BRANCH  24  25
ATOM     25  C   UNL     1       8.697   9.588  18.547  0.00  0.00    +0.000 A 
ATOM     26  C   UNL     1       9.462  10.190  19.552  0.00  0.00    +0.000 A 
ATOM     27  C   UNL     1       9.674  11.571  19.556  0.00  0.00    +0.000 A 
ATOM     28  C   UNL     1       9.119  12.388  18.560  0.00  0.00    +0.000 A 
ATOM     29  C   UNL     1       8.317  11.788  17.580  0.00  0.00    +0.000 A 
ATOM     30  C   UNL     1       8.112  10.404  17.570  0.00  0.00    +0.000 A 
BRANCH  28  31
ATOM     31  C   UNL     1       9.332  13.882  18.621  0.00  0.00    +0.000 C 
BRANCH  31  32
ATOM     32  N   UNL     1       8.592  14.616  17.598  0.00  0.00    +0.000 NA
ATOM     33  H   UNL     1       8.820  15.607  17.681  0.00  0.00    +0.000 HD
ATOM     34  H   UNL     1       7.595  14.533  17.789  0.00  0.00    +0.000 HD
ENDBRANCH  31  32
ENDBRANCH  28  31
ENDBRANCH  24  25
ENDBRANCH  22  24
ENDBRANCH   1  20
BRANCH   1  35
ATOM     35  C   UNL     1       5.889   4.554  16.116  0.00  0.00    +0.000 C 
BRANCH  35  36
ATOM     36  C   UNL     1       6.359   4.412  14.670  0.00  0.00    +0.000 A 
ATOM     37  C   UNL     1       7.408   5.210  14.184  0.00  0.00    +0.000 A 
ATOM     38  C   UNL     1       7.773   5.166  12.837  0.00  0.00    +0.000 A 
ATOM     39  C   UNL     1       7.104   4.317  11.957  0.00  0.00    +0.000 A 
ATOM     40  C   UNL     1       6.097   3.485  12.430  0.00  0.00    +0.000 A 
ATOM     41  C   UNL     1       5.721   3.533  13.773  0.00  0.00    +0.000 A 
ENDBRANCH  35  36
BRANCH  35  42
ATOM     42  O   UNL     1       4.578   3.984  16.212  0.00  0.00    +0.000 OA
ATOM     43  H   UNL     1       4.438   3.416  15.439  0.00  0.00    +0.000 HD
ENDBRANCH  35  42
ENDBRANCH   1  35
TORSDOF 15
ENDMDL
