MODEL 1
REMARK VINA RESULT:      -7.7      0.000      0.000
REMARK  Name = 
REMARK  12 active torsions:
REMARK  status: ('A' for Active; 'I' for Inactive)
REMARK    1  A    between atoms: C_1  and  N_2
REMARK    2  A    between atoms: N_2  and  C_3
REMARK    3  A    between atoms: N_2  and  C_4
REMARK    4  A    between atoms: C_7  and  C_8
REMARK    5  A    between atoms: C_9  and  C_10
REMARK    6  A    between atoms: C_10  and  C_12
REMARK    7  A    between atoms: C_12  and  C_13
REMARK    8  A    between atoms: C_13  and  C_15
REMARK    9  A    between atoms: C_15  and  C_16
REMARK   10  A    between atoms: C_16  and  C_17
REMARK   11  A    between atoms: C_20  and  O_21
REMARK   12  A    between atoms: C_24  and  N_25
REMARK                            x       y       z     vdW  Elec       q    Type
REMARK                         _______ _______ _______ _____ _____    ______ ____
ROOT
ATOM      1  C   UNL     1       3.706   2.505  19.671  0.00  0.00    +0.000 C 
ATOM      2  O   UNL     1       4.303   2.132  20.680  0.00  0.00    +0.000 OA
ENDROOT
BRANCH   1   4
ATOM      3  C   UNL     1       4.720   3.961  17.983  0.00  0.00    +0.000 C 
ATOM      4  C   UNL     1       4.434   2.715  18.381  0.00  0.00    +0.000 C 
BRANCH   3   8
ATOM      5  C   UNL     1       6.736   4.694  14.208  0.00  0.00    +0.000 A 
ATOM      6  C   UNL     1       5.448   4.134  14.304  0.00  0.00    +0.000 A 
ATOM      7  C   UNL     1       4.813   3.897  15.534  0.00  0.00    +0.000 A 
ATOM      8  C   UNL     1       5.437   4.232  16.736  0.00  0.00    +0.000 A 
ATOM      9  C   UNL     1       6.702   4.822  16.651  0.00  0.00    +0.000 A 
ATOM     10  C   UNL     1       7.351   5.034  15.421  0.00  0.00    +0.000 A 
BRANCH   5  12
ATOM     11  C   UNL     1       7.104   3.997  11.853  0.00  0.00    +0.000 C 
ATOM     12  N   UNL     1       7.362   4.886  12.982  0.00  0.00    +0.000 N 
ATOM     13  C   UNL     1       8.487   5.808  12.864  0.00  0.00    +0.000 C 
ENDBRANCH   5  12
BRANCH   9  14
ATOM     14  N   UNL     1       7.388   5.283  17.844  0.00  0.00    +0.000 N 
ATOM     15  O   UNL     1       8.118   4.475  18.434  0.00  0.00    +0.000 OA
ATOM     16  O   UNL     1       7.221   6.468  18.164  0.00  0.00    +0.000 OA
ENDBRANCH   9  14
ENDBRANCH   3   8
ENDBRANCH   1   4
BRANCH   1  17
ATOM     17  C   UNL     1       2.209   2.659  19.661  0.00  0.00    +0.000 C 
BRANCH  17  18
ATOM     18  C   UNL     1       1.636   3.322  20.888  0.00  0.00    +0.000 C 
ATOM     19  O   UNL     1       1.402   2.693  21.922  0.00  0.00    +0.000 OA
BRANCH  18  20
ATOM     20  C   UNL     1       1.373   4.811  20.814  0.00  0.00    +0.000 C 
BRANCH  20  21
ATOM     21  C   UNL     1       2.635   5.587  20.447  0.00  0.00    +0.000 C 
BRANCH  21  22
ATOM     22  C   UNL     1       2.355   6.827  19.635  0.00  0.00    +0.000 A 
ATOM     23  C   UNL     1       1.621   7.888  20.188  0.00  0.00    +0.000 A 
ATOM     24  C   UNL     1       1.393   9.054  19.453  0.00  0.00    +0.000 A 
ATOM     25  C   UNL     1       1.898   9.159  18.161  0.00  0.00    +0.000 A 
ATOM     26  C   UNL     1       2.623   8.119  17.597  0.00  0.00    +0.000 A 
ATOM     27  C   UNL     1       2.854   6.956  18.332  0.00  0.00    +0.000 A 
BRANCH  25  28
ATOM     28  O   UNL     1       1.709  10.282  17.412  0.00  0.00    +0.000 OA
ATOM     29  H   UNL     1       2.378  10.939  17.662  0.00  0.00    +0.000 HD
ENDBRANCH  25  28
ENDBRANCH  21  22
ENDBRANCH  20  21
ENDBRANCH  18  20
ENDBRANCH  17  18
ENDBRANCH   1  17
TORSDOF 10
ENDMDL
MODEL 2
REMARK VINA RESULT:      -7.5      2.666      6.502
REMARK  Name = 
REMARK  12 active torsions:
REMARK  status: ('A' for Active; 'I' for Inactive)
REMARK    1  A    between atoms: C_1  and  N_2
REMARK    2  A    between atoms: N_2  and  C_3
REMARK    3  A    between atoms: N_2  and  C_4
REMARK    4  A    between atoms: C_7  and  C_8
REMARK    5  A    between atoms: C_9  and  C_10
REMARK    6  A    between atoms: C_10  and  C_12
REMARK    7  A    between atoms: C_12  and  C_13
REMARK    8  A    between atoms: C_13  and  C_15
REMARK    9  A    between atoms: C_15  and  C_16
REMARK   10  A    between atoms: C_16  and  C_17
REMARK   11  A    between atoms: C_20  and  O_21
REMARK   12  A    between atoms: C_24  and  N_25
REMARK                            x       y       z     vdW  Elec       q    Type
REMARK                         _______ _______ _______ _____ _____    ______ ____
ROOT
ATOM      1  C   UNL     1       1.925   3.463  21.138  0.00  0.00    +0.000 C 
ATOM      2  O   UNL     1       2.588   3.376  22.171  0.00  0.00    +0.000 OA
ENDROOT
BRANCH   1   4
ATOM      3  C   UNL     1       2.216   5.872  20.803  0.00  0.00    +0.000 C 
ATOM      4  C   UNL     1       1.444   4.790  20.642  0.00  0.00    +0.000 C 
BRANCH   3   8
ATOM      5  C   UNL     1       0.931   9.821  19.537  0.00  0.00    +0.000 A 
ATOM      6  C   UNL     1       0.764   9.333  20.847  0.00  0.00    +0.000 A 
ATOM      7  C   UNL     1       1.179   8.050  21.238  0.00  0.00    +0.000 A 
ATOM      8  C   UNL     1       1.805   7.195  20.331  0.00  0.00    +0.000 A 
ATOM      9  C   UNL     1       2.009   7.682  19.036  0.00  0.00    +0.000 A 
ATOM     10  C   UNL     1       1.568   8.957  18.636  0.00  0.00    +0.000 A 
BRANCH   5  12
ATOM     11  C   UNL     1      -0.820  11.258  18.520  0.00  0.00    +0.000 C 
ATOM     12  N   UNL     1       0.479  11.080  19.161  0.00  0.00    +0.000 N 
ATOM     13  C   UNL     1       1.391  12.219  19.151  0.00  0.00    +0.000 C 
ENDBRANCH   5  12
BRANCH   9  14
ATOM     14  N   UNL     1       2.730   6.897  18.051  0.00  0.00    +0.000 N 
ATOM     15  O   UNL     1       3.870   7.270  17.744  0.00  0.00    +0.000 OA
ATOM     16  O   UNL     1       2.162   5.887  17.615  0.00  0.00    +0.000 OA
ENDBRANCH   9  14
ENDBRANCH   3   8
ENDBRANCH   1   4
BRANCH   1  17
ATOM     17  C   UNL     1       1.665   2.258  20.273  0.00  0.00    +0.000 C 
BRANCH  17  18
ATOM     18  C   UNL     1       1.327   2.574  18.839  0.00  0.00    +0.000 C 
ATOM     19  O   UNL     1       0.165   2.728  18.459  0.00  0.00    +0.000 OA
BRANCH  18  20
ATOM     20  C   UNL     1       2.481   2.721  17.869  0.00  0.00    +0.000 C 
BRANCH  20  21
ATOM     21  C   UNL     1       3.821   2.789  18.598  0.00  0.00    +0.000 C 
BRANCH  21  22
ATOM     22  C   UNL     1       4.799   3.739  17.952  0.00  0.00    +0.000 A 
ATOM     23  C   UNL     1       5.714   4.459  18.736  0.00  0.00    +0.000 A 
ATOM     24  C   UNL     1       6.647   5.311  18.139  0.00  0.00    +0.000 A 
ATOM     25  C   UNL     1       6.666   5.443  16.755  0.00  0.00    +0.000 A 
ATOM     26  C   UNL     1       5.767   4.741  15.964  0.00  0.00    +0.000 A 
ATOM     27  C   UNL     1       4.837   3.888  16.559  0.00  0.00    +0.000 A 
BRANCH  25  28
ATOM     28  O   UNL     1       7.565   6.253  16.130  0.00  0.00    +0.000 OA
ATOM     29  H   UNL     1       8.460   5.918  16.304  0.00  0.00    +0.000 HD
ENDBRANCH  25  28
ENDBRANCH  21  22
ENDBRANCH  20  21
ENDBRANCH  18  20
ENDBRANCH  17  18
ENDBRANCH   1  17
TORSDOF 10
ENDMDL
MODEL 3
REMARK VINA RESULT:      -7.4      0.893      1.507
REMARK  Name = 
REMARK  12 active torsions:
REMARK  status: ('A' for Active; 'I' for Inactive)
REMARK    1  A    between atoms: C_1  and  N_2
REMARK    2  A    between atoms: N_2  and  C_3
REMARK    3  A    between atoms: N_2  and  C_4
REMARK    4  A    between atoms: C_7  and  C_8
REMARK    5  A    between atoms: C_9  and  C_10
REMARK    6  A    between atoms: C_10  and  C_12
REMARK    7  A    between atoms: C_12  and  C_13
REMARK    8  A    between atoms: C_13  and  C_15
REMARK    9  A    between atoms: C_15  and  C_16
REMARK   10  A    between atoms: C_16  and  C_17
REMARK   11  A    between atoms: C_20  and  O_21
REMARK   12  A    between atoms: C_24  and  N_25
REMARK                            x       y       z     vdW  Elec       q    Type
REMARK                         _______ _______ _______ _____ _____    ______ ____
ROOT
ATOM      1  C   UNL     1       2.217   2.719  18.497  0.00  0.00    +0.000 C 
ATOM      2  O   UNL     1       1.003   2.589  18.345  0.00  0.00    +0.000 OA
ENDROOT
BRANCH   1   4
ATOM      3  C   UNL     1       4.123   3.848  17.453  0.00  0.00    +0.000 C 
ATOM      4  C   UNL     1       3.116   2.974  17.329  0.00  0.00    +0.000 C 
BRANCH   3   8
ATOM      5  C   UNL     1       6.754   4.627  14.088  0.00  0.00    +0.000 A 
ATOM      6  C   UNL     1       5.462   4.082  13.954  0.00  0.00    +0.000 A 
ATOM      7  C   UNL     1       4.627   3.830  15.054  0.00  0.00    +0.000 A 
ATOM      8  C   UNL     1       5.043   4.134  16.350  0.00  0.00    +0.000 A 
ATOM      9  C   UNL     1       6.309   4.708  16.493  0.00  0.00    +0.000 A 
ATOM     10  C   UNL     1       7.158   4.935  15.394  0.00  0.00    +0.000 A 
BRANCH   5  12
ATOM     11  C   UNL     1       8.553   5.920  12.968  0.00  0.00    +0.000 C 
ATOM     12  N   UNL     1       7.579   4.834  12.989  0.00  0.00    +0.000 N 
ATOM     13  C   UNL     1       7.316   4.147  11.729  0.00  0.00    +0.000 C 
ENDBRANCH   5  12
BRANCH   9  14
ATOM     14  N   UNL     1       6.790   5.137  17.793  0.00  0.00    +0.000 N 
ATOM     15  O   UNL     1       7.600   4.403  18.376  0.00  0.00    +0.000 OA
ATOM     16  O   UNL     1       6.379   6.229  18.210  0.00  0.00    +0.000 OA
ENDBRANCH   9  14
ENDBRANCH   3   8
ENDBRANCH   1   4
BRANCH   1  17
ATOM     17  C   UNL     1       2.834   2.737  19.870  0.00  0.00    +0.000 C 
BRANCH  17  18
ATOM     18  C   UNL     1       1.975   3.363  20.939  0.00  0.00    +0.000 C 
ATOM     19  O   UNL     1       1.578   2.725  21.915  0.00  0.00    +0.000 OA
BRANCH  18  20
ATOM     20  C   UNL     1       1.629   4.828  20.781  0.00  0.00    +0.000 C 
BRANCH  20  21
ATOM     21  C   UNL     1       2.814   5.632  20.253  0.00  0.00    +0.000 C 
BRANCH  21  22
ATOM     22  C   UNL     1       2.409   6.941  19.621  0.00  0.00    +0.000 A 
ATOM     23  C   UNL     1       2.774   7.235  18.298  0.00  0.00    +0.000 A 
ATOM     24  C   UNL     1       2.368   8.430  17.697  0.00  0.00    +0.000 A 
ATOM     25  C   UNL     1       1.597   9.332  18.421  0.00  0.00    +0.000 A 
ATOM     26  C   UNL     1       1.229   9.060  19.731  0.00  0.00    +0.000 A 
ATOM     27  C   UNL     1       1.631   7.866  20.330  0.00  0.00    +0.000 A 
BRANCH  25  28
ATOM     28  O   UNL     1       1.170  10.504  17.871  0.00  0.00    +0.000 OA
ATOM     29  H   UNL     1       0.243  10.647  18.124  0.00  0.00    +0.000 HD
ENDBRANCH  25  28
ENDBRANCH  21  22
ENDBRANCH  20  21
ENDBRANCH  18  20
ENDBRANCH  17  18
ENDBRANCH   1  17
TORSDOF 10
ENDMDL
MODEL 4
REMARK VINA RESULT:      -7.4      3.503      7.158
REMARK  Name = 
REMARK  12 active torsions:
REMARK  status: ('A' for Active; 'I' for Inactive)
REMARK    1  A    between atoms: C_1  and  N_2
REMARK    2  A    between atoms: N_2  and  C_3
REMARK    3  A    between atoms: N_2  and  C_4
REMARK    4  A    between atoms: C_7  and  C_8
REMARK    5  A    between atoms: C_9  and  C_10
REMARK    6  A    between atoms: C_10  and  C_12
REMARK    7  A    between atoms: C_12  and  C_13
REMARK    8  A    between atoms: C_13  and  C_15
REMARK    9  A    between atoms: C_15  and  C_16
REMARK   10  A    between atoms: C_16  and  C_17
REMARK   11  A    between atoms: C_20  and  O_21
REMARK   12  A    between atoms: C_24  and  N_25
REMARK                            x       y       z     vdW  Elec       q    Type
REMARK                         _______ _______ _______ _____ _____    ______ ____
ROOT
ATOM      1  C   UNL     1       1.772   4.730  20.530  0.00  0.00    +0.000 C 
ATOM      2  O   UNL     1       2.896   4.594  21.009  0.00  0.00    +0.000 OA
ENDROOT
BRANCH   1   4
ATOM      3  C   UNL     1       2.063   7.147  20.255  0.00  0.00    +0.000 C 
ATOM      4  C   UNL     1       1.266   6.079  20.125  0.00  0.00    +0.000 C 
BRANCH   3   8
ATOM      5  C   UNL     1       0.846  11.113  18.973  0.00  0.00    +0.000 A 
ATOM      6  C   UNL     1       1.475  10.181  18.125  0.00  0.00    +0.000 A 
ATOM      7  C   UNL     1       1.868   8.904  18.558  0.00  0.00    +0.000 A 
ATOM      8  C   UNL     1       1.630   8.490  19.869  0.00  0.00    +0.000 A 
ATOM      9  C   UNL     1       0.974   9.394  20.710  0.00  0.00    +0.000 A 
ATOM     10  C   UNL     1       0.605  10.683  20.285  0.00  0.00    +0.000 A 
BRANCH   5  12
ATOM     11  C   UNL     1       1.410  13.513  18.688  0.00  0.00    +0.000 C 
ATOM     12  N   UNL     1       0.499  12.385  18.534  0.00  0.00    +0.000 N 
ATOM     13  C   UNL     1      -0.879  12.683  18.155  0.00  0.00    +0.000 C 
ENDBRANCH   5  12
BRANCH   9  14
ATOM     14  N   UNL     1       0.606   9.018  22.063  0.00  0.00    +0.000 N 
ATOM     15  O   UNL     1      -0.457   8.402  22.217  0.00  0.00    +0.000 OA
ATOM     16  O   UNL     1       1.406   9.310  22.963  0.00  0.00    +0.000 OA
ENDBRANCH   9  14
ENDBRANCH   3   8
ENDBRANCH   1   4
BRANCH   1  17
ATOM     17  C   UNL     1       0.902   3.539  20.227  0.00  0.00    +0.000 C 
BRANCH  17  18
ATOM     18  C   UNL     1       0.925   3.091  18.788  0.00  0.00    +0.000 C 
ATOM     19  O   UNL     1       0.349   2.069  18.412  0.00  0.00    +0.000 OA
BRANCH  18  20
ATOM     20  C   UNL     1       1.674   3.963  17.802  0.00  0.00    +0.000 C 
BRANCH  20  21
ATOM     21  C   UNL     1       2.902   3.251  17.242  0.00  0.00    +0.000 C 
BRANCH  21  22
ATOM     22  C   UNL     1       4.076   4.173  17.025  0.00  0.00    +0.000 A 
ATOM     23  C   UNL     1       4.084   5.459  17.589  0.00  0.00    +0.000 A 
ATOM     24  C   UNL     1       5.187   6.301  17.423  0.00  0.00    +0.000 A 
ATOM     25  C   UNL     1       6.283   5.858  16.691  0.00  0.00    +0.000 A 
ATOM     26  C   UNL     1       6.292   4.591  16.124  0.00  0.00    +0.000 A 
ATOM     27  C   UNL     1       5.193   3.748  16.293  0.00  0.00    +0.000 A 
BRANCH  25  28
ATOM     28  O   UNL     1       7.384   6.641  16.513  0.00  0.00    +0.000 OA
ATOM     29  H   UNL     1       8.117   6.269  17.029  0.00  0.00    +0.000 HD
ENDBRANCH  25  28
ENDBRANCH  21  22
ENDBRANCH  20  21
ENDBRANCH  18  20
ENDBRANCH  17  18
ENDBRANCH   1  17
TORSDOF 10
ENDMDL
MODEL 5
REMARK VINA RESULT:      -7.4      6.085      8.210
REMARK  Name = 
REMARK  12 active torsions:
REMARK  status: ('A' for Active; 'I' for Inactive)
REMARK    1  A    between atoms: C_1  and  N_2
REMARK    2  A    between atoms: N_2  and  C_3
REMARK    3  A    between atoms: N_2  and  C_4
REMARK    4  A    between atoms: C_7  and  C_8
REMARK    5  A    between atoms: C_9  and  C_10
REMARK    6  A    between atoms: C_10  and  C_12
REMARK    7  A    between atoms: C_12  and  C_13
REMARK    8  A    between atoms: C_13  and  C_15
REMARK    9  A    between atoms: C_15  and  C_16
REMARK   10  A    between atoms: C_16  and  C_17
REMARK   11  A    between atoms: C_20  and  O_21
REMARK   12  A    between atoms: C_24  and  N_25
REMARK                            x       y       z     vdW  Elec       q    Type
REMARK                         _______ _______ _______ _____ _____    ______ ____
ROOT
ATOM      1  C   UNL     1       7.792   8.026  17.999  0.00  0.00    +0.000 C 
ATOM      2  O   UNL     1       8.606   7.395  18.672  0.00  0.00    +0.000 OA
ENDROOT
BRANCH   1   4
ATOM      3  C   UNL     1       8.930  10.154  18.418  0.00  0.00    +0.000 C 
ATOM      4  C   UNL     1       7.922   9.506  17.822  0.00  0.00    +0.000 C 
BRANCH   3   8
ATOM      5  C   UNL     1       9.359  14.444  17.905  0.00  0.00    +0.000 A 
ATOM      6  C   UNL     1       8.257  13.711  17.426  0.00  0.00    +0.000 A 
ATOM      7  C   UNL     1       8.138  12.322  17.594  0.00  0.00    +0.000 A 
ATOM      8  C   UNL     1       9.117  11.599  18.275  0.00  0.00    +0.000 A 
ATOM      9  C   UNL     1      10.198  12.321  18.787  0.00  0.00    +0.000 A 
ATOM     10  C   UNL     1      10.333  13.709  18.595  0.00  0.00    +0.000 A 
BRANCH   5  12
ATOM     11  C   UNL     1      10.559  16.364  16.887  0.00  0.00    +0.000 C 
ATOM     12  N   UNL     1       9.477  15.813  17.695  0.00  0.00    +0.000 N 
ATOM     13  C   UNL     1       8.688  16.751  18.488  0.00  0.00    +0.000 C 
ENDBRANCH   5  12
BRANCH   9  14
ATOM     14  N   UNL     1      11.219  11.667  19.585  0.00  0.00    +0.000 N 
ATOM     15  O   UNL     1      11.003  11.535  20.797  0.00  0.00    +0.000 OA
ATOM     16  O   UNL     1      12.221  11.253  18.983  0.00  0.00    +0.000 OA
ENDBRANCH   9  14
ENDBRANCH   3   8
ENDBRANCH   1   4
BRANCH   1  17
ATOM     17  C   UNL     1       6.699   7.325  17.237  0.00  0.00    +0.000 C 
BRANCH  17  18
ATOM     18  C   UNL     1       7.050   5.936  16.767  0.00  0.00    +0.000 C 
ATOM     19  O   UNL     1       7.628   5.733  15.698  0.00  0.00    +0.000 OA
BRANCH  18  20
ATOM     20  C   UNL     1       6.681   4.783  17.677  0.00  0.00    +0.000 C 
BRANCH  20  21
ATOM     21  C   UNL     1       5.596   5.178  18.674  0.00  0.00    +0.000 C 
BRANCH  21  22
ATOM     22  C   UNL     1       4.356   4.324  18.572  0.00  0.00    +0.000 A 
ATOM     23  C   UNL     1       3.269   4.739  17.787  0.00  0.00    +0.000 A 
ATOM     24  C   UNL     1       2.135   3.933  17.659  0.00  0.00    +0.000 A 
ATOM     25  C   UNL     1       2.087   2.710  18.318  0.00  0.00    +0.000 A 
ATOM     26  C   UNL     1       3.151   2.284  19.102  0.00  0.00    +0.000 A 
ATOM     27  C   UNL     1       4.285   3.088  19.227  0.00  0.00    +0.000 A 
BRANCH  25  28
ATOM     28  O   UNL     1       1.006   1.887  18.213  0.00  0.00    +0.000 OA
ATOM     29  H   UNL     1       1.259   1.001  18.520  0.00  0.00    +0.000 HD
ENDBRANCH  25  28
ENDBRANCH  21  22
ENDBRANCH  20  21
ENDBRANCH  18  20
ENDBRANCH  17  18
ENDBRANCH   1  17
TORSDOF 10
ENDMDL
MODEL 6
REMARK VINA RESULT:      -7.3      0.936      1.396
REMARK  Name = 
REMARK  12 active torsions:
REMARK  status: ('A' for Active; 'I' for Inactive)
REMARK    1  A    between atoms: C_1  and  N_2
REMARK    2  A    between atoms: N_2  and  C_3
REMARK    3  A    between atoms: N_2  and  C_4
REMARK    4  A    between atoms: C_7  and  C_8
REMARK    5  A    between atoms: C_9  and  C_10
REMARK    6  A    between atoms: C_10  and  C_12
REMARK    7  A    between atoms: C_12  and  C_13
REMARK    8  A    between atoms: C_13  and  C_15
REMARK    9  A    between atoms: C_15  and  C_16
REMARK   10  A    between atoms: C_16  and  C_17
REMARK   11  A    between atoms: C_20  and  O_21
REMARK   12  A    between atoms: C_24  and  N_25
REMARK                            x       y       z     vdW  Elec       q    Type
REMARK                         _______ _______ _______ _____ _____    ______ ____
ROOT
ATOM      1  C   UNL     1       1.990   2.958  18.338  0.00  0.00    +0.000 C 
ATOM      2  O   UNL     1       0.767   2.984  18.206  0.00  0.00    +0.000 OA
ENDROOT
BRANCH   1   4
ATOM      3  C   UNL     1       4.086   3.820  17.410  0.00  0.00    +0.000 C 
ATOM      4  C   UNL     1       2.895   3.251  17.183  0.00  0.00    +0.000 C 
BRANCH   3   8
ATOM      5  C   UNL     1       6.760   4.655  14.092  0.00  0.00    +0.000 A 
ATOM      6  C   UNL     1       5.461   4.134  13.931  0.00  0.00    +0.000 A 
ATOM      7  C   UNL     1       4.612   3.863  15.016  0.00  0.00    +0.000 A 
ATOM      8  C   UNL     1       5.020   4.123  16.324  0.00  0.00    +0.000 A 
ATOM      9  C   UNL     1       6.294   4.674  16.494  0.00  0.00    +0.000 A 
ATOM     10  C   UNL     1       7.156   4.920  15.410  0.00  0.00    +0.000 A 
BRANCH   5  12
ATOM     11  C   UNL     1       8.633   5.909  13.051  0.00  0.00    +0.000 C 
ATOM     12  N   UNL     1       7.598   4.881  13.007  0.00  0.00    +0.000 N 
ATOM     13  C   UNL     1       7.299   4.287  11.707  0.00  0.00    +0.000 C 
ENDBRANCH   5  12
BRANCH   9  14
ATOM     14  N   UNL     1       6.768   5.059  17.811  0.00  0.00    +0.000 N 
ATOM     15  O   UNL     1       6.414   6.162  18.248  0.00  0.00    +0.000 OA
ATOM     16  O   UNL     1       7.466   4.234  18.418  0.00  0.00    +0.000 OA
ENDBRANCH   9  14
ENDBRANCH   3   8
ENDBRANCH   1   4
BRANCH   1  17
ATOM     17  C   UNL     1       2.626   2.739  19.685  0.00  0.00    +0.000 C 
BRANCH  17  18
ATOM     18  C   UNL     1       1.851   3.308  20.847  0.00  0.00    +0.000 C 
ATOM     19  O   UNL     1       1.600   2.643  21.854  0.00  0.00    +0.000 OA
BRANCH  18  20
ATOM     20  C   UNL     1       1.403   4.751  20.743  0.00  0.00    +0.000 C 
BRANCH  20  21
ATOM     21  C   UNL     1       2.592   5.700  20.617  0.00  0.00    +0.000 C 
BRANCH  21  22
ATOM     22  C   UNL     1       2.295   6.914  19.772  0.00  0.00    +0.000 A 
ATOM     23  C   UNL     1       1.571   7.992  20.305  0.00  0.00    +0.000 A 
ATOM     24  C   UNL     1       1.328   9.134  19.537  0.00  0.00    +0.000 A 
ATOM     25  C   UNL     1       1.808   9.198  18.234  0.00  0.00    +0.000 A 
ATOM     26  C   UNL     1       2.522   8.141  17.689  0.00  0.00    +0.000 A 
ATOM     27  C   UNL     1       2.769   7.001  18.456  0.00  0.00    +0.000 A 
BRANCH  25  28
ATOM     28  O   UNL     1       1.603  10.296  17.453  0.00  0.00    +0.000 OA
ATOM     29  H   UNL     1       2.186  10.241  16.679  0.00  0.00    +0.000 HD
ENDBRANCH  25  28
ENDBRANCH  21  22
ENDBRANCH  20  21
ENDBRANCH  18  20
ENDBRANCH  17  18
ENDBRANCH   1  17
TORSDOF 10
ENDMDL
MODEL 7
REMARK VINA RESULT:      -7.3      3.442      7.129
REMARK  Name = 
REMARK  12 active torsions:
REMARK  status: ('A' for Active; 'I' for Inactive)
REMARK    1  A    between atoms: C_1  and  N_2
REMARK    2  A    between atoms: N_2  and  C_3
REMARK    3  A    between atoms: N_2  and  C_4
REMARK    4  A    between atoms: C_7  and  C_8
REMARK    5  A    between atoms: C_9  and  C_10
REMARK    6  A    between atoms: C_10  and  C_12
REMARK    7  A    between atoms: C_12  and  C_13
REMARK    8  A    between atoms: C_13  and  C_15
REMARK    9  A    between atoms: C_15  and  C_16
REMARK   10  A    between atoms: C_16  and  C_17
REMARK   11  A    between atoms: C_20  and  O_21
REMARK   12  A    between atoms: C_24  and  N_25
REMARK                            x       y       z     vdW  Elec       q    Type
REMARK                         _______ _______ _______ _____ _____    ______ ____
ROOT
ATOM      1  C   UNL     1       2.475   4.580  20.573  0.00  0.00    +0.000 C 
ATOM      2  O   UNL     1       1.822   4.238  21.558  0.00  0.00    +0.000 OA
ENDROOT
BRANCH   1   4
ATOM      3  C   UNL     1       1.576   6.858  20.630  0.00  0.00    +0.000 C 
ATOM      4  C   UNL     1       2.352   5.961  20.009  0.00  0.00    +0.000 C 
BRANCH   3   8
ATOM      5  C   UNL     1       1.198  10.878  19.033  0.00  0.00    +0.000 A 
ATOM      6  C   UNL     1       1.732   9.799  18.303  0.00  0.00    +0.000 A 
ATOM      7  C   UNL     1       1.853   8.507  18.838  0.00  0.00    +0.000 A 
ATOM      8  C   UNL     1       1.422   8.227  20.134  0.00  0.00    +0.000 A 
ATOM      9  C   UNL     1       0.857   9.282  20.857  0.00  0.00    +0.000 A 
ATOM     10  C   UNL     1       0.761  10.584  20.332  0.00  0.00    +0.000 A 
BRANCH   5  12
ATOM     11  C   UNL     1       2.324  12.918  18.177  0.00  0.00    +0.000 C 
ATOM     12  N   UNL     1       1.121  12.159  18.499  0.00  0.00    +0.000 N 
ATOM     13  C   UNL     1      -0.148  12.880  18.493  0.00  0.00    +0.000 C 
ENDBRANCH   5  12
BRANCH   9  14
ATOM     14  N   UNL     1       0.302   9.064  22.180  0.00  0.00    +0.000 N 
ATOM     15  O   UNL     1      -0.749   8.413  22.260  0.00  0.00    +0.000 OA
ATOM     16  O   UNL     1       0.943   9.516  23.138  0.00  0.00    +0.000 OA
ENDBRANCH   9  14
ENDBRANCH   3   8
ENDBRANCH   1   4
BRANCH   1  17
ATOM     17  C   UNL     1       3.503   3.666  19.961  0.00  0.00    +0.000 C 
BRANCH  17  18
ATOM     18  C   UNL     1       2.939   2.599  19.058  0.00  0.00    +0.000 C 
ATOM     19  O   UNL     1       1.981   1.899  19.391  0.00  0.00    +0.000 OA
BRANCH  18  20
ATOM     20  C   UNL     1       3.585   2.428  17.699  0.00  0.00    +0.000 C 
BRANCH  20  21
ATOM     21  C   UNL     1       3.384   3.661  16.823  0.00  0.00    +0.000 C 
BRANCH  21  22
ATOM     22  C   UNL     1       4.565   4.600  16.839  0.00  0.00    +0.000 A 
ATOM     23  C   UNL     1       5.847   4.136  16.505  0.00  0.00    +0.000 A 
ATOM     24  C   UNL     1       6.936   5.011  16.481  0.00  0.00    +0.000 A 
ATOM     25  C   UNL     1       6.744   6.352  16.793  0.00  0.00    +0.000 A 
ATOM     26  C   UNL     1       5.484   6.828  17.130  0.00  0.00    +0.000 A 
ATOM     27  C   UNL     1       4.395   5.956  17.150  0.00  0.00    +0.000 A 
BRANCH  25  28
ATOM     28  O   UNL     1       7.775   7.243  16.773  0.00  0.00    +0.000 OA
ATOM     29  H   UNL     1       8.580   6.779  16.489  0.00  0.00    +0.000 HD
ENDBRANCH  25  28
ENDBRANCH  21  22
ENDBRANCH  20  21
ENDBRANCH  18  20
ENDBRANCH  17  18
ENDBRANCH   1  17
TORSDOF 10
ENDMDL
MODEL 8
REMARK VINA RESULT:      -7.2      2.677      6.827
REMARK  Name = 
REMARK  12 active torsions:
REMARK  status: ('A' for Active; 'I' for Inactive)
REMARK    1  A    between atoms: C_1  and  N_2
REMARK    2  A    between atoms: N_2  and  C_3
REMARK    3  A    between atoms: N_2  and  C_4
REMARK    4  A    between atoms: C_7  and  C_8
REMARK    5  A    between atoms: C_9  and  C_10
REMARK    6  A    between atoms: C_10  and  C_12
REMARK    7  A    between atoms: C_12  and  C_13
REMARK    8  A    between atoms: C_13  and  C_15
REMARK    9  A    between atoms: C_15  and  C_16
REMARK   10  A    between atoms: C_16  and  C_17
REMARK   11  A    between atoms: C_20  and  O_21
REMARK   12  A    between atoms: C_24  and  N_25
REMARK                            x       y       z     vdW  Elec       q    Type
REMARK                         _______ _______ _______ _____ _____    ______ ____
ROOT
ATOM      1  C   UNL     1       1.847   3.345  20.990  0.00  0.00    +0.000 C 
ATOM      2  O   UNL     1       2.473   3.068  22.012  0.00  0.00    +0.000 OA
ENDROOT
BRANCH   1   4
ATOM      3  C   UNL     1       2.224   5.724  20.544  0.00  0.00    +0.000 C 
ATOM      4  C   UNL     1       1.346   4.734  20.747  0.00  0.00    +0.000 C 
BRANCH   3   8
ATOM      5  C   UNL     1       0.887   9.809  19.930  0.00  0.00    +0.000 A 
ATOM      6  C   UNL     1       0.718   9.110  21.141  0.00  0.00    +0.000 A 
ATOM      7  C   UNL     1       1.150   7.786  21.320  0.00  0.00    +0.000 A 
ATOM      8  C   UNL     1       1.797   7.101  20.291  0.00  0.00    +0.000 A 
ATOM      9  C   UNL     1       2.002   7.797  19.096  0.00  0.00    +0.000 A 
ATOM     10  C   UNL     1       1.544   9.114  18.906  0.00  0.00    +0.000 A 
BRANCH   5  12
ATOM     11  C   UNL     1      -0.932  11.482  20.170  0.00  0.00    +0.000 C 
ATOM     12  N   UNL     1       0.418  11.106  19.761  0.00  0.00    +0.000 N 
ATOM     13  C   UNL     1       1.156  12.056  18.934  0.00  0.00    +0.000 C 
ENDBRANCH   5  12
BRANCH   9  14
ATOM     14  N   UNL     1       2.743   7.195  18.003  0.00  0.00    +0.000 N 
ATOM     15  O   UNL     1       3.887   7.615  17.786  0.00  0.00    +0.000 OA
ATOM     16  O   UNL     1       2.186   6.275  17.388  0.00  0.00    +0.000 OA
ENDBRANCH   9  14
ENDBRANCH   3   8
ENDBRANCH   1   4
BRANCH   1  17
ATOM     17  C   UNL     1       1.655   2.332  19.893  0.00  0.00    +0.000 C 
BRANCH  17  18
ATOM     18  C   UNL     1       2.856   2.129  19.005  0.00  0.00    +0.000 C 
ATOM     19  O   UNL     1       3.505   1.082  19.013  0.00  0.00    +0.000 OA
BRANCH  18  20
ATOM     20  C   UNL     1       3.232   3.264  18.075  0.00  0.00    +0.000 C 
BRANCH  20  21
ATOM     21  C   UNL     1       4.560   3.901  18.475  0.00  0.00    +0.000 C 
BRANCH  21  22
ATOM     22  C   UNL     1       5.398   4.318  17.291  0.00  0.00    +0.000 A 
ATOM     23  C   UNL     1       6.726   4.735  17.471  0.00  0.00    +0.000 A 
ATOM     24  C   UNL     1       7.517   5.085  16.374  0.00  0.00    +0.000 A 
ATOM     25  C   UNL     1       6.978   5.020  15.093  0.00  0.00    +0.000 A 
ATOM     26  C   UNL     1       5.665   4.614  14.896  0.00  0.00    +0.000 A 
ATOM     27  C   UNL     1       4.877   4.260  15.992  0.00  0.00    +0.000 A 
BRANCH  25  28
ATOM     28  O   UNL     1       7.716   5.341  13.994  0.00  0.00    +0.000 OA
ATOM     29  H   UNL     1       7.403   4.811  13.243  0.00  0.00    +0.000 HD
ENDBRANCH  25  28
ENDBRANCH  21  22
ENDBRANCH  20  21
ENDBRANCH  18  20
ENDBRANCH  17  18
ENDBRANCH   1  17
TORSDOF 10
ENDMDL
MODEL 9
REMARK VINA RESULT:      -7.1      3.825      7.358
REMARK  Name = 
REMARK  12 active torsions:
REMARK  status: ('A' for Active; 'I' for Inactive)
REMARK    1  A    between atoms: C_1  and  N_2
REMARK    2  A    between atoms: N_2  and  C_3
REMARK    3  A    between atoms: N_2  and  C_4
REMARK    4  A    between atoms: C_7  and  C_8
REMARK    5  A    between atoms: C_9  and  C_10
REMARK    6  A    between atoms: C_10  and  C_12
REMARK    7  A    between atoms: C_12  and  C_13
REMARK    8  A    between atoms: C_13  and  C_15
REMARK    9  A    between atoms: C_15  and  C_16
REMARK   10  A    between atoms: C_16  and  C_17
REMARK   11  A    between atoms: C_20  and  O_21
REMARK   12  A    between atoms: C_24  and  N_25
REMARK                            x       y       z     vdW  Elec       q    Type
REMARK                         _______ _______ _______ _____ _____    ______ ____
ROOT
ATOM      1  C   UNL     1       1.897   4.960  20.599  0.00  0.00    +0.000 C 
ATOM      2  O   UNL     1       2.643   4.596  21.507  0.00  0.00    +0.000 OA
ENDROOT
BRANCH   1   4
ATOM      3  C   UNL     1       1.186   7.293  20.823  0.00  0.00    +0.000 C 
ATOM      4  C   UNL     1       1.885   6.382  20.135  0.00  0.00    +0.000 C 
BRANCH   3   8
ATOM      5  C   UNL     1       1.104  11.429  19.505  0.00  0.00    +0.000 A 
ATOM      6  C   UNL     1       1.344  10.343  18.641  0.00  0.00    +0.000 A 
ATOM      7  C   UNL     1       1.374   9.012  19.086  0.00  0.00    +0.000 A 
ATOM      8  C   UNL     1       1.143   8.701  20.426  0.00  0.00    +0.000 A 
ATOM      9  C   UNL     1       0.869   9.768  21.287  0.00  0.00    +0.000 A 
ATOM     10  C   UNL     1       0.866  11.105  20.848  0.00  0.00    +0.000 A 
BRANCH   5  12
ATOM     11  C   UNL     1       2.088  13.708  19.554  0.00  0.00    +0.000 C 
ATOM     12  N   UNL     1       1.116  12.743  19.052  0.00  0.00    +0.000 N 
ATOM     13  C   UNL     1       0.000  13.262  18.267  0.00  0.00    +0.000 C 
ENDBRANCH   5  12
BRANCH   9  14
ATOM     14  N   UNL     1       0.530   9.533  22.678  0.00  0.00    +0.000 N 
ATOM     15  O   UNL     1      -0.664   9.362  22.957  0.00  0.00    +0.000 OA
ATOM     16  O   UNL     1       1.471   9.485  23.483  0.00  0.00    +0.000 OA
ENDBRANCH   9  14
ENDBRANCH   3   8
ENDBRANCH   1   4
BRANCH   1  17
ATOM     17  C   UNL     1       1.047   3.973  19.844  0.00  0.00    +0.000 C 
BRANCH  17  18
ATOM     18  C   UNL     1       1.819   3.003  18.986  0.00  0.00    +0.000 C 
ATOM     19  O   UNL     1       1.811   1.790  19.200  0.00  0.00    +0.000 OA
BRANCH  18  20
ATOM     20  C   UNL     1       2.598   3.577  17.821  0.00  0.00    +0.000 C 
BRANCH  20  21
ATOM     21  C   UNL     1       4.091   3.287  17.947  0.00  0.00    +0.000 C 
BRANCH  21  22
ATOM     22  C   UNL     1       4.955   4.492  17.666  0.00  0.00    +0.000 A 
ATOM     23  C   UNL     1       4.465   5.554  16.891  0.00  0.00    +0.000 A 
ATOM     24  C   UNL     1       5.248   6.688  16.661  0.00  0.00    +0.000 A 
ATOM     25  C   UNL     1       6.525   6.760  17.207  0.00  0.00    +0.000 A 
ATOM     26  C   UNL     1       7.028   5.718  17.974  0.00  0.00    +0.000 A 
ATOM     27  C   UNL     1       6.245   4.587  18.207  0.00  0.00    +0.000 A 
BRANCH  25  28
ATOM     28  O   UNL     1       7.320   7.851  17.018  0.00  0.00    +0.000 OA
ATOM     29  H   UNL     1       8.223   7.549  16.830  0.00  0.00    +0.000 HD
ENDBRANCH  25  28
ENDBRANCH  21  22
ENDBRANCH  20  21
ENDBRANCH  18  20
ENDBRANCH  17  18
ENDBRANCH   1  17
TORSDOF 10
ENDMDL
