MODEL 1
REMARK VINA RESULT:      -7.3      0.000      0.000
REMARK  Name = 
REMARK  10 active torsions:
REMARK  status: ('A' for Active; 'I' for Inactive)
REMARK    1  A    between atoms: C_1  and  O_2
REMARK    2  A    between atoms: O_2  and  C_3
REMARK    3  A    between atoms: C_8  and  C_9
REMARK    4  A    between atoms: C_9  and  C_10
REMARK    5  A    between atoms: N_12  and  N_13
REMARK    6  A    between atoms: C_14  and  C_16
REMARK    7  A    between atoms: C_16  and  N_17
REMARK    8  A    between atoms: N_17  and  C_18
REMARK    9  A    between atoms: N_17  and  S_19
REMARK   10  A    between atoms: S_19  and  C_22
REMARK                            x       y       z     vdW  Elec       q    Type
REMARK                         _______ _______ _______ _____ _____    ______ ____
ROOT
ATOM      1  N   UNL     1       1.636   6.506  20.929  0.00  0.00    +0.000 N 
ATOM      2  C   UNL     1       2.130   5.983  19.754  0.00  0.00    +0.000 C 
ATOM      3  O   UNL     1       2.705   6.679  18.917  0.00  0.00    +0.000 OA
ATOM      4  H   UNL     1       1.103   5.953  21.602  0.00  0.00    +0.000 HD
ENDROOT
BRANCH   1   7
ATOM      5  C   UNL     1       0.559   8.553  21.559  0.00  0.00    +0.000 C 
ATOM      6  O   UNL     1      -0.533   7.996  21.676  0.00  0.00    +0.000 OA
ATOM      7  N   UNL     1       1.687   7.894  21.113  0.00  0.00    +0.000 N 
ATOM      8  H   UNL     1       2.614   8.318  21.157  0.00  0.00    +0.000 HD
BRANCH   5   9
ATOM      9  C   UNL     1       0.779  10.024  21.869  0.00  0.00    +0.000 C 
BRANCH   9  15
ATOM     10  C   UNL     1       0.255  11.172  19.639  0.00  0.00    +0.000 A 
ATOM     11  C   UNL     1      -0.529  12.071  18.904  0.00  0.00    +0.000 A 
ATOM     12  C   UNL     1      -1.623  12.710  19.490  0.00  0.00    +0.000 A 
ATOM     13  C   UNL     1      -1.941  12.460  20.817  0.00  0.00    +0.000 A 
ATOM     14  C   UNL     1      -1.156  11.588  21.567  0.00  0.00    +0.000 A 
ATOM     15  C   UNL     1      -0.049  10.936  20.993  0.00  0.00    +0.000 A 
BRANCH  10  17
ATOM     16  C   UNL     1       1.041   9.624  18.023  0.00  0.00    +0.000 C 
ATOM     17  O   UNL     1       1.333  10.501  19.115  0.00  0.00    +0.000 OA
ENDBRANCH  10  17
ENDBRANCH   9  15
ENDBRANCH   5   9
ENDBRANCH   1   7
BRANCH   2  18
ATOM     18  C   UNL     1       1.976   4.480  19.589  0.00  0.00    +0.000 C 
BRANCH  18  19
ATOM     19  N   UNL     1       2.927   3.650  20.397  0.00  0.00    +0.000 NA
ATOM     20  C   UNL     1       2.208   2.721  21.316  0.00  0.00    +0.000 C 
BRANCH  19  21
ATOM     21  S   UNL     1       4.054   2.778  19.415  0.00  0.00    +0.000 S 
ATOM     22  O   UNL     1       4.930   2.030  20.298  0.00  0.00    +0.000 OA
ATOM     23  O   UNL     1       3.293   2.125  18.375  0.00  0.00    +0.000 OA
BRANCH  21  24
ATOM     24  C   UNL     1       5.042   4.055  18.677  0.00  0.00    +0.000 A 
ATOM     25  C   UNL     1       5.905   4.795  19.489  0.00  0.00    +0.000 A 
ATOM     26  C   UNL     1       6.696   5.795  18.920  0.00  0.00    +0.000 A 
ATOM     27  C   UNL     1       6.623   6.039  17.548  0.00  0.00    +0.000 A 
ATOM     28 CL   UNL     1       7.590   7.281  16.851  0.00  0.00    +0.000 Cl
ATOM     29  C   UNL     1       5.775   5.284  16.735  0.00  0.00    +0.000 A 
ATOM     30  C   UNL     1       4.980   4.284  17.300  0.00  0.00    +0.000 A 
ENDBRANCH  21  24
ENDBRANCH  19  21
ENDBRANCH  18  19
ENDBRANCH   2  18
TORSDOF 8
ENDMDL
MODEL 2
REMARK VINA RESULT:      -7.3      3.428      8.414
REMARK  Name = 
REMARK  10 active torsions:
REMARK  status: ('A' for Active; 'I' for Inactive)
REMARK    1  A    between atoms: C_1  and  O_2
REMARK    2  A    between atoms: O_2  and  C_3
REMARK    3  A    between atoms: C_8  and  C_9
REMARK    4  A    between atoms: C_9  and  C_10
REMARK    5  A    between atoms: N_12  and  N_13
REMARK    6  A    between atoms: C_14  and  C_16
REMARK    7  A    between atoms: C_16  and  N_17
REMARK    8  A    between atoms: N_17  and  C_18
REMARK    9  A    between atoms: N_17  and  S_19
REMARK   10  A    between atoms: S_19  and  C_22
REMARK                            x       y       z     vdW  Elec       q    Type
REMARK                         _______ _______ _______ _____ _____    ______ ____
ROOT
ATOM      1  N   UNL     1       1.891   8.285  21.112  0.00  0.00    +0.000 N 
ATOM      2  C   UNL     1       0.588   8.449  21.531  0.00  0.00    +0.000 C 
ATOM      3  O   UNL     1      -0.302   7.651  21.233  0.00  0.00    +0.000 OA
ATOM      4  H   UNL     1       2.624   8.970  21.299  0.00  0.00    +0.000 HD
ENDROOT
BRANCH   1   7
ATOM      5  C   UNL     1       2.386   7.542  18.887  0.00  0.00    +0.000 C 
ATOM      6  O   UNL     1       2.201   8.667  18.421  0.00  0.00    +0.000 OA
ATOM      7  N   UNL     1       2.176   7.244  20.219  0.00  0.00    +0.000 N 
ATOM      8  H   UNL     1       2.468   6.355  20.627  0.00  0.00    +0.000 HD
BRANCH   5   9
ATOM      9  C   UNL     1       2.840   6.359  18.049  0.00  0.00    +0.000 C 
BRANCH   9  15
ATOM     10  C   UNL     1       4.957   5.289  19.017  0.00  0.00    +0.000 A 
ATOM     11  C   UNL     1       6.354   5.187  19.031  0.00  0.00    +0.000 A 
ATOM     12  C   UNL     1       7.133   5.904  18.122  0.00  0.00    +0.000 A 
ATOM     13  C   UNL     1       6.523   6.735  17.192  0.00  0.00    +0.000 A 
ATOM     14  C   UNL     1       5.136   6.865  17.183  0.00  0.00    +0.000 A 
ATOM     15  C   UNL     1       4.336   6.151  18.093  0.00  0.00    +0.000 A 
BRANCH  10  17
ATOM     16  C   UNL     1       4.036   3.191  19.630  0.00  0.00    +0.000 C 
ATOM     17  O   UNL     1       4.137   4.597  19.874  0.00  0.00    +0.000 OA
ENDBRANCH  10  17
ENDBRANCH   9  15
ENDBRANCH   5   9
ENDBRANCH   1   7
BRANCH   2  18
ATOM     18  C   UNL     1       0.337   9.640  22.440  0.00  0.00    +0.000 C 
BRANCH  18  19
ATOM     19  N   UNL     1      -0.760  10.560  21.995  0.00  0.00    +0.000 NA
ATOM     20  C   UNL     1      -1.411  11.244  23.149  0.00  0.00    +0.000 C 
BRANCH  19  21
ATOM     21  S   UNL     1      -0.226  11.721  20.827  0.00  0.00    +0.000 S 
ATOM     22  O   UNL     1      -0.687  13.029  21.255  0.00  0.00    +0.000 OA
ATOM     23  O   UNL     1       1.170  11.457  20.574  0.00  0.00    +0.000 OA
BRANCH  21  24
ATOM     24  C   UNL     1      -1.154  11.305  19.371  0.00  0.00    +0.000 A 
ATOM     25  C   UNL     1      -0.681  10.291  18.535  0.00  0.00    +0.000 A 
ATOM     26  C   UNL     1      -1.406   9.947  17.393  0.00  0.00    +0.000 A 
ATOM     27  C   UNL     1      -2.600  10.610  17.105  0.00  0.00    +0.000 A 
ATOM     28 CL   UNL     1      -3.486  10.192  15.690  0.00  0.00    +0.000 Cl
ATOM     29  C   UNL     1      -3.083  11.608  17.954  0.00  0.00    +0.000 A 
ATOM     30  C   UNL     1      -2.359  11.958  19.096  0.00  0.00    +0.000 A 
ENDBRANCH  21  24
ENDBRANCH  19  21
ENDBRANCH  18  19
ENDBRANCH   2  18
TORSDOF 8
ENDMDL
MODEL 3
REMARK VINA RESULT:      -7.3      0.788      1.381
REMARK  Name = 
REMARK  10 active torsions:
REMARK  status: ('A' for Active; 'I' for Inactive)
REMARK    1  A    between atoms: C_1  and  O_2
REMARK    2  A    between atoms: O_2  and  C_3
REMARK    3  A    between atoms: C_8  and  C_9
REMARK    4  A    between atoms: C_9  and  C_10
REMARK    5  A    between atoms: N_12  and  N_13
REMARK    6  A    between atoms: C_14  and  C_16
REMARK    7  A    between atoms: C_16  and  N_17
REMARK    8  A    between atoms: N_17  and  C_18
REMARK    9  A    between atoms: N_17  and  S_19
REMARK   10  A    between atoms: S_19  and  C_22
REMARK                            x       y       z     vdW  Elec       q    Type
REMARK                         _______ _______ _______ _____ _____    ______ ____
ROOT
ATOM      1  N   UNL     1       1.803   6.466  20.758  0.00  0.00    +0.000 N 
ATOM      2  C   UNL     1       2.219   6.215  19.469  0.00  0.00    +0.000 C 
ATOM      3  O   UNL     1       2.729   7.086  18.762  0.00  0.00    +0.000 OA
ATOM      4  H   UNL     1       1.323   5.769  21.331  0.00  0.00    +0.000 HD
ENDROOT
BRANCH   1   7
ATOM      5  C   UNL     1       0.688   8.382  21.667  0.00  0.00    +0.000 C 
ATOM      6  O   UNL     1      -0.419   7.857  21.539  0.00  0.00    +0.000 OA
ATOM      7  N   UNL     1       1.852   7.784  21.229  0.00  0.00    +0.000 N 
ATOM      8  H   UNL     1       2.773   8.154  21.466  0.00  0.00    +0.000 HD
BRANCH   5   9
ATOM      9  C   UNL     1       0.890   9.750  22.297  0.00  0.00    +0.000 C 
BRANCH   9  15
ATOM     10  C   UNL     1      -0.503  11.313  20.820  0.00  0.00    +0.000 A 
ATOM     11  C   UNL     1      -1.576  12.205  20.689  0.00  0.00    +0.000 A 
ATOM     12  C   UNL     1      -2.436  12.450  21.761  0.00  0.00    +0.000 A 
ATOM     13  C   UNL     1      -2.230  11.811  22.975  0.00  0.00    +0.000 A 
ATOM     14  C   UNL     1      -1.153  10.940  23.127  0.00  0.00    +0.000 A 
ATOM     15  C   UNL     1      -0.275  10.682  22.058  0.00  0.00    +0.000 A 
BRANCH  10  17
ATOM     16  C   UNL     1      -0.206  10.343  18.677  0.00  0.00    +0.000 C 
ATOM     17  O   UNL     1       0.367  11.018  19.800  0.00  0.00    +0.000 OA
ENDBRANCH  10  17
ENDBRANCH   9  15
ENDBRANCH   5   9
ENDBRANCH   1   7
BRANCH   2  18
ATOM     18  C   UNL     1       2.070   4.778  18.999  0.00  0.00    +0.000 C 
BRANCH  18  19
ATOM     19  N   UNL     1       2.783   3.757  19.834  0.00  0.00    +0.000 NA
ATOM     20  C   UNL     1       1.841   2.753  20.406  0.00  0.00    +0.000 C 
BRANCH  19  21
ATOM     21  S   UNL     1       4.063   2.967  18.977  0.00  0.00    +0.000 S 
ATOM     22  O   UNL     1       4.810   2.168  19.930  0.00  0.00    +0.000 OA
ATOM     23  O   UNL     1       3.481   2.382  17.792  0.00  0.00    +0.000 OA
BRANCH  21  24
ATOM     24  C   UNL     1       5.125   4.303  18.487  0.00  0.00    +0.000 A 
ATOM     25  C   UNL     1       4.972   4.855  17.213  0.00  0.00    +0.000 A 
ATOM     26  C   UNL     1       5.793   5.913  16.818  0.00  0.00    +0.000 A 
ATOM     27  C   UNL     1       6.749   6.415  17.703  0.00  0.00    +0.000 A 
ATOM     28 CL   UNL     1       7.768   7.711  17.210  0.00  0.00    +0.000 Cl
ATOM     29  C   UNL     1       6.885   5.876  18.984  0.00  0.00    +0.000 A 
ATOM     30  C   UNL     1       6.068   4.815  19.382  0.00  0.00    +0.000 A 
ENDBRANCH  21  24
ENDBRANCH  19  21
ENDBRANCH  18  19
ENDBRANCH   2  18
TORSDOF 8
ENDMDL
MODEL 4
REMARK VINA RESULT:      -7.2      0.996      1.757
REMARK  Name = 
REMARK  10 active torsions:
REMARK  status: ('A' for Active; 'I' for Inactive)
REMARK    1  A    between atoms: C_1  and  O_2
REMARK    2  A    between atoms: O_2  and  C_3
REMARK    3  A    between atoms: C_8  and  C_9
REMARK    4  A    between atoms: C_9  and  C_10
REMARK    5  A    between atoms: N_12  and  N_13
REMARK    6  A    between atoms: C_14  and  C_16
REMARK    7  A    between atoms: C_16  and  N_17
REMARK    8  A    between atoms: N_17  and  C_18
REMARK    9  A    between atoms: N_17  and  S_19
REMARK   10  A    between atoms: S_19  and  C_22
REMARK                            x       y       z     vdW  Elec       q    Type
REMARK                         _______ _______ _______ _____ _____    ______ ____
ROOT
ATOM      1  N   UNL     1       1.883   6.409  20.793  0.00  0.00    +0.000 N 
ATOM      2  C   UNL     1       2.067   5.810  19.566  0.00  0.00    +0.000 C 
ATOM      3  O   UNL     1       2.353   6.455  18.557  0.00  0.00    +0.000 OA
ATOM      4  H   UNL     1       1.584   5.894  21.622  0.00  0.00    +0.000 HD
ENDROOT
BRANCH   1   7
ATOM      5  C   UNL     1       0.785   8.473  21.321  0.00  0.00    +0.000 C 
ATOM      6  O   UNL     1      -0.281   7.900  21.551  0.00  0.00    +0.000 OA
ATOM      7  N   UNL     1       1.902   7.808  20.860  0.00  0.00    +0.000 N 
ATOM      8  H   UNL     1       2.818   8.258  20.810  0.00  0.00    +0.000 HD
BRANCH   5   9
ATOM      9  C   UNL     1       0.978   9.970  21.496  0.00  0.00    +0.000 C 
BRANCH   9  15
ATOM     10  C   UNL     1      -0.728  11.867  21.262  0.00  0.00    +0.000 A 
ATOM     11  C   UNL     1      -1.676  12.543  20.483  0.00  0.00    +0.000 A 
ATOM     12  C   UNL     1      -1.902  12.175  19.155  0.00  0.00    +0.000 A 
ATOM     13  C   UNL     1      -1.188  11.126  18.595  0.00  0.00    +0.000 A 
ATOM     14  C   UNL     1      -0.260  10.429  19.366  0.00  0.00    +0.000 A 
ATOM     15  C   UNL     1      -0.020  10.785  20.706  0.00  0.00    +0.000 A 
BRANCH  10  17
ATOM     16  C   UNL     1      -1.234  13.251  23.121  0.00  0.00    +0.000 C 
ATOM     17  O   UNL     1      -0.449  12.191  22.567  0.00  0.00    +0.000 OA
ENDBRANCH  10  17
ENDBRANCH   9  15
ENDBRANCH   5   9
ENDBRANCH   1   7
BRANCH   2  18
ATOM     18  C   UNL     1       1.959   4.294  19.554  0.00  0.00    +0.000 C 
BRANCH  18  19
ATOM     19  N   UNL     1       2.984   3.576  20.378  0.00  0.00    +0.000 NA
ATOM     20  C   UNL     1       2.355   2.638  21.352  0.00  0.00    +0.000 C 
BRANCH  19  21
ATOM     21  S   UNL     1       4.158   2.747  19.412  0.00  0.00    +0.000 S 
ATOM     22  O   UNL     1       5.037   2.018  20.308  0.00  0.00    +0.000 OA
ATOM     23  O   UNL     1       3.440   2.082  18.351  0.00  0.00    +0.000 OA
BRANCH  21  24
ATOM     24  C   UNL     1       5.123   4.061  18.708  0.00  0.00    +0.000 A 
ATOM     25  C   UNL     1       6.029   4.744  19.522  0.00  0.00    +0.000 A 
ATOM     26  C   UNL     1       6.801   5.773  18.978  0.00  0.00    +0.000 A 
ATOM     27  C   UNL     1       6.669   6.099  17.627  0.00  0.00    +0.000 A 
ATOM     28 CL   UNL     1       7.613   7.375  16.963  0.00  0.00    +0.000 Cl
ATOM     29  C   UNL     1       5.778   5.399  16.811  0.00  0.00    +0.000 A 
ATOM     30  C   UNL     1       5.001   4.372  17.351  0.00  0.00    +0.000 A 
ENDBRANCH  21  24
ENDBRANCH  19  21
ENDBRANCH  18  19
ENDBRANCH   2  18
TORSDOF 8
ENDMDL
MODEL 5
REMARK VINA RESULT:      -7.0      5.709      8.023
REMARK  Name = 
REMARK  10 active torsions:
REMARK  status: ('A' for Active; 'I' for Inactive)
REMARK    1  A    between atoms: C_1  and  O_2
REMARK    2  A    between atoms: O_2  and  C_3
REMARK    3  A    between atoms: C_8  and  C_9
REMARK    4  A    between atoms: C_9  and  C_10
REMARK    5  A    between atoms: N_12  and  N_13
REMARK    6  A    between atoms: C_14  and  C_16
REMARK    7  A    between atoms: C_16  and  N_17
REMARK    8  A    between atoms: N_17  and  C_18
REMARK    9  A    between atoms: N_17  and  S_19
REMARK   10  A    between atoms: S_19  and  C_22
REMARK                            x       y       z     vdW  Elec       q    Type
REMARK                         _______ _______ _______ _____ _____    ______ ____
ROOT
ATOM      1  N   UNL     1       8.035   7.532  18.009  0.00  0.00    +0.000 N 
ATOM      2  C   UNL     1       7.753   6.237  18.388  0.00  0.00    +0.000 C 
ATOM      3  O   UNL     1       8.013   5.812  19.514  0.00  0.00    +0.000 OA
ATOM      4  H   UNL     1       7.882   7.878  17.061  0.00  0.00    +0.000 HD
ENDROOT
BRANCH   1   7
ATOM      5  C   UNL     1       8.744   9.712  18.709  0.00  0.00    +0.000 C 
ATOM      6  O   UNL     1       8.249  10.243  17.713  0.00  0.00    +0.000 OA
ATOM      7  N   UNL     1       8.749   8.345  18.899  0.00  0.00    +0.000 N 
ATOM      8  H   UNL     1       9.027   7.923  19.785  0.00  0.00    +0.000 HD
BRANCH   5   9
ATOM      9  C   UNL     1       9.420  10.498  19.820  0.00  0.00    +0.000 C 
BRANCH   9  15
ATOM     10  C   UNL     1      10.220  12.929  19.936  0.00  0.00    +0.000 A 
ATOM     11  C   UNL     1      10.946  13.985  19.369  0.00  0.00    +0.000 A 
ATOM     12  C   UNL     1      11.689  13.796  18.202  0.00  0.00    +0.000 A 
ATOM     13  C   UNL     1      11.712  12.551  17.590  0.00  0.00    +0.000 A 
ATOM     14  C   UNL     1      10.975  11.499  18.129  0.00  0.00    +0.000 A 
ATOM     15  C   UNL     1      10.219  11.672  19.303  0.00  0.00    +0.000 A 
BRANCH  10  17
ATOM     16  C   UNL     1       9.621  14.291  21.783  0.00  0.00    +0.000 C 
ATOM     17  O   UNL     1       9.483  13.048  21.089  0.00  0.00    +0.000 OA
ENDBRANCH  10  17
ENDBRANCH   9  15
ENDBRANCH   5   9
ENDBRANCH   1   7
BRANCH   2  18
ATOM     18  C   UNL     1       7.042   5.390  17.347  0.00  0.00    +0.000 C 
BRANCH  18  19
ATOM     19  N   UNL     1       5.596   5.723  17.134  0.00  0.00    +0.000 NA
ATOM     20  C   UNL     1       5.263   5.849  15.686  0.00  0.00    +0.000 C 
BRANCH  19  21
ATOM     21  S   UNL     1       4.530   4.596  17.904  0.00  0.00    +0.000 S 
ATOM     22  O   UNL     1       3.745   3.948  16.870  0.00  0.00    +0.000 OA
ATOM     23  O   UNL     1       5.322   3.834  18.840  0.00  0.00    +0.000 OA
BRANCH  21  24
ATOM     24  C   UNL     1       3.415   5.633  18.817  0.00  0.00    +0.000 A 
ATOM     25  C   UNL     1       2.869   5.152  20.010  0.00  0.00    +0.000 A 
ATOM     26  C   UNL     1       2.000   5.961  20.744  0.00  0.00    +0.000 A 
ATOM     27  C   UNL     1       1.694   7.244  20.285  0.00  0.00    +0.000 A 
ATOM     28 CL   UNL     1       0.612   8.234  21.185  0.00  0.00    +0.000 Cl
ATOM     29  C   UNL     1       2.258   7.730  19.104  0.00  0.00    +0.000 A 
ATOM     30  C   UNL     1       3.126   6.923  18.365  0.00  0.00    +0.000 A 
ENDBRANCH  21  24
ENDBRANCH  19  21
ENDBRANCH  18  19
ENDBRANCH   2  18
TORSDOF 8
ENDMDL
MODEL 6
REMARK VINA RESULT:      -7.0      1.789      2.343
REMARK  Name = 
REMARK  10 active torsions:
REMARK  status: ('A' for Active; 'I' for Inactive)
REMARK    1  A    between atoms: C_1  and  O_2
REMARK    2  A    between atoms: O_2  and  C_3
REMARK    3  A    between atoms: C_8  and  C_9
REMARK    4  A    between atoms: C_9  and  C_10
REMARK    5  A    between atoms: N_12  and  N_13
REMARK    6  A    between atoms: C_14  and  C_16
REMARK    7  A    between atoms: C_16  and  N_17
REMARK    8  A    between atoms: N_17  and  C_18
REMARK    9  A    between atoms: N_17  and  S_19
REMARK   10  A    between atoms: S_19  and  C_22
REMARK                            x       y       z     vdW  Elec       q    Type
REMARK                         _______ _______ _______ _____ _____    ______ ____
ROOT
ATOM      1  N   UNL     1       2.189   5.683  18.891  0.00  0.00    +0.000 N 
ATOM      2  C   UNL     1       1.590   4.552  18.379  0.00  0.00    +0.000 C 
ATOM      3  O   UNL     1       1.090   4.527  17.254  0.00  0.00    +0.000 OA
ATOM      4  H   UNL     1       2.551   5.734  19.845  0.00  0.00    +0.000 HD
ENDROOT
BRANCH   1   7
ATOM      5  C   UNL     1       2.023   8.073  18.821  0.00  0.00    +0.000 C 
ATOM      6  O   UNL     1       1.869   8.144  20.041  0.00  0.00    +0.000 OA
ATOM      7  N   UNL     1       2.113   6.870  18.151  0.00  0.00    +0.000 N 
ATOM      8  H   UNL     1       2.385   6.816  17.168  0.00  0.00    +0.000 HD
BRANCH   5   9
ATOM      9  C   UNL     1       2.104   9.294  17.921  0.00  0.00    +0.000 C 
BRANCH   9  15
ATOM     10  C   UNL     1       1.189  11.631  18.436  0.00  0.00    +0.000 A 
ATOM     11  C   UNL     1       0.091  12.464  18.692  0.00  0.00    +0.000 A 
ATOM     12  C   UNL     1      -1.211  11.964  18.641  0.00  0.00    +0.000 A 
ATOM     13  C   UNL     1      -1.430  10.628  18.338  0.00  0.00    +0.000 A 
ATOM     14  C   UNL     1      -0.346   9.783  18.106  0.00  0.00    +0.000 A 
ATOM     15  C   UNL     1       0.973  10.269  18.155  0.00  0.00    +0.000 A 
BRANCH  10  17
ATOM     16  C   UNL     1       2.672  13.462  18.713  0.00  0.00    +0.000 C 
ATOM     17  O   UNL     1       2.492  12.066  18.455  0.00  0.00    +0.000 OA
ENDBRANCH  10  17
ENDBRANCH   9  15
ENDBRANCH   5   9
ENDBRANCH   1   7
BRANCH   2  18
ATOM     18  C   UNL     1       1.646   3.321  19.267  0.00  0.00    +0.000 C 
BRANCH  18  19
ATOM     19  N   UNL     1       2.847   3.233  20.160  0.00  0.00    +0.000 NA
ATOM     20  C   UNL     1       2.526   2.573  21.458  0.00  0.00    +0.000 C 
BRANCH  19  21
ATOM     21  S   UNL     1       4.191   2.450  19.399  0.00  0.00    +0.000 S 
ATOM     22  O   UNL     1       5.006   1.853  20.440  0.00  0.00    +0.000 OA
ATOM     23  O   UNL     1       3.661   1.663  18.310  0.00  0.00    +0.000 OA
BRANCH  21  24
ATOM     24  C   UNL     1       5.130   3.795  18.723  0.00  0.00    +0.000 A 
ATOM     25  C   UNL     1       5.092   4.020  17.345  0.00  0.00    +0.000 A 
ATOM     26  C   UNL     1       5.818   5.082  16.801  0.00  0.00    +0.000 A 
ATOM     27  C   UNL     1       6.564   5.912  17.639  0.00  0.00    +0.000 A 
ATOM     28 CL   UNL     1       7.468   7.212  16.964  0.00  0.00    +0.000 Cl
ATOM     29  C   UNL     1       6.583   5.699  19.018  0.00  0.00    +0.000 A 
ATOM     30  C   UNL     1       5.861   4.636  19.567  0.00  0.00    +0.000 A 
ENDBRANCH  21  24
ENDBRANCH  19  21
ENDBRANCH  18  19
ENDBRANCH   2  18
TORSDOF 8
ENDMDL
MODEL 7
REMARK VINA RESULT:      -7.0      1.032      1.382
REMARK  Name = 
REMARK  10 active torsions:
REMARK  status: ('A' for Active; 'I' for Inactive)
REMARK    1  A    between atoms: C_1  and  O_2
REMARK    2  A    between atoms: O_2  and  C_3
REMARK    3  A    between atoms: C_8  and  C_9
REMARK    4  A    between atoms: C_9  and  C_10
REMARK    5  A    between atoms: N_12  and  N_13
REMARK    6  A    between atoms: C_14  and  C_16
REMARK    7  A    between atoms: C_16  and  N_17
REMARK    8  A    between atoms: N_17  and  C_18
REMARK    9  A    between atoms: N_17  and  S_19
REMARK   10  A    between atoms: S_19  and  C_22
REMARK                            x       y       z     vdW  Elec       q    Type
REMARK                         _______ _______ _______ _____ _____    ______ ____
ROOT
ATOM      1  N   UNL     1       1.523   6.541  20.901  0.00  0.00    +0.000 N 
ATOM      2  C   UNL     1       1.956   5.969  19.724  0.00  0.00    +0.000 C 
ATOM      3  O   UNL     1       2.462   6.633  18.819  0.00  0.00    +0.000 OA
ATOM      4  H   UNL     1       1.046   6.011  21.632  0.00  0.00    +0.000 HD
ENDROOT
BRANCH   1   7
ATOM      5  C   UNL     1       0.432   8.595  21.479  0.00  0.00    +0.000 C 
ATOM      6  O   UNL     1      -0.641   8.023  21.677  0.00  0.00    +0.000 OA
ATOM      7  N   UNL     1       1.551   7.937  21.012  0.00  0.00    +0.000 N 
ATOM      8  H   UNL     1       2.470   8.381  20.988  0.00  0.00    +0.000 HD
BRANCH   5   9
ATOM      9  C   UNL     1       0.633  10.084  21.703  0.00  0.00    +0.000 C 
BRANCH   9  15
ATOM     10  C   UNL     1       0.498  12.269  20.372  0.00  0.00    +0.000 A 
ATOM     11  C   UNL     1      -0.048  12.997  19.307  0.00  0.00    +0.000 A 
ATOM     12  C   UNL     1      -0.926  12.393  18.405  0.00  0.00    +0.000 A 
ATOM     13  C   UNL     1      -1.269  11.058  18.561  0.00  0.00    +0.000 A 
ATOM     14  C   UNL     1      -0.753  10.329  19.630  0.00  0.00    +0.000 A 
ATOM     15  C   UNL     1       0.132  10.922  20.550  0.00  0.00    +0.000 A 
BRANCH  10  17
ATOM     16  C   UNL     1       2.479  13.526  20.724  0.00  0.00    +0.000 C 
ATOM     17  O   UNL     1       1.379  12.802  21.282  0.00  0.00    +0.000 OA
ENDBRANCH  10  17
ENDBRANCH   9  15
ENDBRANCH   5   9
ENDBRANCH   1   7
BRANCH   2  18
ATOM     18  C   UNL     1       1.828   4.457  19.645  0.00  0.00    +0.000 C 
BRANCH  18  19
ATOM     19  N   UNL     1       2.908   3.688  20.345  0.00  0.00    +0.000 NA
ATOM     20  C   UNL     1       2.353   2.773  21.383  0.00  0.00    +0.000 C 
BRANCH  19  21
ATOM     21  S   UNL     1       3.926   2.815  19.250  0.00  0.00    +0.000 S 
ATOM     22  O   UNL     1       4.754   1.916  20.032  0.00  0.00    +0.000 OA
ATOM     23  O   UNL     1       3.082   2.330  18.183  0.00  0.00    +0.000 OA
BRANCH  21  24
ATOM     24  C   UNL     1       5.005   4.064  18.596  0.00  0.00    +0.000 A 
ATOM     25  C   UNL     1       5.732   4.861  19.484  0.00  0.00    +0.000 A 
ATOM     26  C   UNL     1       6.592   5.840  18.983  0.00  0.00    +0.000 A 
ATOM     27  C   UNL     1       6.726   6.005  17.603  0.00  0.00    +0.000 A 
ATOM     28 CL   UNL     1       7.778   7.220  16.989  0.00  0.00    +0.000 Cl
ATOM     29  C   UNL     1       6.015   5.192  16.718  0.00  0.00    +0.000 A 
ATOM     30  C   UNL     1       5.150   4.214  17.214  0.00  0.00    +0.000 A 
ENDBRANCH  21  24
ENDBRANCH  19  21
ENDBRANCH  18  19
ENDBRANCH   2  18
TORSDOF 8
ENDMDL
MODEL 8
REMARK VINA RESULT:      -7.0      7.129      9.619
REMARK  Name = 
REMARK  10 active torsions:
REMARK  status: ('A' for Active; 'I' for Inactive)
REMARK    1  A    between atoms: C_1  and  O_2
REMARK    2  A    between atoms: O_2  and  C_3
REMARK    3  A    between atoms: C_8  and  C_9
REMARK    4  A    between atoms: C_9  and  C_10
REMARK    5  A    between atoms: N_12  and  N_13
REMARK    6  A    between atoms: C_14  and  C_16
REMARK    7  A    between atoms: C_16  and  N_17
REMARK    8  A    between atoms: N_17  and  C_18
REMARK    9  A    between atoms: N_17  and  S_19
REMARK   10  A    between atoms: S_19  and  C_22
REMARK                            x       y       z     vdW  Elec       q    Type
REMARK                         _______ _______ _______ _____ _____    ______ ____
ROOT
ATOM      1  N   UNL     1       8.088   8.129  18.157  0.00  0.00    +0.000 N 
ATOM      2  C   UNL     1       8.392   9.471  18.218  0.00  0.00    +0.000 C 
ATOM      3  O   UNL     1       7.801  10.309  17.535  0.00  0.00    +0.000 OA
ATOM      4  H   UNL     1       8.612   7.419  18.671  0.00  0.00    +0.000 HD
ENDROOT
BRANCH   1   7
ATOM      5  C   UNL     1       6.974   6.344  17.009  0.00  0.00    +0.000 C 
ATOM      6  O   UNL     1       7.680   5.493  17.551  0.00  0.00    +0.000 OA
ATOM      7  N   UNL     1       7.162   7.698  17.198  0.00  0.00    +0.000 N 
ATOM      8  H   UNL     1       6.490   8.390  16.866  0.00  0.00    +0.000 HD
BRANCH   5   9
ATOM      9  C   UNL     1       5.839   6.000  16.059  0.00  0.00    +0.000 C 
BRANCH   9  15
ATOM     10  C   UNL     1       3.725   6.118  17.503  0.00  0.00    +0.000 A 
ATOM     11  C   UNL     1       2.685   5.457  18.170  0.00  0.00    +0.000 A 
ATOM     12  C   UNL     1       2.549   4.070  18.083  0.00  0.00    +0.000 A 
ATOM     13  C   UNL     1       3.452   3.331  17.333  0.00  0.00    +0.000 A 
ATOM     14  C   UNL     1       4.505   3.973  16.685  0.00  0.00    +0.000 A 
ATOM     15  C   UNL     1       4.658   5.370  16.763  0.00  0.00    +0.000 A 
BRANCH  10  17
ATOM     16  C   UNL     1       2.728   8.248  17.817  0.00  0.00    +0.000 C 
ATOM     17  O   UNL     1       3.902   7.480  17.536  0.00  0.00    +0.000 OA
ENDBRANCH  10  17
ENDBRANCH   9  15
ENDBRANCH   5   9
ENDBRANCH   1   7
BRANCH   2  18
ATOM     18  C   UNL     1       9.457   9.858  19.230  0.00  0.00    +0.000 C 
BRANCH  18  19
ATOM     19  N   UNL     1       9.523  11.319  19.560  0.00  0.00    +0.000 NA
ATOM     20  C   UNL     1       9.279  11.572  21.009  0.00  0.00    +0.000 C 
BRANCH  19  21
ATOM     21  S   UNL     1      11.010  12.051  19.060  0.00  0.00    +0.000 S 
ATOM     22  O   UNL     1      11.981  11.856  20.120  0.00  0.00    +0.000 OA
ATOM     23  O   UNL     1      11.267  11.608  17.710  0.00  0.00    +0.000 OA
BRANCH  21  24
ATOM     24  C   UNL     1      10.632  13.785  19.025  0.00  0.00    +0.000 A 
ATOM     25  C   UNL     1       9.829  14.281  17.996  0.00  0.00    +0.000 A 
ATOM     26  C   UNL     1       9.515  15.640  17.962  0.00  0.00    +0.000 A 
ATOM     27  C   UNL     1       9.996  16.487  18.963  0.00  0.00    +0.000 A 
ATOM     28 CL   UNL     1       9.617  18.165  18.913  0.00  0.00    +0.000 Cl
ATOM     29  C   UNL     1      10.780  15.985  20.003  0.00  0.00    +0.000 A 
ATOM     30  C   UNL     1      11.100  14.626  20.038  0.00  0.00    +0.000 A 
ENDBRANCH  21  24
ENDBRANCH  19  21
ENDBRANCH  18  19
ENDBRANCH   2  18
TORSDOF 8
ENDMDL
MODEL 9
REMARK VINA RESULT:      -7.0      6.601      8.131
REMARK  Name = 
REMARK  10 active torsions:
REMARK  status: ('A' for Active; 'I' for Inactive)
REMARK    1  A    between atoms: C_1  and  O_2
REMARK    2  A    between atoms: O_2  and  C_3
REMARK    3  A    between atoms: C_8  and  C_9
REMARK    4  A    between atoms: C_9  and  C_10
REMARK    5  A    between atoms: N_12  and  N_13
REMARK    6  A    between atoms: C_14  and  C_16
REMARK    7  A    between atoms: C_16  and  N_17
REMARK    8  A    between atoms: N_17  and  C_18
REMARK    9  A    between atoms: N_17  and  S_19
REMARK   10  A    between atoms: S_19  and  C_22
REMARK                            x       y       z     vdW  Elec       q    Type
REMARK                         _______ _______ _______ _____ _____    ______ ____
ROOT
ATOM      1  N   UNL     1       8.437   9.520  18.197  0.00  0.00    +0.000 N 
ATOM      2  C   UNL     1       8.168   8.168  18.168  0.00  0.00    +0.000 C 
ATOM      3  O   UNL     1       8.614   7.393  19.015  0.00  0.00    +0.000 OA
ATOM      4  H   UNL     1       8.125  10.162  17.467  0.00  0.00    +0.000 HD
ENDROOT
BRANCH   1   7
ATOM      5  C   UNL     1      10.234  10.990  18.790  0.00  0.00    +0.000 C 
ATOM      6  O   UNL     1      10.357  11.383  17.629  0.00  0.00    +0.000 OA
ATOM      7  N   UNL     1       9.345   9.998  19.150  0.00  0.00    +0.000 N 
ATOM      8  H   UNL     1       9.144   9.779  20.127  0.00  0.00    +0.000 HD
BRANCH   5   9
ATOM      9  C   UNL     1      11.059  11.535  19.943  0.00  0.00    +0.000 C 
BRANCH   9  15
ATOM     10  C   UNL     1      10.576  14.034  20.240  0.00  0.00    +0.000 A 
ATOM     11  C   UNL     1       9.965  15.063  20.969  0.00  0.00    +0.000 A 
ATOM     12  C   UNL     1       9.154  14.775  22.068  0.00  0.00    +0.000 A 
ATOM     13  C   UNL     1       8.948  13.458  22.451  0.00  0.00    +0.000 A 
ATOM     14  C   UNL     1       9.569  12.426  21.751  0.00  0.00    +0.000 A 
ATOM     15  C   UNL     1      10.392  12.698  20.642  0.00  0.00    +0.000 A 
BRANCH  10  17
ATOM     16  C   UNL     1      10.749  14.948  18.058  0.00  0.00    +0.000 C 
ATOM     17  O   UNL     1      11.372  14.252  19.142  0.00  0.00    +0.000 OA
ENDBRANCH  10  17
ENDBRANCH   9  15
ENDBRANCH   5   9
ENDBRANCH   1   7
BRANCH   2  18
ATOM     18  C   UNL     1       7.232   7.709  17.063  0.00  0.00    +0.000 C 
BRANCH  18  19
ATOM     19  N   UNL     1       6.168   6.743  17.490  0.00  0.00    +0.000 NA
ATOM     20  C   UNL     1       4.803   7.235  17.148  0.00  0.00    +0.000 C 
BRANCH  19  21
ATOM     21  S   UNL     1       6.415   5.152  16.852  0.00  0.00    +0.000 S 
ATOM     22  O   UNL     1       6.158   5.200  15.424  0.00  0.00    +0.000 OA
ATOM     23  O   UNL     1       7.673   4.675  17.377  0.00  0.00    +0.000 OA
BRANCH  21  24
ATOM     24  C   UNL     1       5.101   4.203  17.576  0.00  0.00    +0.000 A 
ATOM     25  C   UNL     1       5.125   3.955  18.950  0.00  0.00    +0.000 A 
ATOM     26  C   UNL     1       4.093   3.219  19.534  0.00  0.00    +0.000 A 
ATOM     27  C   UNL     1       3.043   2.749  18.743  0.00  0.00    +0.000 A 
ATOM     28 CL   UNL     1       1.778   1.831  19.464  0.00  0.00    +0.000 Cl
ATOM     29  C   UNL     1       3.010   3.017  17.373  0.00  0.00    +0.000 A 
ATOM     30  C   UNL     1       4.043   3.750  16.784  0.00  0.00    +0.000 A 
ENDBRANCH  21  24
ENDBRANCH  19  21
ENDBRANCH  18  19
ENDBRANCH   2  18
TORSDOF 8
ENDMDL
