MODEL 1
REMARK VINA RESULT:      -7.7      0.000      0.000
REMARK  Name = 
REMARK  4 active torsions:
REMARK  status: ('A' for Active; 'I' for Inactive)
REMARK    1  A    between atoms: C_1  and  C_2
REMARK    2  A    between atoms: C_6  and  C_7
REMARK    3  A    between atoms: N_9  and  C_10
REMARK    4  A    between atoms: C_10  and  C_11
REMARK                            x       y       z     vdW  Elec       q    Type
REMARK                         _______ _______ _______ _____ _____    ______ ____
ROOT
ATOM      1  C   UNL     1       2.821   3.008  17.463  0.00  0.00    +0.000 C 
ENDROOT
BRANCH   1   2
ATOM      2  C   UNL     1       2.391   3.553  18.792  0.00  0.00    +0.000 A 
ATOM      3  C   UNL     1       2.111   2.773  19.899  0.00  0.00    +0.000 A 
ATOM      4  S   UNL     1       1.664   3.689  21.263  0.00  0.00    +0.000 S 
ATOM      5  C   UNL     1       1.840   5.175  20.416  0.00  0.00    +0.000 A 
ATOM      6  C   UNL     1       1.634   6.470  20.934  0.00  0.00    +0.000 A 
ATOM      7  C   UNL     1       1.823   7.572  20.096  0.00  0.00    +0.000 A 
ATOM      8  C   UNL     1       2.205   7.386  18.777  0.00  0.00    +0.000 A 
ATOM      9 CL   UNL     1       2.437   8.753  17.757  0.00  0.00    +0.000 Cl
ATOM     10  C   UNL     1       2.408   6.103  18.263  0.00  0.00    +0.000 A 
ATOM     11  C   UNL     1       2.229   4.963  19.089  0.00  0.00    +0.000 A 
ENDBRANCH   1   2
BRANCH   1  14
ATOM     12  C   UNL     1       5.129   3.939  17.589  0.00  0.00    +0.000 C 
ATOM     13  O   UNL     1       5.374   3.356  18.641  0.00  0.00    +0.000 OA
ATOM     14  N   UNL     1       3.903   3.826  16.969  0.00  0.00    +0.000 N 
ATOM     15  H   UNL     1       3.744   4.332  16.109  0.00  0.00    +0.000 HD
BRANCH  12  21
ATOM     16  C   UNL     1       6.243   3.797  14.520  0.00  0.00    +0.000 C 
ATOM     17  C   UNL     1       6.587   4.748  15.608  0.00  0.00    +0.000 A 
ATOM     18  N   UNL     1       7.514   5.745  15.310  0.00  0.00    +0.000 NA
ATOM     19  N   UNL     1       7.748   6.534  16.340  0.00  0.00    +0.000 NA
ATOM     20  S   UNL     1       6.872   6.106  17.689  0.00  0.00    +0.000 S 
ATOM     21  C   UNL     1       6.098   4.783  16.912  0.00  0.00    +0.000 A 
ENDBRANCH  12  21
ENDBRANCH   1  14
TORSDOF 3
ENDMDL
MODEL 2
REMARK VINA RESULT:      -7.6      2.951      4.080
REMARK  Name = 
REMARK  4 active torsions:
REMARK  status: ('A' for Active; 'I' for Inactive)
REMARK    1  A    between atoms: C_1  and  C_2
REMARK    2  A    between atoms: C_6  and  C_7
REMARK    3  A    between atoms: N_9  and  C_10
REMARK    4  A    between atoms: C_10  and  C_11
REMARK                            x       y       z     vdW  Elec       q    Type
REMARK                         _______ _______ _______ _____ _____    ______ ____
ROOT
ATOM      1  C   UNL     1       2.717   6.365  19.650  0.00  0.00    +0.000 C 
ENDROOT
BRANCH   1   2
ATOM      2  C   UNL     1       2.174   7.696  19.223  0.00  0.00    +0.000 A 
ATOM      3  C   UNL     1       2.279   8.205  17.942  0.00  0.00    +0.000 A 
ATOM      4  S   UNL     1       1.547   9.733  17.770  0.00  0.00    +0.000 S 
ATOM      5  C   UNL     1       1.051   9.763  19.416  0.00  0.00    +0.000 A 
ATOM      6  C   UNL     1       0.327  10.788  20.059  0.00  0.00    +0.000 A 
ATOM      7  C   UNL     1       0.009  10.645  21.412  0.00  0.00    +0.000 A 
ATOM      8  C   UNL     1       0.405   9.511  22.105  0.00  0.00    +0.000 A 
ATOM      9 CL   UNL     1       0.004   9.348  23.771  0.00  0.00    +0.000 Cl
ATOM     10  C   UNL     1       1.123   8.497  21.468  0.00  0.00    +0.000 A 
ATOM     11  C   UNL     1       1.458   8.609  20.094  0.00  0.00    +0.000 A 
ENDBRANCH   1   2
BRANCH   1  14
ATOM     12  C   UNL     1       4.496   4.830  18.820  0.00  0.00    +0.000 C 
ATOM     13  O   UNL     1       4.172   3.935  19.595  0.00  0.00    +0.000 OA
ATOM     14  N   UNL     1       3.841   6.044  18.803  0.00  0.00    +0.000 N 
ATOM     15  H   UNL     1       4.149   6.754  18.154  0.00  0.00    +0.000 HD
BRANCH  12  21
ATOM     16  C   UNL     1       7.650   5.637  19.098  0.00  0.00    +0.000 C 
ATOM     17  C   UNL     1       6.929   5.020  17.955  0.00  0.00    +0.000 A 
ATOM     18  N   UNL     1       7.679   4.721  16.819  0.00  0.00    +0.000 NA
ATOM     19  N   UNL     1       6.946   4.178  15.866  0.00  0.00    +0.000 NA
ATOM     20  S   UNL     1       5.349   4.013  16.300  0.00  0.00    +0.000 S 
ATOM     21  C   UNL     1       5.579   4.690  17.862  0.00  0.00    +0.000 A 
ENDBRANCH  12  21
ENDBRANCH   1  14
TORSDOF 3
ENDMDL
MODEL 3
REMARK VINA RESULT:      -7.6      0.998      1.411
REMARK  Name = 
REMARK  4 active torsions:
REMARK  status: ('A' for Active; 'I' for Inactive)
REMARK    1  A    between atoms: C_1  and  C_2
REMARK    2  A    between atoms: C_6  and  C_7
REMARK    3  A    between atoms: N_9  and  C_10
REMARK    4  A    between atoms: C_10  and  C_11
REMARK                            x       y       z     vdW  Elec       q    Type
REMARK                         _______ _______ _______ _____ _____    ______ ____
ROOT
ATOM      1  C   UNL     1       2.522   3.088  17.363  0.00  0.00    +0.000 C 
ENDROOT
BRANCH   1   2
ATOM      2  C   UNL     1       2.255   3.658  18.723  0.00  0.00    +0.000 A 
ATOM      3  C   UNL     1       2.083   2.898  19.866  0.00  0.00    +0.000 A 
ATOM      4  S   UNL     1       1.812   3.841  21.258  0.00  0.00    +0.000 S 
ATOM      5  C   UNL     1       1.926   5.312  20.375  0.00  0.00    +0.000 A 
ATOM      6  C   UNL     1       1.808   6.617  20.894  0.00  0.00    +0.000 A 
ATOM      7  C   UNL     1       1.927   7.705  20.025  0.00  0.00    +0.000 A 
ATOM      8  C   UNL     1       2.155   7.495  18.674  0.00  0.00    +0.000 A 
ATOM      9 CL   UNL     1       2.302   8.844  17.615  0.00  0.00    +0.000 Cl
ATOM     10  C   UNL     1       2.270   6.201  18.160  0.00  0.00    +0.000 A 
ATOM     11  C   UNL     1       2.159   5.076  19.016  0.00  0.00    +0.000 A 
ENDBRANCH   1   2
BRANCH   1  14
ATOM     12  C   UNL     1       4.918   3.768  17.302  0.00  0.00    +0.000 C 
ATOM     13  O   UNL     1       5.186   3.142  18.324  0.00  0.00    +0.000 OA
ATOM     14  N   UNL     1       3.640   3.797  16.787  0.00  0.00    +0.000 N 
ATOM     15  H   UNL     1       3.465   4.334  15.949  0.00  0.00    +0.000 HD
BRANCH  12  21
ATOM     16  C   UNL     1       6.958   6.115  18.306  0.00  0.00    +0.000 C 
ATOM     17  C   UNL     1       6.795   5.517  16.956  0.00  0.00    +0.000 A 
ATOM     18  N   UNL     1       7.623   6.001  15.945  0.00  0.00    +0.000 NA
ATOM     19  N   UNL     1       7.399   5.405  14.789  0.00  0.00    +0.000 NA
ATOM     20  S   UNL     1       6.197   4.259  14.880  0.00  0.00    +0.000 S 
ATOM     21  C   UNL     1       5.912   4.518  16.555  0.00  0.00    +0.000 A 
ENDBRANCH  12  21
ENDBRANCH   1  14
TORSDOF 3
ENDMDL
MODEL 4
REMARK VINA RESULT:      -7.3      4.846      7.204
REMARK  Name = 
REMARK  4 active torsions:
REMARK  status: ('A' for Active; 'I' for Inactive)
REMARK    1  A    between atoms: C_1  and  C_2
REMARK    2  A    between atoms: C_6  and  C_7
REMARK    3  A    between atoms: N_9  and  C_10
REMARK    4  A    between atoms: C_10  and  C_11
REMARK                            x       y       z     vdW  Elec       q    Type
REMARK                         _______ _______ _______ _____ _____    ______ ____
ROOT
ATOM      1  C   UNL     1       2.255   7.722  18.998  0.00  0.00    +0.000 C 
ENDROOT
BRANCH   1   2
ATOM      2  C   UNL     1       2.333   6.292  19.444  0.00  0.00    +0.000 A 
ATOM      3  C   UNL     1       1.753   5.805  20.601  0.00  0.00    +0.000 A 
ATOM      4  S   UNL     1       2.007   4.135  20.820  0.00  0.00    +0.000 S 
ATOM      5  C   UNL     1       2.902   4.003  19.358  0.00  0.00    +0.000 A 
ATOM      6  C   UNL     1       3.475   2.831  18.825  0.00  0.00    +0.000 A 
ATOM      7  C   UNL     1       4.174   2.908  17.617  0.00  0.00    +0.000 A 
ATOM      8  C   UNL     1       4.300   4.124  16.963  0.00  0.00    +0.000 A 
ATOM      9 CL   UNL     1       5.163   4.204  15.476  0.00  0.00    +0.000 Cl
ATOM     10  C   UNL     1       3.734   5.285  17.492  0.00  0.00    +0.000 A 
ATOM     11  C   UNL     1       3.013   5.240  18.714  0.00  0.00    +0.000 A 
ENDBRANCH   1   2
BRANCH   1  14
ATOM     12  C   UNL     1       0.812   9.550  19.884  0.00  0.00    +0.000 C 
ATOM     13  O   UNL     1       0.479   9.916  18.760  0.00  0.00    +0.000 OA
ATOM     14  N   UNL     1       1.685   8.499  20.072  0.00  0.00    +0.000 N 
ATOM     15  H   UNL     1       1.938   8.240  21.016  0.00  0.00    +0.000 HD
BRANCH  12  21
ATOM     16  C   UNL     1       0.451  12.719  20.594  0.00  0.00    +0.000 C 
ATOM     17  C   UNL     1       0.152  11.524  21.423  0.00  0.00    +0.000 A 
ATOM     18  N   UNL     1      -0.368  11.750  22.696  0.00  0.00    +0.000 NA
ATOM     19  N   UNL     1      -0.599  10.627  23.348  0.00  0.00    +0.000 NA
ATOM     20  S   UNL     1      -0.200   9.277  22.461  0.00  0.00    +0.000 S 
ATOM     21  C   UNL     1       0.320  10.181  21.096  0.00  0.00    +0.000 A 
ENDBRANCH  12  21
ENDBRANCH   1  14
TORSDOF 3
ENDMDL
MODEL 5
REMARK VINA RESULT:      -7.3      3.106      4.199
REMARK  Name = 
REMARK  4 active torsions:
REMARK  status: ('A' for Active; 'I' for Inactive)
REMARK    1  A    between atoms: C_1  and  C_2
REMARK    2  A    between atoms: C_6  and  C_7
REMARK    3  A    between atoms: N_9  and  C_10
REMARK    4  A    between atoms: C_10  and  C_11
REMARK                            x       y       z     vdW  Elec       q    Type
REMARK                         _______ _______ _______ _____ _____    ______ ____
ROOT
ATOM      1  C   UNL     1       5.957   6.528  17.170  0.00  0.00    +0.000 C 
ENDROOT
BRANCH   1   2
ATOM      2  C   UNL     1       4.514   6.503  17.576  0.00  0.00    +0.000 A 
ATOM      3  C   UNL     1       3.719   7.629  17.697  0.00  0.00    +0.000 A 
ATOM      4  S   UNL     1       2.121   7.269  18.160  0.00  0.00    +0.000 S 
ATOM      5  C   UNL     1       2.435   5.579  18.206  0.00  0.00    +0.000 A 
ATOM      6  C   UNL     1       1.515   4.560  18.525  0.00  0.00    +0.000 A 
ATOM      7  C   UNL     1       1.946   3.231  18.514  0.00  0.00    +0.000 A 
ATOM      8  C   UNL     1       3.262   2.929  18.196  0.00  0.00    +0.000 A 
ATOM      9 CL   UNL     1       3.779   1.287  18.184  0.00  0.00    +0.000 Cl
ATOM     10  C   UNL     1       4.173   3.939  17.881  0.00  0.00    +0.000 A 
ATOM     11  C   UNL     1       3.765   5.298  17.878  0.00  0.00    +0.000 A 
ENDBRANCH   1   2
BRANCH   1  14
ATOM     12  C   UNL     1       6.962   5.039  15.444  0.00  0.00    +0.000 C 
ATOM     13  O   UNL     1       7.777   4.569  16.233  0.00  0.00    +0.000 OA
ATOM     14  N   UNL     1       6.057   6.005  15.828  0.00  0.00    +0.000 N 
ATOM     15  H   UNL     1       5.412   6.369  15.141  0.00  0.00    +0.000 HD
BRANCH  12  21
ATOM     16  C   UNL     1       8.780   5.924  12.877  0.00  0.00    +0.000 C 
ATOM     17  C   UNL     1       7.640   4.975  12.946  0.00  0.00    +0.000 A 
ATOM     18  N   UNL     1       7.267   4.345  11.760  0.00  0.00    +0.000 NA
ATOM     19  N   UNL     1       6.247   3.525  11.929  0.00  0.00    +0.000 NA
ATOM     20  S   UNL     1       5.709   3.487  13.503  0.00  0.00    +0.000 S 
ATOM     21  C   UNL     1       6.878   4.618  14.056  0.00  0.00    +0.000 A 
ENDBRANCH  12  21
ENDBRANCH   1  14
TORSDOF 3
ENDMDL
MODEL 6
REMARK VINA RESULT:      -7.2      2.884      3.899
REMARK  Name = 
REMARK  4 active torsions:
REMARK  status: ('A' for Active; 'I' for Inactive)
REMARK    1  A    between atoms: C_1  and  C_2
REMARK    2  A    between atoms: C_6  and  C_7
REMARK    3  A    between atoms: N_9  and  C_10
REMARK    4  A    between atoms: C_10  and  C_11
REMARK                            x       y       z     vdW  Elec       q    Type
REMARK                         _______ _______ _______ _____ _____    ______ ____
ROOT
ATOM      1  C   UNL     1       2.538   6.330  19.694  0.00  0.00    +0.000 C 
ENDROOT
BRANCH   1   2
ATOM      2  C   UNL     1       2.106   7.696  19.254  0.00  0.00    +0.000 A 
ATOM      3  C   UNL     1       2.314   8.208  17.986  0.00  0.00    +0.000 A 
ATOM      4  S   UNL     1       1.692   9.781  17.793  0.00  0.00    +0.000 S 
ATOM      5  C   UNL     1       1.110   9.830  19.410  0.00  0.00    +0.000 A 
ATOM      6  C   UNL     1       0.420  10.895  20.024  0.00  0.00    +0.000 A 
ATOM      7  C   UNL     1       0.019  10.762  21.357  0.00  0.00    +0.000 A 
ATOM      8  C   UNL     1       0.303   9.599  22.056  0.00  0.00    +0.000 A 
ATOM      9 CL   UNL     1      -0.198   9.449  23.696  0.00  0.00    +0.000 Cl
ATOM     10  C   UNL     1       0.988   8.546  21.448  0.00  0.00    +0.000 A 
ATOM     11  C   UNL     1       1.404   8.647  20.095  0.00  0.00    +0.000 A 
ENDBRANCH   1   2
BRANCH   1  14
ATOM     12  C   UNL     1       4.218   4.824  18.635  0.00  0.00    +0.000 C 
ATOM     13  O   UNL     1       3.473   3.849  18.695  0.00  0.00    +0.000 OA
ATOM     14  N   UNL     1       3.832   6.057  19.116  0.00  0.00    +0.000 N 
ATOM     15  H   UNL     1       4.483   6.828  19.054  0.00  0.00    +0.000 HD
BRANCH  12  21
ATOM     16  C   UNL     1       5.137   4.201  15.562  0.00  0.00    +0.000 C 
ATOM     17  C   UNL     1       5.968   4.506  16.754  0.00  0.00    +0.000 A 
ATOM     18  N   UNL     1       7.349   4.548  16.570  0.00  0.00    +0.000 NA
ATOM     19  N   UNL     1       7.993   4.827  17.687  0.00  0.00    +0.000 NA
ATOM     20  S   UNL     1       6.970   5.043  18.981  0.00  0.00    +0.000 S 
ATOM     21  C   UNL     1       5.549   4.764  18.056  0.00  0.00    +0.000 A 
ENDBRANCH  12  21
ENDBRANCH   1  14
TORSDOF 3
ENDMDL
MODEL 7
REMARK VINA RESULT:      -7.1      4.918      7.064
REMARK  Name = 
REMARK  4 active torsions:
REMARK  status: ('A' for Active; 'I' for Inactive)
REMARK    1  A    between atoms: C_1  and  C_2
REMARK    2  A    between atoms: C_6  and  C_7
REMARK    3  A    between atoms: N_9  and  C_10
REMARK    4  A    between atoms: C_10  and  C_11
REMARK                            x       y       z     vdW  Elec       q    Type
REMARK                         _______ _______ _______ _____ _____    ______ ____
ROOT
ATOM      1  C   UNL     1       2.462   8.261  17.905  0.00  0.00    +0.000 C 
ENDROOT
BRANCH   1   2
ATOM      2  C   UNL     1       2.825   6.919  18.466  0.00  0.00    +0.000 A 
ATOM      3  C   UNL     1       2.325   6.408  19.649  0.00  0.00    +0.000 A 
ATOM      4  S   UNL     1       2.918   4.853  20.007  0.00  0.00    +0.000 S 
ATOM      5  C   UNL     1       3.866   4.803  18.574  0.00  0.00    +0.000 A 
ATOM      6  C   UNL     1       4.690   3.743  18.145  0.00  0.00    +0.000 A 
ATOM      7  C   UNL     1       5.396   3.876  16.946  0.00  0.00    +0.000 A 
ATOM      8  C   UNL     1       5.283   5.038  16.197  0.00  0.00    +0.000 A 
ATOM      9 CL   UNL     1       6.157   5.187  14.722  0.00  0.00    +0.000 Cl
ATOM     10  C   UNL     1       4.468   6.088  16.623  0.00  0.00    +0.000 A 
ATOM     11  C   UNL     1       3.735   5.983  17.833  0.00  0.00    +0.000 A 
ENDBRANCH   1   2
BRANCH   1  14
ATOM     12  C   UNL     1       0.817   9.808  18.959  0.00  0.00    +0.000 C 
ATOM     13  O   UNL     1       0.086   9.803  17.972  0.00  0.00    +0.000 OA
ATOM     14  N   UNL     1       1.995   9.092  18.989  0.00  0.00    +0.000 N 
ATOM     15  H   UNL     1       2.569   9.134  19.820  0.00  0.00    +0.000 HD
BRANCH  12  21
ATOM     16  C   UNL     1      -0.272   8.746  21.851  0.00  0.00    +0.000 C 
ATOM     17  C   UNL     1       0.046  10.128  21.409  0.00  0.00    +0.000 A 
ATOM     18  N   UNL     1      -0.129  11.148  22.343  0.00  0.00    +0.000 NA
ATOM     19  N   UNL     1       0.181  12.333  21.852  0.00  0.00    +0.000 NA
ATOM     20  S   UNL     1       0.683  12.260  20.268  0.00  0.00    +0.000 S 
ATOM     21  C   UNL     1       0.505  10.554  20.166  0.00  0.00    +0.000 A 
ENDBRANCH  12  21
ENDBRANCH   1  14
TORSDOF 3
ENDMDL
MODEL 8
REMARK VINA RESULT:      -7.1      4.455      6.821
REMARK  Name = 
REMARK  4 active torsions:
REMARK  status: ('A' for Active; 'I' for Inactive)
REMARK    1  A    between atoms: C_1  and  C_2
REMARK    2  A    between atoms: C_6  and  C_7
REMARK    3  A    between atoms: N_9  and  C_10
REMARK    4  A    between atoms: C_10  and  C_11
REMARK                            x       y       z     vdW  Elec       q    Type
REMARK                         _______ _______ _______ _____ _____    ______ ____
ROOT
ATOM      1  C   UNL     1       2.593   7.704  17.510  0.00  0.00    +0.000 C 
ENDROOT
BRANCH   1   2
ATOM      2  C   UNL     1       3.672   6.702  17.791  0.00  0.00    +0.000 A 
ATOM      3  C   UNL     1       4.990   6.846  17.400  0.00  0.00    +0.000 A 
ATOM      4  S   UNL     1       5.975   5.544  17.883  0.00  0.00    +0.000 S 
ATOM      5  C   UNL     1       4.663   4.738  18.648  0.00  0.00    +0.000 A 
ATOM      6  C   UNL     1       4.714   3.506  19.331  0.00  0.00    +0.000 A 
ATOM      7  C   UNL     1       3.541   2.995  19.894  0.00  0.00    +0.000 A 
ATOM      8  C   UNL     1       2.350   3.695  19.777  0.00  0.00    +0.000 A 
ATOM      9 CL   UNL     1       0.914   3.055  20.479  0.00  0.00    +0.000 Cl
ATOM     10  C   UNL     1       2.300   4.915  19.100  0.00  0.00    +0.000 A 
ATOM     11  C   UNL     1       3.473   5.464  18.520  0.00  0.00    +0.000 A 
ENDBRANCH   1   2
BRANCH   1  14
ATOM     12  C   UNL     1       1.220   9.270  18.879  0.00  0.00    +0.000 C 
ATOM     13  O   UNL     1       0.592   9.671  17.904  0.00  0.00    +0.000 OA
ATOM     14  N   UNL     1       2.217   8.325  18.758  0.00  0.00    +0.000 N 
ATOM     15  H   UNL     1       2.714   8.033  19.588  0.00  0.00    +0.000 HD
BRANCH  12  21
ATOM     16  C   UNL     1       0.505  12.278  19.937  0.00  0.00    +0.000 C 
ATOM     17  C   UNL     1       0.658  11.016  20.706  0.00  0.00    +0.000 A 
ATOM     18  N   UNL     1       0.469  11.088  22.085  0.00  0.00    +0.000 NA
ATOM     19  N   UNL     1       0.627   9.917  22.672  0.00  0.00    +0.000 NA
ATOM     20  S   UNL     1       1.006   8.706  21.596  0.00  0.00    +0.000 S 
ATOM     21  C   UNL     1       0.968   9.746  20.229  0.00  0.00    +0.000 A 
ENDBRANCH  12  21
ENDBRANCH   1  14
TORSDOF 3
ENDMDL
MODEL 9
REMARK VINA RESULT:      -7.1      1.074      1.074
REMARK  Name = 
REMARK  4 active torsions:
REMARK  status: ('A' for Active; 'I' for Inactive)
REMARK    1  A    between atoms: C_1  and  C_2
REMARK    2  A    between atoms: C_6  and  C_7
REMARK    3  A    between atoms: N_9  and  C_10
REMARK    4  A    between atoms: C_10  and  C_11
REMARK                            x       y       z     vdW  Elec       q    Type
REMARK                         _______ _______ _______ _____ _____    ______ ____
ROOT
ATOM      1  C   UNL     1       3.592   2.354  18.225  0.00  0.00    +0.000 C 
ENDROOT
BRANCH   1   2
ATOM      2  C   UNL     1       2.966   3.030  19.408  0.00  0.00    +0.000 A 
ATOM      3  C   UNL     1       2.616   2.383  20.579  0.00  0.00    +0.000 A 
ATOM      4  S   UNL     1       1.941   3.429  21.742  0.00  0.00    +0.000 S 
ATOM      5  C   UNL     1       2.103   4.797  20.714  0.00  0.00    +0.000 A 
ATOM      6  C   UNL     1       1.739   6.125  21.015  0.00  0.00    +0.000 A 
ATOM      7  C   UNL     1       1.942   7.118  20.053  0.00  0.00    +0.000 A 
ATOM      8  C   UNL     1       2.492   6.793  18.822  0.00  0.00    +0.000 A 
ATOM      9 CL   UNL     1       2.738   8.027  17.647  0.00  0.00    +0.000 Cl
ATOM     10  C   UNL     1       2.851   5.477  18.524  0.00  0.00    +0.000 A 
ATOM     11  C   UNL     1       2.663   4.447  19.480  0.00  0.00    +0.000 A 
ENDBRANCH   1   2
BRANCH   1  14
ATOM     12  C   UNL     1       4.658   3.818  16.513  0.00  0.00    +0.000 C 
ATOM     13  O   UNL     1       3.728   3.676  15.723  0.00  0.00    +0.000 OA
ATOM     14  N   UNL     1       4.663   3.192  17.741  0.00  0.00    +0.000 N 
ATOM     15  H   UNL     1       5.455   3.329  18.354  0.00  0.00    +0.000 HD
BRANCH  12  21
ATOM     16  C   UNL     1       6.469   4.022  13.801  0.00  0.00    +0.000 C 
ATOM     17  C   UNL     1       6.600   4.759  15.084  0.00  0.00    +0.000 A 
ATOM     18  N   UNL     1       7.634   5.688  15.178  0.00  0.00    +0.000 NA
ATOM     19  N   UNL     1       7.663   6.287  16.353  0.00  0.00    +0.000 NA
ATOM     20  S   UNL     1       6.462   5.754  17.373  0.00  0.00    +0.000 S 
ATOM     21  C   UNL     1       5.815   4.649  16.228  0.00  0.00    +0.000 A 
ENDBRANCH  12  21
ENDBRANCH   1  14
TORSDOF 3
ENDMDL
