MODEL 1
REMARK VINA RESULT:      -7.1      0.000      0.000
REMARK  Name = 
REMARK  9 active torsions:
REMARK  status: ('A' for Active; 'I' for Inactive)
REMARK    1  A    between atoms: C_1  and  C_2
REMARK    2  A    between atoms: C_2  and  O_3
REMARK    3  A    between atoms: O_3  and  C_4
REMARK    4  A    between atoms: C_6  and  C_7
REMARK    5  A    between atoms: C_8  and  C_9
REMARK    6  A    between atoms: C_9  and  O_11
REMARK    7  A    between atoms: C_16  and  C_17
REMARK    8  A    between atoms: C_17  and  C_18
REMARK    9  A    between atoms: C_20  and  O_21
REMARK                            x       y       z     vdW  Elec       q    Type
REMARK                         _______ _______ _______ _____ _____    ______ ____
ROOT
ATOM      1  C   UNL     1       3.160   6.904  18.186  0.00  0.00    +0.000 A 
ATOM      2  C   UNL     1       3.944   6.507  17.109  0.00  0.00    +0.000 A 
ATOM      3  C   UNL     1       4.175   5.154  16.853  0.00  0.00    +0.000 A 
ATOM      4  C   UNL     1       3.641   4.149  17.695  0.00  0.00    +0.000 A 
ATOM      5  C   UNL     1       3.909   2.792  17.423  0.00  0.00    +0.000 A 
ATOM      6  C   UNL     1       3.426   1.773  18.223  0.00  0.00    +0.000 A 
ATOM      7  C   UNL     1       2.662   2.080  19.336  0.00  0.00    +0.000 A 
ATOM      8  C   UNL     1       2.357   3.415  19.670  0.00  0.00    +0.000 A 
ATOM      9  C   UNL     1       2.839   4.497  18.828  0.00  0.00    +0.000 A 
ATOM     10  C   UNL     1       2.604   5.904  19.010  0.00  0.00    +0.000 A 
ENDROOT
BRANCH   3  11
ATOM     11  C   UNL     1       5.014   4.876  15.674  0.00  0.00    +0.000 C 
ATOM     12  C   UNL     1       6.306   5.227  15.622  0.00  0.00    +0.000 C 
BRANCH  12  13
ATOM     13  C   UNL     1       7.096   4.860  14.430  0.00  0.00    +0.000 C 
ATOM     14  O   UNL     1       8.014   5.518  13.980  0.00  0.00    +0.000 OA
BRANCH  13  15
ATOM     15  O   UNL     1       6.676   3.700  13.878  0.00  0.00    +0.000 OA
ATOM     16  H   UNL     1       6.671   2.929  14.472  0.00  0.00    +0.000 HD
ENDBRANCH  13  15
ENDBRANCH  12  13
ENDBRANCH   3  11
BRANCH   8  17
ATOM     17  C   UNL     1       1.543   3.676  20.935  0.00  0.00    +0.000 C 
ATOM     18  C   UNL     1       1.386   2.534  21.943  0.00  0.00    +0.000 C 
ENDBRANCH   8  17
BRANCH  10  19
ATOM     19  O   UNL     1       1.777   6.331  20.024  0.00  0.00    +0.000 OA
ATOM     20  H   UNL     1       0.916   5.914  19.849  0.00  0.00    +0.000 HD
ENDBRANCH  10  19
BRANCH   1  21
ATOM     21  O   UNL     1       2.916   8.224  18.498  0.00  0.00    +0.000 OA
BRANCH  21  23
ATOM     22  C   UNL     1       1.459  10.170  18.406  0.00  0.00    +0.000 C 
ATOM     23  C   UNL     1       1.857   8.856  17.762  0.00  0.00    +0.000 C 
ENDBRANCH  21  23
ENDBRANCH   1  21
TORSDOF 7
ENDMDL
MODEL 2
REMARK VINA RESULT:      -7.1      1.646      4.336
REMARK  Name = 
REMARK  9 active torsions:
REMARK  status: ('A' for Active; 'I' for Inactive)
REMARK    1  A    between atoms: C_1  and  C_2
REMARK    2  A    between atoms: C_2  and  O_3
REMARK    3  A    between atoms: O_3  and  C_4
REMARK    4  A    between atoms: C_6  and  C_7
REMARK    5  A    between atoms: C_8  and  C_9
REMARK    6  A    between atoms: C_9  and  O_11
REMARK    7  A    between atoms: C_16  and  C_17
REMARK    8  A    between atoms: C_17  and  C_18
REMARK    9  A    between atoms: C_20  and  O_21
REMARK                            x       y       z     vdW  Elec       q    Type
REMARK                         _______ _______ _______ _____ _____    ______ ____
ROOT
ATOM      1  C   UNL     1       3.689   4.165  19.512  0.00  0.00    +0.000 A 
ATOM      2  C   UNL     1       4.321   4.329  18.285  0.00  0.00    +0.000 A 
ATOM      3  C   UNL     1       4.211   5.529  17.579  0.00  0.00    +0.000 A 
ATOM      4  C   UNL     1       3.432   6.601  18.076  0.00  0.00    +0.000 A 
ATOM      5  C   UNL     1       3.323   7.792  17.330  0.00  0.00    +0.000 A 
ATOM      6  C   UNL     1       2.562   8.864  17.763  0.00  0.00    +0.000 A 
ATOM      7  C   UNL     1       1.873   8.774  18.960  0.00  0.00    +0.000 A 
ATOM      8  C   UNL     1       1.935   7.613  19.757  0.00  0.00    +0.000 A 
ATOM      9  C   UNL     1       2.747   6.486  19.327  0.00  0.00    +0.000 A 
ATOM     10  C   UNL     1       2.936   5.242  20.024  0.00  0.00    +0.000 A 
ENDROOT
BRANCH   3  11
ATOM     11  C   UNL     1       4.939   5.568  16.299  0.00  0.00    +0.000 C 
ATOM     12  C   UNL     1       5.839   4.634  15.963  0.00  0.00    +0.000 C 
BRANCH  12  13
ATOM     13  C   UNL     1       6.483   4.710  14.636  0.00  0.00    +0.000 C 
ATOM     14  O   UNL     1       6.098   4.120  13.646  0.00  0.00    +0.000 OA
BRANCH  13  15
ATOM     15  O   UNL     1       7.572   5.512  14.645  0.00  0.00    +0.000 OA
ATOM     16  H   UNL     1       7.424   6.425  14.346  0.00  0.00    +0.000 HD
ENDBRANCH  13  15
ENDBRANCH  12  13
ENDBRANCH   3  11
BRANCH   8  17
ATOM     17  C   UNL     1       1.116   7.574  21.044  0.00  0.00    +0.000 C 
ATOM     18  C   UNL     1       0.364   8.842  21.461  0.00  0.00    +0.000 C 
ENDBRANCH   8  17
BRANCH  10  19
ATOM     19  O   UNL     1       2.384   5.070  21.272  0.00  0.00    +0.000 OA
ATOM     20  H   UNL     1       1.531   4.627  21.119  0.00  0.00    +0.000 HD
ENDBRANCH  10  19
BRANCH   1  21
ATOM     21  O   UNL     1       3.747   2.998  20.243  0.00  0.00    +0.000 OA
BRANCH  21  23
ATOM     22  C   UNL     1       1.809   1.964  19.198  0.00  0.00    +0.000 C 
ATOM     23  C   UNL     1       3.270   1.818  19.579  0.00  0.00    +0.000 C 
ENDBRANCH  21  23
ENDBRANCH   1  21
TORSDOF 7
ENDMDL
MODEL 3
REMARK VINA RESULT:      -7.0      2.187      5.213
REMARK  Name = 
REMARK  9 active torsions:
REMARK  status: ('A' for Active; 'I' for Inactive)
REMARK    1  A    between atoms: C_1  and  C_2
REMARK    2  A    between atoms: C_2  and  O_3
REMARK    3  A    between atoms: O_3  and  C_4
REMARK    4  A    between atoms: C_6  and  C_7
REMARK    5  A    between atoms: C_8  and  C_9
REMARK    6  A    between atoms: C_9  and  O_11
REMARK    7  A    between atoms: C_16  and  C_17
REMARK    8  A    between atoms: C_17  and  C_18
REMARK    9  A    between atoms: C_20  and  O_21
REMARK                            x       y       z     vdW  Elec       q    Type
REMARK                         _______ _______ _______ _____ _____    ______ ____
ROOT
ATOM      1  C   UNL     1       5.007   6.027  17.629  0.00  0.00    +0.000 A 
ATOM      2  C   UNL     1       4.092   7.053  17.830  0.00  0.00    +0.000 A 
ATOM      3  C   UNL     1       2.990   6.874  18.669  0.00  0.00    +0.000 A 
ATOM      4  C   UNL     1       2.757   5.636  19.317  0.00  0.00    +0.000 A 
ATOM      5  C   UNL     1       1.624   5.480  20.141  0.00  0.00    +0.000 A 
ATOM      6  C   UNL     1       1.343   4.288  20.784  0.00  0.00    +0.000 A 
ATOM      7  C   UNL     1       2.185   3.202  20.613  0.00  0.00    +0.000 A 
ATOM      8  C   UNL     1       3.334   3.287  19.802  0.00  0.00    +0.000 A 
ATOM      9  C   UNL     1       3.657   4.539  19.137  0.00  0.00    +0.000 A 
ATOM     10  C   UNL     1       4.794   4.802  18.295  0.00  0.00    +0.000 A 
ENDROOT
BRANCH   3  11
ATOM     11  C   UNL     1       2.108   8.047  18.800  0.00  0.00    +0.000 C 
ATOM     12  C   UNL     1       1.983   8.955  17.823  0.00  0.00    +0.000 C 
BRANCH  12  13
ATOM     13  C   UNL     1       1.033  10.071  18.005  0.00  0.00    +0.000 C 
ATOM     14  O   UNL     1      -0.174   9.945  18.087  0.00  0.00    +0.000 OA
BRANCH  13  15
ATOM     15  O   UNL     1       1.659  11.268  18.063  0.00  0.00    +0.000 OA
ATOM     16  H   UNL     1       2.522  11.313  17.616  0.00  0.00    +0.000 HD
ENDBRANCH  13  15
ENDBRANCH  12  13
ENDBRANCH   3  11
BRANCH   8  17
ATOM     17  C   UNL     1       4.193   2.036  19.630  0.00  0.00    +0.000 C 
ATOM     18  C   UNL     1       3.840   1.068  18.497  0.00  0.00    +0.000 C 
ENDBRANCH   8  17
BRANCH  10  19
ATOM     19  O   UNL     1       5.756   3.834  18.128  0.00  0.00    +0.000 OA
ATOM     20  H   UNL     1       5.675   3.251  18.902  0.00  0.00    +0.000 HD
ENDBRANCH  10  19
BRANCH   1  21
ATOM     21  O   UNL     1       6.100   6.140  16.798  0.00  0.00    +0.000 OA
BRANCH  21  23
ATOM     22  C   UNL     1       7.844   6.701  18.399  0.00  0.00    +0.000 C 
ATOM     23  C   UNL     1       7.069   7.133  17.168  0.00  0.00    +0.000 C 
ENDBRANCH  21  23
ENDBRANCH   1  21
TORSDOF 7
ENDMDL
MODEL 4
REMARK VINA RESULT:      -7.0      1.884      5.287
REMARK  Name = 
REMARK  9 active torsions:
REMARK  status: ('A' for Active; 'I' for Inactive)
REMARK    1  A    between atoms: C_1  and  C_2
REMARK    2  A    between atoms: C_2  and  O_3
REMARK    3  A    between atoms: O_3  and  C_4
REMARK    4  A    between atoms: C_6  and  C_7
REMARK    5  A    between atoms: C_8  and  C_9
REMARK    6  A    between atoms: C_9  and  O_11
REMARK    7  A    between atoms: C_16  and  C_17
REMARK    8  A    between atoms: C_17  and  C_18
REMARK    9  A    between atoms: C_20  and  O_21
REMARK                            x       y       z     vdW  Elec       q    Type
REMARK                         _______ _______ _______ _____ _____    ______ ____
ROOT
ATOM      1  C   UNL     1       4.924   5.898  17.402  0.00  0.00    +0.000 A 
ATOM      2  C   UNL     1       4.033   6.939  17.635  0.00  0.00    +0.000 A 
ATOM      3  C   UNL     1       3.025   6.817  18.593  0.00  0.00    +0.000 A 
ATOM      4  C   UNL     1       2.863   5.622  19.335  0.00  0.00    +0.000 A 
ATOM      5  C   UNL     1       1.822   5.521  20.281  0.00  0.00    +0.000 A 
ATOM      6  C   UNL     1       1.610   4.371  21.020  0.00  0.00    +0.000 A 
ATOM      7  C   UNL     1       2.431   3.274  20.829  0.00  0.00    +0.000 A 
ATOM      8  C   UNL     1       3.490   3.303  19.899  0.00  0.00    +0.000 A 
ATOM      9  C   UNL     1       3.740   4.511  19.129  0.00  0.00    +0.000 A 
ATOM     10  C   UNL     1       4.782   4.717  18.160  0.00  0.00    +0.000 A 
ENDROOT
BRANCH   3  11
ATOM     11  C   UNL     1       2.160   8.000  18.743  0.00  0.00    +0.000 C 
ATOM     12  C   UNL     1       2.149   8.993  17.844  0.00  0.00    +0.000 C 
BRANCH  12  13
ATOM     13  C   UNL     1       1.210  10.116  18.034  0.00  0.00    +0.000 C 
ATOM     14  O   UNL     1       0.023   9.993  18.264  0.00  0.00    +0.000 OA
BRANCH  13  15
ATOM     15  O   UNL     1       1.821  11.316  17.911  0.00  0.00    +0.000 OA
ATOM     16  H   UNL     1       1.232  12.076  17.765  0.00  0.00    +0.000 HD
ENDBRANCH  13  15
ENDBRANCH  12  13
ENDBRANCH   3  11
BRANCH   8  17
ATOM     17  C   UNL     1       4.327   2.040  19.715  0.00  0.00    +0.000 C 
ATOM     18  C   UNL     1       3.869   1.014  18.674  0.00  0.00    +0.000 C 
ENDBRANCH   8  17
BRANCH  10  19
ATOM     19  O   UNL     1       5.724   3.736  17.952  0.00  0.00    +0.000 OA
ATOM     20  H   UNL     1       5.300   3.091  17.361  0.00  0.00    +0.000 HD
ENDBRANCH  10  19
BRANCH   1  21
ATOM     21  O   UNL     1       5.924   5.956  16.456  0.00  0.00    +0.000 OA
BRANCH  21  23
ATOM     22  C   UNL     1       6.488   4.504  14.587  0.00  0.00    +0.000 C 
ATOM     23  C   UNL     1       5.551   5.569  15.124  0.00  0.00    +0.000 C 
ENDBRANCH  21  23
ENDBRANCH   1  21
TORSDOF 7
ENDMDL
MODEL 5
REMARK VINA RESULT:      -6.9      2.480      6.560
REMARK  Name = 
REMARK  9 active torsions:
REMARK  status: ('A' for Active; 'I' for Inactive)
REMARK    1  A    between atoms: C_1  and  C_2
REMARK    2  A    between atoms: C_2  and  O_3
REMARK    3  A    between atoms: O_3  and  C_4
REMARK    4  A    between atoms: C_6  and  C_7
REMARK    5  A    between atoms: C_8  and  C_9
REMARK    6  A    between atoms: C_9  and  O_11
REMARK    7  A    between atoms: C_16  and  C_17
REMARK    8  A    between atoms: C_17  and  C_18
REMARK    9  A    between atoms: C_20  and  O_21
REMARK                            x       y       z     vdW  Elec       q    Type
REMARK                         _______ _______ _______ _____ _____    ______ ____
ROOT
ATOM      1  C   UNL     1       3.026   3.797  19.468  0.00  0.00    +0.000 A 
ATOM      2  C   UNL     1       2.550   5.026  19.909  0.00  0.00    +0.000 A 
ATOM      3  C   UNL     1       2.841   6.199  19.210  0.00  0.00    +0.000 A 
ATOM      4  C   UNL     1       3.651   6.176  18.049  0.00  0.00    +0.000 A 
ATOM      5  C   UNL     1       3.945   7.380  17.377  0.00  0.00    +0.000 A 
ATOM      6  C   UNL     1       4.744   7.414  16.248  0.00  0.00    +0.000 A 
ATOM      7  C   UNL     1       5.288   6.239  15.757  0.00  0.00    +0.000 A 
ATOM      8  C   UNL     1       5.037   5.000  16.380  0.00  0.00    +0.000 A 
ATOM      9  C   UNL     1       4.182   4.943  17.554  0.00  0.00    +0.000 A 
ATOM     10  C   UNL     1       3.809   3.767  18.295  0.00  0.00    +0.000 A 
ENDROOT
BRANCH   3  11
ATOM     11  C   UNL     1       2.264   7.427  19.783  0.00  0.00    +0.000 C 
ATOM     12  C   UNL     1       1.532   7.413  20.905  0.00  0.00    +0.000 C 
BRANCH  12  13
ATOM     13  C   UNL     1       1.038   8.693  21.450  0.00  0.00    +0.000 C 
ATOM     14  O   UNL     1       0.050   9.278  21.052  0.00  0.00    +0.000 OA
BRANCH  13  15
ATOM     15  O   UNL     1       1.822   9.157  22.449  0.00  0.00    +0.000 OA
ATOM     16  H   UNL     1       1.366   9.357  23.284  0.00  0.00    +0.000 HD
ENDBRANCH  13  15
ENDBRANCH  12  13
ENDBRANCH   3  11
BRANCH   8  17
ATOM     17  C   UNL     1       5.704   3.753  15.804  0.00  0.00    +0.000 C 
ATOM     18  C   UNL     1       6.235   3.815  14.369  0.00  0.00    +0.000 C 
ENDBRANCH   8  17
BRANCH  10  19
ATOM     19  O   UNL     1       4.204   2.527  17.849  0.00  0.00    +0.000 OA
ATOM     20  H   UNL     1       4.327   1.990  18.651  0.00  0.00    +0.000 HD
ENDBRANCH  10  19
BRANCH   1  21
ATOM     21  O   UNL     1       2.786   2.611  20.128  0.00  0.00    +0.000 OA
BRANCH  21  23
ATOM     22  C   UNL     1       0.701   2.190  18.949  0.00  0.00    +0.000 C 
ATOM     23  C   UNL     1       1.406   2.252  20.290  0.00  0.00    +0.000 C 
ENDBRANCH  21  23
ENDBRANCH   1  21
TORSDOF 7
ENDMDL
MODEL 6
REMARK VINA RESULT:      -6.8      1.827      4.473
REMARK  Name = 
REMARK  9 active torsions:
REMARK  status: ('A' for Active; 'I' for Inactive)
REMARK    1  A    between atoms: C_1  and  C_2
REMARK    2  A    between atoms: C_2  and  O_3
REMARK    3  A    between atoms: O_3  and  C_4
REMARK    4  A    between atoms: C_6  and  C_7
REMARK    5  A    between atoms: C_8  and  C_9
REMARK    6  A    between atoms: C_9  and  O_11
REMARK    7  A    between atoms: C_16  and  C_17
REMARK    8  A    between atoms: C_17  and  C_18
REMARK    9  A    between atoms: C_20  and  O_21
REMARK                            x       y       z     vdW  Elec       q    Type
REMARK                         _______ _______ _______ _____ _____    ______ ____
ROOT
ATOM      1  C   UNL     1       3.622   3.960  19.625  0.00  0.00    +0.000 A 
ATOM      2  C   UNL     1       4.262   4.061  18.396  0.00  0.00    +0.000 A 
ATOM      3  C   UNL     1       4.200   5.241  17.652  0.00  0.00    +0.000 A 
ATOM      4  C   UNL     1       3.462   6.358  18.113  0.00  0.00    +0.000 A 
ATOM      5  C   UNL     1       3.401   7.528  17.329  0.00  0.00    +0.000 A 
ATOM      6  C   UNL     1       2.681   8.641  17.725  0.00  0.00    +0.000 A 
ATOM      7  C   UNL     1       1.985   8.616  18.922  0.00  0.00    +0.000 A 
ATOM      8  C   UNL     1       2.000   7.479  19.755  0.00  0.00    +0.000 A 
ATOM      9  C   UNL     1       2.769   6.309  19.364  0.00  0.00    +0.000 A 
ATOM     10  C   UNL     1       2.909   5.081  20.100  0.00  0.00    +0.000 A 
ENDROOT
BRANCH   3  11
ATOM     11  C   UNL     1       4.933   5.213  16.375  0.00  0.00    +0.000 C 
ATOM     12  C   UNL     1       6.099   4.566  16.237  0.00  0.00    +0.000 C 
BRANCH  12  13
ATOM     13  C   UNL     1       6.743   4.533  14.908  0.00  0.00    +0.000 C 
ATOM     14  O   UNL     1       7.558   5.345  14.515  0.00  0.00    +0.000 OA
BRANCH  13  15
ATOM     15  O   UNL     1       6.313   3.492  14.161  0.00  0.00    +0.000 OA
ATOM     16  H   UNL     1       5.409   3.569  13.812  0.00  0.00    +0.000 HD
ENDBRANCH  13  15
ENDBRANCH  12  13
ENDBRANCH   3  11
BRANCH   8  17
ATOM     17  C   UNL     1       1.177   7.512  21.039  0.00  0.00    +0.000 C 
ATOM     18  C   UNL     1       0.274   8.724  21.288  0.00  0.00    +0.000 C 
ENDBRANCH   8  17
BRANCH  10  19
ATOM     19  O   UNL     1       2.347   4.969  21.351  0.00  0.00    +0.000 OA
ATOM     20  H   UNL     1       3.092   4.821  21.958  0.00  0.00    +0.000 HD
ENDBRANCH  10  19
BRANCH   1  21
ATOM     21  O   UNL     1       3.633   2.816  20.393  0.00  0.00    +0.000 OA
BRANCH  21  23
ATOM     22  C   UNL     1       5.299   1.173  21.057  0.00  0.00    +0.000 C 
ATOM     23  C   UNL     1       4.477   1.754  19.922  0.00  0.00    +0.000 C 
ENDBRANCH  21  23
ENDBRANCH   1  21
TORSDOF 7
ENDMDL
MODEL 7
REMARK VINA RESULT:      -6.5      2.621      6.593
REMARK  Name = 
REMARK  9 active torsions:
REMARK  status: ('A' for Active; 'I' for Inactive)
REMARK    1  A    between atoms: C_1  and  C_2
REMARK    2  A    between atoms: C_2  and  O_3
REMARK    3  A    between atoms: O_3  and  C_4
REMARK    4  A    between atoms: C_6  and  C_7
REMARK    5  A    between atoms: C_8  and  C_9
REMARK    6  A    between atoms: C_9  and  O_11
REMARK    7  A    between atoms: C_16  and  C_17
REMARK    8  A    between atoms: C_17  and  C_18
REMARK    9  A    between atoms: C_20  and  O_21
REMARK                            x       y       z     vdW  Elec       q    Type
REMARK                         _______ _______ _______ _____ _____    ______ ____
ROOT
ATOM      1  C   UNL     1       3.037   7.419  17.941  0.00  0.00    +0.000 A 
ATOM      2  C   UNL     1       3.054   6.389  18.873  0.00  0.00    +0.000 A 
ATOM      3  C   UNL     1       2.300   6.472  20.045  0.00  0.00    +0.000 A 
ATOM      4  C   UNL     1       1.517   7.617  20.331  0.00  0.00    +0.000 A 
ATOM      5  C   UNL     1       0.783   7.680  21.533  0.00  0.00    +0.000 A 
ATOM      6  C   UNL     1       0.016   8.781  21.868  0.00  0.00    +0.000 A 
ATOM      7  C   UNL     1      -0.034   9.867  21.011  0.00  0.00    +0.000 A 
ATOM      8  C   UNL     1       0.676   9.873  19.793  0.00  0.00    +0.000 A 
ATOM      9  C   UNL     1       1.470   8.715  19.416  0.00  0.00    +0.000 A 
ATOM     10  C   UNL     1       2.235   8.548  18.209  0.00  0.00    +0.000 A 
ENDROOT
BRANCH   3  11
ATOM     11  C   UNL     1       2.404   5.305  20.939  0.00  0.00    +0.000 C 
ATOM     12  C   UNL     1       1.754   4.159  20.692  0.00  0.00    +0.000 C 
BRANCH  12  13
ATOM     13  C   UNL     1       1.958   3.015  21.603  0.00  0.00    +0.000 C 
ATOM     14  O   UNL     1       3.036   2.511  21.849  0.00  0.00    +0.000 OA
BRANCH  13  15
ATOM     15  O   UNL     1       0.795   2.575  22.134  0.00  0.00    +0.000 OA
ATOM     16  H   UNL     1       0.473   1.722  21.795  0.00  0.00    +0.000 HD
ENDBRANCH  13  15
ENDBRANCH  12  13
ENDBRANCH   3  11
BRANCH   8  17
ATOM     17  C   UNL     1       0.605  11.123  18.920  0.00  0.00    +0.000 C 
ATOM     18  C   UNL     1      -0.778  11.649  18.523  0.00  0.00    +0.000 C 
ENDBRANCH   8  17
BRANCH  10  19
ATOM     19  O   UNL     1       2.187   9.516  17.233  0.00  0.00    +0.000 OA
ATOM     20  H   UNL     1       1.310   9.427  16.823  0.00  0.00    +0.000 HD
ENDBRANCH  10  19
BRANCH   1  21
ATOM     21  O   UNL     1       3.776   7.400  16.778  0.00  0.00    +0.000 OA
BRANCH  21  23
ATOM     22  C   UNL     1       5.306   5.869  15.668  0.00  0.00    +0.000 C 
ATOM     23  C   UNL     1       5.063   6.770  16.863  0.00  0.00    +0.000 C 
ENDBRANCH  21  23
ENDBRANCH   1  21
TORSDOF 7
ENDMDL
MODEL 8
REMARK VINA RESULT:      -6.5      2.503      2.998
REMARK  Name = 
REMARK  9 active torsions:
REMARK  status: ('A' for Active; 'I' for Inactive)
REMARK    1  A    between atoms: C_1  and  C_2
REMARK    2  A    between atoms: C_2  and  O_3
REMARK    3  A    between atoms: O_3  and  C_4
REMARK    4  A    between atoms: C_6  and  C_7
REMARK    5  A    between atoms: C_8  and  C_9
REMARK    6  A    between atoms: C_9  and  O_11
REMARK    7  A    between atoms: C_16  and  C_17
REMARK    8  A    between atoms: C_17  and  C_18
REMARK    9  A    between atoms: C_20  and  O_21
REMARK                            x       y       z     vdW  Elec       q    Type
REMARK                         _______ _______ _______ _____ _____    ______ ____
ROOT
ATOM      1  C   UNL     1       6.195   5.731  17.795  0.00  0.00    +0.000 A 
ATOM      2  C   UNL     1       6.158   5.260  16.488  0.00  0.00    +0.000 A 
ATOM      3  C   UNL     1       5.166   4.367  16.077  0.00  0.00    +0.000 A 
ATOM      4  C   UNL     1       4.187   3.894  16.983  0.00  0.00    +0.000 A 
ATOM      5  C   UNL     1       3.212   2.976  16.543  0.00  0.00    +0.000 A 
ATOM      6  C   UNL     1       2.243   2.471  17.392  0.00  0.00    +0.000 A 
ATOM      7  C   UNL     1       2.225   2.861  18.720  0.00  0.00    +0.000 A 
ATOM      8  C   UNL     1       3.171   3.774  19.228  0.00  0.00    +0.000 A 
ATOM      9  C   UNL     1       4.182   4.331  18.346  0.00  0.00    +0.000 A 
ATOM     10  C   UNL     1       5.204   5.283  18.693  0.00  0.00    +0.000 A 
ENDROOT
BRANCH   3  11
ATOM     11  C   UNL     1       5.241   3.959  14.663  0.00  0.00    +0.000 C 
ATOM     12  C   UNL     1       6.352   4.124  13.933  0.00  0.00    +0.000 C 
BRANCH  12  13
ATOM     13  C   UNL     1       6.368   3.635  12.539  0.00  0.00    +0.000 C 
ATOM     14  O   UNL     1       5.628   2.776  12.100  0.00  0.00    +0.000 OA
BRANCH  13  15
ATOM     15  O   UNL     1       7.317   4.248  11.796  0.00  0.00    +0.000 OA
ATOM     16  H   UNL     1       7.130   5.171  11.555  0.00  0.00    +0.000 HD
ENDBRANCH  13  15
ENDBRANCH  12  13
ENDBRANCH   3  11
BRANCH   8  17
ATOM     17  C   UNL     1       3.112   4.126  20.712  0.00  0.00    +0.000 C 
ATOM     18  C   UNL     1       2.020   3.475  21.567  0.00  0.00    +0.000 C 
ENDBRANCH   8  17
BRANCH  10  19
ATOM     19  O   UNL     1       5.229   5.823  19.958  0.00  0.00    +0.000 OA
ATOM     20  H   UNL     1       5.843   6.576  19.906  0.00  0.00    +0.000 HD
ENDBRANCH  10  19
BRANCH   1  21
ATOM     21  O   UNL     1       7.160   6.596  18.261  0.00  0.00    +0.000 OA
BRANCH  21  23
ATOM     22  C   UNL     1       8.239   8.771  18.091  0.00  0.00    +0.000 C 
ATOM     23  C   UNL     1       7.569   7.629  17.350  0.00  0.00    +0.000 C 
ENDBRANCH  21  23
ENDBRANCH   1  21
TORSDOF 7
ENDMDL
MODEL 9
REMARK VINA RESULT:      -6.4      2.145      5.574
REMARK  Name = 
REMARK  9 active torsions:
REMARK  status: ('A' for Active; 'I' for Inactive)
REMARK    1  A    between atoms: C_1  and  C_2
REMARK    2  A    between atoms: C_2  and  O_3
REMARK    3  A    between atoms: O_3  and  C_4
REMARK    4  A    between atoms: C_6  and  C_7
REMARK    5  A    between atoms: C_8  and  C_9
REMARK    6  A    between atoms: C_9  and  O_11
REMARK    7  A    between atoms: C_16  and  C_17
REMARK    8  A    between atoms: C_17  and  C_18
REMARK    9  A    between atoms: C_20  and  O_21
REMARK                            x       y       z     vdW  Elec       q    Type
REMARK                         _______ _______ _______ _____ _____    ______ ____
ROOT
ATOM      1  C   UNL     1       4.090   6.279  17.467  0.00  0.00    +0.000 A 
ATOM      2  C   UNL     1       3.438   7.195  18.283  0.00  0.00    +0.000 A 
ATOM      3  C   UNL     1       2.510   6.770  19.236  0.00  0.00    +0.000 A 
ATOM      4  C   UNL     1       2.186   5.400  19.381  0.00  0.00    +0.000 A 
ATOM      5  C   UNL     1       1.229   5.004  20.338  0.00  0.00    +0.000 A 
ATOM      6  C   UNL     1       0.865   3.680  20.508  0.00  0.00    +0.000 A 
ATOM      7  C   UNL     1       1.442   2.704  19.714  0.00  0.00    +0.000 A 
ATOM      8  C   UNL     1       2.404   3.028  18.737  0.00  0.00    +0.000 A 
ATOM      9  C   UNL     1       2.814   4.411  18.559  0.00  0.00    +0.000 A 
ATOM     10  C   UNL     1       3.790   4.910  17.628  0.00  0.00    +0.000 A 
ENDROOT
BRANCH   3  11
ATOM     11  C   UNL     1       1.903   7.846  20.039  0.00  0.00    +0.000 C 
ATOM     12  C   UNL     1       1.428   8.968  19.482  0.00  0.00    +0.000 C 
BRANCH  12  13
ATOM     13  C   UNL     1       0.779   9.974  20.347  0.00  0.00    +0.000 C 
ATOM     14  O   UNL     1      -0.029  10.797  19.964  0.00  0.00    +0.000 OA
BRANCH  13  15
ATOM     15  O   UNL     1       1.196   9.885  21.630  0.00  0.00    +0.000 OA
ATOM     16  H   UNL     1       0.587  10.247  22.297  0.00  0.00    +0.000 HD
ENDBRANCH  13  15
ENDBRANCH  12  13
ENDBRANCH   3  11
BRANCH   8  17
ATOM     17  C   UNL     1       2.965   1.902  17.873  0.00  0.00    +0.000 C 
ATOM     18  C   UNL     1       4.015   0.972  18.490  0.00  0.00    +0.000 C 
ENDBRANCH   8  17
BRANCH  10  19
ATOM     19  O   UNL     1       4.506   4.027  16.853  0.00  0.00    +0.000 OA
ATOM     20  H   UNL     1       3.855   3.623  16.254  0.00  0.00    +0.000 HD
ENDBRANCH  10  19
BRANCH   1  21
ATOM     21  O   UNL     1       5.000   6.642  16.498  0.00  0.00    +0.000 OA
BRANCH  21  23
ATOM     22  C   UNL     1       7.173   6.320  17.542  0.00  0.00    +0.000 C 
ATOM     23  C   UNL     1       6.181   7.312  16.965  0.00  0.00    +0.000 C 
ENDBRANCH  21  23
ENDBRANCH   1  21
TORSDOF 7
ENDMDL
