MODEL 1
REMARK VINA RESULT:      -6.2      0.000      0.000
REMARK  Name = 
REMARK  10 active torsions:
REMARK  status: ('A' for Active; 'I' for Inactive)
REMARK    1  A    between atoms: C_1  and  C_2
REMARK    2  A    between atoms: C_2  and  C_3
REMARK    3  A    between atoms: C_2  and  C_4
REMARK    4  A    between atoms: C_7  and  N_8
REMARK    5  A    between atoms: C_11  and  N_12
REMARK    6  A    between atoms: C_14  and  C_15
REMARK    7  A    between atoms: C_15  and  C_16
REMARK    8  A    between atoms: C_16  and  N_17
REMARK    9  A    between atoms: N_17  and  C_18
REMARK   10  A    between atoms: C_18  and  N_19
REMARK                            x       y       z     vdW  Elec       q    Type
REMARK                         _______ _______ _______ _____ _____    ______ ____
ROOT
ATOM      1  N   UNL     1      -1.935  12.141  21.627  0.00  0.00    +0.000 N 
ATOM      2  C   UNL     1      -1.946  12.341  20.266  0.00  0.00    +0.000 A 
ATOM      3  C   UNL     1      -1.212  11.366  19.635  0.00  0.00    +0.000 A 
ATOM      4  C   UNL     1      -0.688  10.530  20.661  0.00  0.00    +0.000 A 
ATOM      5  C   UNL     1       0.134   9.391  20.615  0.00  0.00    +0.000 A 
ATOM      6  C   UNL     1       0.605   8.832  21.805  0.00  0.00    +0.000 A 
ATOM      7  C   UNL     1       0.268   9.417  23.022  0.00  0.00    +0.000 A 
ATOM      8  C   UNL     1      -0.576  10.536  23.095  0.00  0.00    +0.000 A 
ATOM      9  C   UNL     1      -1.078  11.077  21.893  0.00  0.00    +0.000 A 
ENDROOT
BRANCH   1  13
ATOM     10  N   UNL     1      -1.677  15.879  21.906  0.00  0.00    +0.000 NA
ATOM     11  C   UNL     1      -2.853  15.259  21.301  0.00  0.00    +0.000 C 
ATOM     12  C   UNL     1      -3.523  14.095  22.035  0.00  0.00    +0.000 C 
ATOM     13  C   UNL     1      -2.541  13.067  22.596  0.00  0.00    +0.000 C 
ATOM     14  C   UNL     1      -1.552  13.871  23.463  0.00  0.00    +0.000 C 
ATOM     15  C   UNL     1      -0.822  14.972  22.676  0.00  0.00    +0.000 C 
BRANCH  10  19
ATOM     16  C   UNL     1       1.194  15.147  19.422  0.00  0.00    +0.000 C 
ATOM     17  C   UNL     1      -0.286  15.279  19.003  0.00  0.00    +0.000 C 
ATOM     18  C   UNL     1      -1.009  16.513  19.516  0.00  0.00    +0.000 C 
ATOM     19  C   UNL     1      -0.849  16.763  21.021  0.00  0.00    +0.000 C 
ATOM     20  C   UNL     1       0.665  16.886  21.299  0.00  0.00    +0.000 C 
ATOM     21  C   UNL     1       1.534  15.723  20.816  0.00  0.00    +0.000 C 
BRANCH  16  23
ATOM     22  C   UNL     1       2.004  13.006  20.629  0.00  0.00    +0.000 C 
ATOM     23  C   UNL     1       1.645  13.654  19.289  0.00  0.00    +0.000 C 
ATOM     24  C   UNL     1       2.828  13.492  18.324  0.00  0.00    +0.000 C 
ENDBRANCH  16  23
ENDBRANCH  10  19
ENDBRANCH   1  13
BRANCH   3  25
ATOM     25  C   UNL     1      -0.939  11.249  18.166  0.00  0.00    +0.000 C 
BRANCH  25  26
ATOM     26  C   UNL     1      -1.701  10.101  17.500  0.00  0.00    +0.000 C 
BRANCH  26  27
ATOM     27  N   UNL     1      -2.093  10.416  16.140  0.00  0.00    +0.000 N 
ATOM     28  H   UNL     1      -1.363  10.431  15.435  0.00  0.00    +0.000 HD
BRANCH  27  29
ATOM     29  C   UNL     1      -3.337  10.648  15.674  0.00  0.00    +0.000 C 
ATOM     30  S   UNL     1      -4.480  11.374  16.633  0.00  0.00    +0.000 S 
BRANCH  29  31
ATOM     31  N   UNL     1      -3.631  10.266  14.420  0.00  0.00    +0.000 N 
ATOM     32  H   UNL     1      -4.569  10.230  14.052  0.00  0.00    +0.000 HD
ATOM     33  H   UNL     1      -2.896   9.859  13.857  0.00  0.00    +0.000 HD
ENDBRANCH  29  31
ENDBRANCH  27  29
ENDBRANCH  26  27
ENDBRANCH  25  26
ENDBRANCH   3  25
TORSDOF 8
ENDMDL
MODEL 2
REMARK VINA RESULT:      -6.0      5.572      8.640
REMARK  Name = 
REMARK  10 active torsions:
REMARK  status: ('A' for Active; 'I' for Inactive)
REMARK    1  A    between atoms: C_1  and  C_2
REMARK    2  A    between atoms: C_2  and  C_3
REMARK    3  A    between atoms: C_2  and  C_4
REMARK    4  A    between atoms: C_7  and  N_8
REMARK    5  A    between atoms: C_11  and  N_12
REMARK    6  A    between atoms: C_14  and  C_15
REMARK    7  A    between atoms: C_15  and  C_16
REMARK    8  A    between atoms: C_16  and  N_17
REMARK    9  A    between atoms: N_17  and  C_18
REMARK   10  A    between atoms: C_18  and  N_19
REMARK                            x       y       z     vdW  Elec       q    Type
REMARK                         _______ _______ _______ _____ _____    ______ ____
ROOT
ATOM      1  N   UNL     1       1.765   7.240  19.963  0.00  0.00    +0.000 N 
ATOM      2  C   UNL     1       2.080   7.885  18.789  0.00  0.00    +0.000 A 
ATOM      3  C   UNL     1       1.655   9.190  18.832  0.00  0.00    +0.000 A 
ATOM      4  C   UNL     1       1.012   9.361  20.090  0.00  0.00    +0.000 A 
ATOM      5  C   UNL     1       0.382  10.471  20.678  0.00  0.00    +0.000 A 
ATOM      6  C   UNL     1      -0.286  10.320  21.896  0.00  0.00    +0.000 A 
ATOM      7  C   UNL     1      -0.335   9.070  22.505  0.00  0.00    +0.000 A 
ATOM      8  C   UNL     1       0.312   7.953  21.952  0.00  0.00    +0.000 A 
ATOM      9  C   UNL     1       1.016   8.118  20.742  0.00  0.00    +0.000 A 
ENDROOT
BRANCH   1  13
ATOM     10  N   UNL     1       3.688   4.720  17.944  0.00  0.00    +0.000 NA
ATOM     11  C   UNL     1       4.276   5.321  19.138  0.00  0.00    +0.000 C 
ATOM     12  C   UNL     1       3.440   5.371  20.418  0.00  0.00    +0.000 C 
ATOM     13  C   UNL     1       1.991   5.805  20.197  0.00  0.00    +0.000 C 
ATOM     14  C   UNL     1       1.435   4.854  19.119  0.00  0.00    +0.000 C 
ATOM     15  C   UNL     1       2.239   4.896  17.809  0.00  0.00    +0.000 C 
BRANCH  10  19
ATOM     16  C   UNL     1       7.201   6.077  17.073  0.00  0.00    +0.000 C 
ATOM     17  C   UNL     1       6.859   4.573  17.143  0.00  0.00    +0.000 C 
ATOM     18  C   UNL     1       5.625   4.142  16.371  0.00  0.00    +0.000 C 
ATOM     19  C   UNL     1       4.377   4.993  16.641  0.00  0.00    +0.000 C 
ATOM     20  C   UNL     1       4.740   6.450  16.280  0.00  0.00    +0.000 C 
ATOM     21  C   UNL     1       5.983   7.022  16.965  0.00  0.00    +0.000 C 
BRANCH  16  23
ATOM     22  C   UNL     1       7.700   5.818  19.599  0.00  0.00    +0.000 C 
ATOM     23  C   UNL     1       8.125   6.462  18.276  0.00  0.00    +0.000 C 
ATOM     24  C   UNL     1       8.221   7.982  18.469  0.00  0.00    +0.000 C 
ENDBRANCH  16  23
ENDBRANCH  10  19
ENDBRANCH   1  13
BRANCH   3  25
ATOM     25  C   UNL     1       1.765  10.213  17.743  0.00  0.00    +0.000 C 
BRANCH  25  26
ATOM     26  C   UNL     1       2.478  11.491  18.185  0.00  0.00    +0.000 C 
BRANCH  26  27
ATOM     27  N   UNL     1       1.759  12.688  17.792  0.00  0.00    +0.000 N 
ATOM     28  H   UNL     1       2.073  13.169  16.956  0.00  0.00    +0.000 HD
BRANCH  27  29
ATOM     29  C   UNL     1       0.673  13.226  18.382  0.00  0.00    +0.000 C 
ATOM     30  S   UNL     1       0.830  14.250  19.678  0.00  0.00    +0.000 S 
BRANCH  29  31
ATOM     31  N   UNL     1      -0.541  12.903  17.903  0.00  0.00    +0.000 N 
ATOM     32  H   UNL     1      -1.027  13.441  17.202  0.00  0.00    +0.000 HD
ATOM     33  H   UNL     1      -1.059  12.166  18.364  0.00  0.00    +0.000 HD
ENDBRANCH  29  31
ENDBRANCH  27  29
ENDBRANCH  26  27
ENDBRANCH  25  26
ENDBRANCH   3  25
TORSDOF 8
ENDMDL
MODEL 3
REMARK VINA RESULT:      -6.0      5.170      7.142
REMARK  Name = 
REMARK  10 active torsions:
REMARK  status: ('A' for Active; 'I' for Inactive)
REMARK    1  A    between atoms: C_1  and  C_2
REMARK    2  A    between atoms: C_2  and  C_3
REMARK    3  A    between atoms: C_2  and  C_4
REMARK    4  A    between atoms: C_7  and  N_8
REMARK    5  A    between atoms: C_11  and  N_12
REMARK    6  A    between atoms: C_14  and  C_15
REMARK    7  A    between atoms: C_15  and  C_16
REMARK    8  A    between atoms: C_16  and  N_17
REMARK    9  A    between atoms: N_17  and  C_18
REMARK   10  A    between atoms: C_18  and  N_19
REMARK                            x       y       z     vdW  Elec       q    Type
REMARK                         _______ _______ _______ _____ _____    ______ ____
ROOT
ATOM      1  N   UNL     1       1.569   7.124  20.339  0.00  0.00    +0.000 N 
ATOM      2  C   UNL     1       2.379   7.817  19.469  0.00  0.00    +0.000 A 
ATOM      3  C   UNL     1       2.862   6.977  18.495  0.00  0.00    +0.000 A 
ATOM      4  C   UNL     1       2.352   5.682  18.792  0.00  0.00    +0.000 A 
ATOM      5  C   UNL     1       2.516   4.441  18.156  0.00  0.00    +0.000 A 
ATOM      6  C   UNL     1       1.991   3.288  18.745  0.00  0.00    +0.000 A 
ATOM      7  C   UNL     1       1.325   3.379  19.963  0.00  0.00    +0.000 A 
ATOM      8  C   UNL     1       1.121   4.612  20.603  0.00  0.00    +0.000 A 
ATOM      9  C   UNL     1       1.622   5.778  19.988  0.00  0.00    +0.000 A 
ENDROOT
BRANCH   1  13
ATOM     10  N   UNL     1       0.246  10.583  20.972  0.00  0.00    +0.000 NA
ATOM     11  C   UNL     1      -0.666   9.479  20.690  0.00  0.00    +0.000 C 
ATOM     12  C   UNL     1      -0.479   8.164  21.449  0.00  0.00    +0.000 C 
ATOM     13  C   UNL     1       0.978   7.709  21.552  0.00  0.00    +0.000 C 
ATOM     14  C   UNL     1       1.739   8.902  22.162  0.00  0.00    +0.000 C 
ATOM     15  C   UNL     1       1.612  10.187  21.327  0.00  0.00    +0.000 C 
BRANCH  10  19
ATOM     16  C   UNL     1      -2.279  11.761  18.292  0.00  0.00    +0.000 C 
ATOM     17  C   UNL     1      -2.210  12.348  19.718  0.00  0.00    +0.000 C 
ATOM     18  C   UNL     1      -0.830  12.772  20.191  0.00  0.00    +0.000 C 
ATOM     19  C   UNL     1       0.263  11.715  19.988  0.00  0.00    +0.000 C 
ATOM     20  C   UNL     1       0.300  11.389  18.479  0.00  0.00    +0.000 C 
ATOM     21  C   UNL     1      -1.029  10.967  17.849  0.00  0.00    +0.000 C 
BRANCH  16  23
ATOM     22  C   UNL     1      -3.372   9.601  17.376  0.00  0.00    +0.000 C 
ATOM     23  C   UNL     1      -3.586  10.914  18.136  0.00  0.00    +0.000 C 
ATOM     24  C   UNL     1      -4.711  11.706  17.455  0.00  0.00    +0.000 C 
ENDBRANCH  16  23
ENDBRANCH  10  19
ENDBRANCH   1  13
BRANCH   3  25
ATOM     25  C   UNL     1       3.808   7.329  17.388  0.00  0.00    +0.000 C 
BRANCH  25  26
ATOM     26  C   UNL     1       5.245   6.878  17.657  0.00  0.00    +0.000 C 
BRANCH  26  27
ATOM     27  N   UNL     1       5.967   6.579  16.435  0.00  0.00    +0.000 N 
ATOM     28  H   UNL     1       5.795   7.177  15.633  0.00  0.00    +0.000 HD
BRANCH  27  29
ATOM     29  C   UNL     1       6.892   5.618  16.239  0.00  0.00    +0.000 C 
ATOM     30  S   UNL     1       7.422   4.680  17.501  0.00  0.00    +0.000 S 
BRANCH  29  31
ATOM     31  N   UNL     1       7.384   5.448  15.000  0.00  0.00    +0.000 N 
ATOM     32  H   UNL     1       6.952   4.861  14.303  0.00  0.00    +0.000 HD
ATOM     33  H   UNL     1       8.306   5.810  14.795  0.00  0.00    +0.000 HD
ENDBRANCH  29  31
ENDBRANCH  27  29
ENDBRANCH  26  27
ENDBRANCH  25  26
ENDBRANCH   3  25
TORSDOF 8
ENDMDL
MODEL 4
REMARK VINA RESULT:      -5.9      3.354      5.577
REMARK  Name = 
REMARK  10 active torsions:
REMARK  status: ('A' for Active; 'I' for Inactive)
REMARK    1  A    between atoms: C_1  and  C_2
REMARK    2  A    between atoms: C_2  and  C_3
REMARK    3  A    between atoms: C_2  and  C_4
REMARK    4  A    between atoms: C_7  and  N_8
REMARK    5  A    between atoms: C_11  and  N_12
REMARK    6  A    between atoms: C_14  and  C_15
REMARK    7  A    between atoms: C_15  and  C_16
REMARK    8  A    between atoms: C_16  and  N_17
REMARK    9  A    between atoms: N_17  and  C_18
REMARK   10  A    between atoms: C_18  and  N_19
REMARK                            x       y       z     vdW  Elec       q    Type
REMARK                         _______ _______ _______ _____ _____    ______ ____
ROOT
ATOM      1  N   UNL     1      -2.898  12.937  21.197  0.00  0.00    +0.000 N 
ATOM      2  C   UNL     1      -2.505  13.190  19.903  0.00  0.00    +0.000 A 
ATOM      3  C   UNL     1      -1.477  12.351  19.544  0.00  0.00    +0.000 A 
ATOM      4  C   UNL     1      -1.193  11.553  20.688  0.00  0.00    +0.000 A 
ATOM      5  C   UNL     1      -0.246  10.539  20.912  0.00  0.00    +0.000 A 
ATOM      6  C   UNL     1      -0.103   9.999  22.192  0.00  0.00    +0.000 A 
ATOM      7  C   UNL     1      -0.888  10.482  23.235  0.00  0.00    +0.000 A 
ATOM      8  C   UNL     1      -1.862  11.472  23.030  0.00  0.00    +0.000 A 
ATOM      9  C   UNL     1      -2.028  11.989  21.728  0.00  0.00    +0.000 A 
ENDROOT
BRANCH   1  13
ATOM     10  N   UNL     1      -6.593  13.288  20.607  0.00  0.00    +0.000 NA
ATOM     11  C   UNL     1      -6.089  12.408  21.657  0.00  0.00    +0.000 C 
ATOM     12  C   UNL     1      -5.021  12.947  22.612  0.00  0.00    +0.000 C 
ATOM     13  C   UNL     1      -3.906  13.730  21.918  0.00  0.00    +0.000 C 
ATOM     14  C   UNL     1      -4.619  14.818  21.091  0.00  0.00    +0.000 C 
ATOM     15  C   UNL     1      -5.617  14.243  20.073  0.00  0.00    +0.000 C 
BRANCH  10  19
ATOM     16  C   UNL     1      -5.500  11.259  17.504  0.00  0.00    +0.000 C 
ATOM     17  C   UNL     1      -5.929  10.613  18.839  0.00  0.00    +0.000 C 
ATOM     18  C   UNL     1      -7.240  11.113  19.420  0.00  0.00    +0.000 C 
ATOM     19  C   UNL     1      -7.362  12.641  19.495  0.00  0.00    +0.000 C 
ATOM     20  C   UNL     1      -7.185  13.176  18.056  0.00  0.00    +0.000 C 
ATOM     21  C   UNL     1      -5.915  12.737  17.327  0.00  0.00    +0.000 C 
BRANCH  16  23
ATOM     22  C   UNL     1      -3.523  11.186  15.835  0.00  0.00    +0.000 C 
ATOM     23  C   UNL     1      -3.960  11.062  17.297  0.00  0.00    +0.000 C 
ATOM     24  C   UNL     1      -3.469   9.718  17.854  0.00  0.00    +0.000 C 
ENDBRANCH  16  23
ENDBRANCH  10  19
ENDBRANCH   1  13
BRANCH   3  25
ATOM     25  C   UNL     1      -0.739  12.334  18.241  0.00  0.00    +0.000 C 
BRANCH  25  26
ATOM     26  C   UNL     1       0.325  13.428  18.135  0.00  0.00    +0.000 C 
BRANCH  26  27
ATOM     27  N   UNL     1       1.669  12.905  18.285  0.00  0.00    +0.000 N 
ATOM     28  H   UNL     1       1.833  11.945  17.998  0.00  0.00    +0.000 HD
BRANCH  27  29
ATOM     29  C   UNL     1       2.764  13.561  18.720  0.00  0.00    +0.000 C 
ATOM     30  S   UNL     1       2.930  13.967  20.320  0.00  0.00    +0.000 S 
BRANCH  29  31
ATOM     31  N   UNL     1       3.711  13.889  17.824  0.00  0.00    +0.000 N 
ATOM     32  H   UNL     1       4.016  13.278  17.083  0.00  0.00    +0.000 HD
ATOM     33  H   UNL     1       4.247  14.733  17.980  0.00  0.00    +0.000 HD
ENDBRANCH  29  31
ENDBRANCH  27  29
ENDBRANCH  26  27
ENDBRANCH  25  26
ENDBRANCH   3  25
TORSDOF 8
ENDMDL
MODEL 5
REMARK VINA RESULT:      -5.8      5.229      7.365
REMARK  Name = 
REMARK  10 active torsions:
REMARK  status: ('A' for Active; 'I' for Inactive)
REMARK    1  A    between atoms: C_1  and  C_2
REMARK    2  A    between atoms: C_2  and  C_3
REMARK    3  A    between atoms: C_2  and  C_4
REMARK    4  A    between atoms: C_7  and  N_8
REMARK    5  A    between atoms: C_11  and  N_12
REMARK    6  A    between atoms: C_14  and  C_15
REMARK    7  A    between atoms: C_15  and  C_16
REMARK    8  A    between atoms: C_16  and  N_17
REMARK    9  A    between atoms: N_17  and  C_18
REMARK   10  A    between atoms: C_18  and  N_19
REMARK                            x       y       z     vdW  Elec       q    Type
REMARK                         _______ _______ _______ _____ _____    ______ ____
ROOT
ATOM      1  N   UNL     1       1.721   7.312  20.094  0.00  0.00    +0.000 N 
ATOM      2  C   UNL     1       2.523   7.851  19.115  0.00  0.00    +0.000 A 
ATOM      3  C   UNL     1       3.033   6.857  18.315  0.00  0.00    +0.000 A 
ATOM      4  C   UNL     1       2.547   5.628  18.843  0.00  0.00    +0.000 A 
ATOM      5  C   UNL     1       2.743   4.295  18.447  0.00  0.00    +0.000 A 
ATOM      6  C   UNL     1       2.237   3.259  19.236  0.00  0.00    +0.000 A 
ATOM      7  C   UNL     1       1.557   3.558  20.413  0.00  0.00    +0.000 A 
ATOM      8  C   UNL     1       1.322   4.883  20.814  0.00  0.00    +0.000 A 
ATOM      9  C   UNL     1       1.804   5.926  19.996  0.00  0.00    +0.000 A 
ENDROOT
BRANCH   1  13
ATOM     10  N   UNL     1      -0.347  10.447  19.948  0.00  0.00    +0.000 NA
ATOM     11  C   UNL     1      -0.984   9.144  20.116  0.00  0.00    +0.000 C 
ATOM     12  C   UNL     1      -0.421   8.186  21.169  0.00  0.00    +0.000 C 
ATOM     13  C   UNL     1       1.106   8.098  21.175  0.00  0.00    +0.000 C 
ATOM     14  C   UNL     1       1.602   9.550  21.315  0.00  0.00    +0.000 C 
ATOM     15  C   UNL     1       1.098  10.468  20.189  0.00  0.00    +0.000 C 
BRANCH  10  19
ATOM     16  C   UNL     1      -3.698  11.656  18.447  0.00  0.00    +0.000 C 
ATOM     17  C   UNL     1      -2.790  12.538  19.331  0.00  0.00    +0.000 C 
ATOM     18  C   UNL     1      -1.325  12.584  18.930  0.00  0.00    +0.000 C 
ATOM     19  C   UNL     1      -0.686  11.208  18.701  0.00  0.00    +0.000 C 
ATOM     20  C   UNL     1      -1.512  10.506  17.600  0.00  0.00    +0.000 C 
ATOM     21  C   UNL     1      -3.017  10.403  17.851  0.00  0.00    +0.000 C 
BRANCH  16  23
ATOM     22  C   UNL     1      -6.203  11.013  18.332  0.00  0.00    +0.000 C 
ATOM     23  C   UNL     1      -4.998  11.285  19.237  0.00  0.00    +0.000 C 
ATOM     24  C   UNL     1      -5.379  12.363  20.263  0.00  0.00    +0.000 C 
ENDBRANCH  16  23
ENDBRANCH  10  19
ENDBRANCH   1  13
BRANCH   3  25
ATOM     25  C   UNL     1       3.982   7.020  17.167  0.00  0.00    +0.000 C 
BRANCH  25  26
ATOM     26  C   UNL     1       5.414   6.599  17.504  0.00  0.00    +0.000 C 
BRANCH  26  27
ATOM     27  N   UNL     1       6.244   6.475  16.322  0.00  0.00    +0.000 N 
ATOM     28  H   UNL     1       6.699   7.315  15.979  0.00  0.00    +0.000 HD
BRANCH  27  29
ATOM     29  C   UNL     1       6.533   5.353  15.632  0.00  0.00    +0.000 C 
ATOM     30  S   UNL     1       5.722   3.938  15.935  0.00  0.00    +0.000 S 
BRANCH  29  31
ATOM     31  N   UNL     1       7.503   5.406  14.703  0.00  0.00    +0.000 N 
ATOM     32  H   UNL     1       7.353   5.713  13.755  0.00  0.00    +0.000 HD
ATOM     33  H   UNL     1       8.398   4.985  14.919  0.00  0.00    +0.000 HD
ENDBRANCH  29  31
ENDBRANCH  27  29
ENDBRANCH  26  27
ENDBRANCH  25  26
ENDBRANCH   3  25
TORSDOF 8
ENDMDL
MODEL 6
REMARK VINA RESULT:      -5.8      5.130      6.991
REMARK  Name = 
REMARK  10 active torsions:
REMARK  status: ('A' for Active; 'I' for Inactive)
REMARK    1  A    between atoms: C_1  and  C_2
REMARK    2  A    between atoms: C_2  and  C_3
REMARK    3  A    between atoms: C_2  and  C_4
REMARK    4  A    between atoms: C_7  and  N_8
REMARK    5  A    between atoms: C_11  and  N_12
REMARK    6  A    between atoms: C_14  and  C_15
REMARK    7  A    between atoms: C_15  and  C_16
REMARK    8  A    between atoms: C_16  and  N_17
REMARK    9  A    between atoms: N_17  and  C_18
REMARK   10  A    between atoms: C_18  and  N_19
REMARK                            x       y       z     vdW  Elec       q    Type
REMARK                         _______ _______ _______ _____ _____    ______ ____
ROOT
ATOM      1  N   UNL     1       1.632   7.239  20.259  0.00  0.00    +0.000 N 
ATOM      2  C   UNL     1       2.391   7.901  19.321  0.00  0.00    +0.000 A 
ATOM      3  C   UNL     1       2.842   7.023  18.366  0.00  0.00    +0.000 A 
ATOM      4  C   UNL     1       2.365   5.737  18.745  0.00  0.00    +0.000 A 
ATOM      5  C   UNL     1       2.519   4.469  18.159  0.00  0.00    +0.000 A 
ATOM      6  C   UNL     1       2.039   3.339  18.824  0.00  0.00    +0.000 A 
ATOM      7  C   UNL     1       1.427   3.478  20.067  0.00  0.00    +0.000 A 
ATOM      8  C   UNL     1       1.234   4.737  20.658  0.00  0.00    +0.000 A 
ATOM      9  C   UNL     1       1.689   5.879  19.967  0.00  0.00    +0.000 A 
ENDROOT
BRANCH   1  13
ATOM     10  N   UNL     1      -0.071  10.558  20.709  0.00  0.00    +0.000 NA
ATOM     11  C   UNL     1      -0.852   9.327  20.630  0.00  0.00    +0.000 C 
ATOM     12  C   UNL     1      -0.419   8.132  21.483  0.00  0.00    +0.000 C 
ATOM     13  C   UNL     1       1.087   7.872  21.469  0.00  0.00    +0.000 C 
ATOM     14  C   UNL     1       1.740   9.207  21.879  0.00  0.00    +0.000 C 
ATOM     15  C   UNL     1       1.363  10.371  20.947  0.00  0.00    +0.000 C 
BRANCH  10  19
ATOM     16  C   UNL     1      -2.330  13.687  20.488  0.00  0.00    +0.000 C 
ATOM     17  C   UNL     1      -0.844  13.734  20.902  0.00  0.00    +0.000 C 
ATOM     18  C   UNL     1       0.120  13.006  19.980  0.00  0.00    +0.000 C 
ATOM     19  C   UNL     1      -0.298  11.572  19.628  0.00  0.00    +0.000 C 
ATOM     20  C   UNL     1      -1.693  11.660  18.969  0.00  0.00    +0.000 C 
ATOM     21  C   UNL     1      -2.771  12.390  19.772  0.00  0.00    +0.000 C 
BRANCH  16  23
ATOM     22  C   UNL     1      -2.454  14.581  22.914  0.00  0.00    +0.000 C 
ATOM     23  C   UNL     1      -3.231  13.994  21.731  0.00  0.00    +0.000 C 
ATOM     24  C   UNL     1      -4.002  12.755  22.207  0.00  0.00    +0.000 C 
ENDBRANCH  16  23
ENDBRANCH  10  19
ENDBRANCH   1  13
BRANCH   3  25
ATOM     25  C   UNL     1       3.732   7.335  17.201  0.00  0.00    +0.000 C 
BRANCH  25  26
ATOM     26  C   UNL     1       5.192   6.946  17.437  0.00  0.00    +0.000 C 
BRANCH  26  27
ATOM     27  N   UNL     1       5.828   6.439  16.237  0.00  0.00    +0.000 N 
ATOM     28  H   UNL     1       5.528   6.827  15.349  0.00  0.00    +0.000 HD
BRANCH  27  29
ATOM     29  C   UNL     1       6.823   5.532  16.152  0.00  0.00    +0.000 C 
ATOM     30  S   UNL     1       7.332   4.703  17.496  0.00  0.00    +0.000 S 
BRANCH  29  31
ATOM     31  N   UNL     1       7.400   5.327  14.956  0.00  0.00    +0.000 N 
ATOM     32  H   UNL     1       8.363   5.050  14.839  0.00  0.00    +0.000 HD
ATOM     33  H   UNL     1       6.892   5.597  14.124  0.00  0.00    +0.000 HD
ENDBRANCH  29  31
ENDBRANCH  27  29
ENDBRANCH  26  27
ENDBRANCH  25  26
ENDBRANCH   3  25
TORSDOF 8
ENDMDL
MODEL 7
REMARK VINA RESULT:      -5.7      2.396      4.703
REMARK  Name = 
REMARK  10 active torsions:
REMARK  status: ('A' for Active; 'I' for Inactive)
REMARK    1  A    between atoms: C_1  and  C_2
REMARK    2  A    between atoms: C_2  and  C_3
REMARK    3  A    between atoms: C_2  and  C_4
REMARK    4  A    between atoms: C_7  and  N_8
REMARK    5  A    between atoms: C_11  and  N_12
REMARK    6  A    between atoms: C_14  and  C_15
REMARK    7  A    between atoms: C_15  and  C_16
REMARK    8  A    between atoms: C_16  and  N_17
REMARK    9  A    between atoms: N_17  and  C_18
REMARK   10  A    between atoms: C_18  and  N_19
REMARK                            x       y       z     vdW  Elec       q    Type
REMARK                         _______ _______ _______ _____ _____    ______ ____
ROOT
ATOM      1  N   UNL     1      -1.384  11.701  21.922  0.00  0.00    +0.000 N 
ATOM      2  C   UNL     1      -1.691  12.132  20.652  0.00  0.00    +0.000 A 
ATOM      3  C   UNL     1      -1.094  11.321  19.716  0.00  0.00    +0.000 A 
ATOM      4  C   UNL     1      -0.350  10.350  20.442  0.00  0.00    +0.000 A 
ATOM      5  C   UNL     1       0.460   9.282  20.021  0.00  0.00    +0.000 A 
ATOM      6  C   UNL     1       1.184   8.551  20.966  0.00  0.00    +0.000 A 
ATOM      7  C   UNL     1       1.109   8.898  22.312  0.00  0.00    +0.000 A 
ATOM      8  C   UNL     1       0.283   9.941  22.760  0.00  0.00    +0.000 A 
ATOM      9  C   UNL     1      -0.474  10.654  21.807  0.00  0.00    +0.000 A 
ENDROOT
BRANCH   1  13
ATOM     10  N   UNL     1      -3.995  14.349  22.458  0.00  0.00    +0.000 NA
ATOM     11  C   UNL     1      -4.265  12.958  22.811  0.00  0.00    +0.000 C 
ATOM     12  C   UNL     1      -3.218  12.195  23.625  0.00  0.00    +0.000 C 
ATOM     13  C   UNL     1      -1.781  12.411  23.147  0.00  0.00    +0.000 C 
ATOM     14  C   UNL     1      -1.577  13.938  23.133  0.00  0.00    +0.000 C 
ATOM     15  C   UNL     1      -2.583  14.671  22.231  0.00  0.00    +0.000 C 
BRANCH  10  19
ATOM     16  C   UNL     1      -7.312  13.230  20.818  0.00  0.00    +0.000 C 
ATOM     17  C   UNL     1      -7.235  14.217  22.003  0.00  0.00    +0.000 C 
ATOM     18  C   UNL     1      -6.261  15.370  21.837  0.00  0.00    +0.000 C 
ATOM     19  C   UNL     1      -4.854  14.954  21.388  0.00  0.00    +0.000 C 
ATOM     20  C   UNL     1      -5.014  14.203  20.048  0.00  0.00    +0.000 C 
ATOM     21  C   UNL     1      -5.987  13.023  20.051  0.00  0.00    +0.000 C 
BRANCH  16  23
ATOM     22  C   UNL     1      -7.891  11.707  22.829  0.00  0.00    +0.000 C 
ATOM     23  C   UNL     1      -7.915  11.870  21.307  0.00  0.00    +0.000 C 
ATOM     24  C   UNL     1      -7.217  10.663  20.664  0.00  0.00    +0.000 C 
ENDBRANCH  16  23
ENDBRANCH  10  19
ENDBRANCH   1  13
BRANCH   3  25
ATOM     25  C   UNL     1      -1.142  11.475  18.227  0.00  0.00    +0.000 C 
BRANCH  25  26
ATOM     26  C   UNL     1      -1.510  10.181  17.498  0.00  0.00    +0.000 C 
BRANCH  26  27
ATOM     27  N   UNL     1      -2.915  10.130  17.141  0.00  0.00    +0.000 N 
ATOM     28  H   UNL     1      -3.525   9.565  17.722  0.00  0.00    +0.000 HD
BRANCH  27  29
ATOM     29  C   UNL     1      -3.535  10.791  16.142  0.00  0.00    +0.000 C 
ATOM     30  S   UNL     1      -3.468  10.228  14.583  0.00  0.00    +0.000 S 
BRANCH  29  31
ATOM     31  N   UNL     1      -4.197  11.922  16.438  0.00  0.00    +0.000 N 
ATOM     32  H   UNL     1      -3.936  12.831  16.089  0.00  0.00    +0.000 HD
ATOM     33  H   UNL     1      -4.908  11.888  17.158  0.00  0.00    +0.000 HD
ENDBRANCH  29  31
ENDBRANCH  27  29
ENDBRANCH  26  27
ENDBRANCH  25  26
ENDBRANCH   3  25
TORSDOF 8
ENDMDL
MODEL 8
REMARK VINA RESULT:      -5.7      5.179      7.263
REMARK  Name = 
REMARK  10 active torsions:
REMARK  status: ('A' for Active; 'I' for Inactive)
REMARK    1  A    between atoms: C_1  and  C_2
REMARK    2  A    between atoms: C_2  and  C_3
REMARK    3  A    between atoms: C_2  and  C_4
REMARK    4  A    between atoms: C_7  and  N_8
REMARK    5  A    between atoms: C_11  and  N_12
REMARK    6  A    between atoms: C_14  and  C_15
REMARK    7  A    between atoms: C_15  and  C_16
REMARK    8  A    between atoms: C_16  and  N_17
REMARK    9  A    between atoms: N_17  and  C_18
REMARK   10  A    between atoms: C_18  and  N_19
REMARK                            x       y       z     vdW  Elec       q    Type
REMARK                         _______ _______ _______ _____ _____    ______ ____
ROOT
ATOM      1  N   UNL     1       1.550   6.997  20.356  0.00  0.00    +0.000 N 
ATOM      2  C   UNL     1       2.372   7.666  19.479  0.00  0.00    +0.000 A 
ATOM      3  C   UNL     1       2.792   6.822  18.480  0.00  0.00    +0.000 A 
ATOM      4  C   UNL     1       2.228   5.547  18.767  0.00  0.00    +0.000 A 
ATOM      5  C   UNL     1       2.318   4.311  18.106  0.00  0.00    +0.000 A 
ATOM      6  C   UNL     1       1.752   3.174  18.688  0.00  0.00    +0.000 A 
ATOM      7  C   UNL     1       1.118   3.275  19.923  0.00  0.00    +0.000 A 
ATOM      8  C   UNL     1       0.988   4.505  20.588  0.00  0.00    +0.000 A 
ATOM      9  C   UNL     1       1.530   5.656  19.980  0.00  0.00    +0.000 A 
ENDROOT
BRANCH   1  13
ATOM     10  N   UNL     1       0.288  10.469  21.042  0.00  0.00    +0.000 NA
ATOM     11  C   UNL     1      -0.646   9.373  20.798  0.00  0.00    +0.000 C 
ATOM     12  C   UNL     1      -0.440   8.056  21.549  0.00  0.00    +0.000 C 
ATOM     13  C   UNL     1       1.015   7.587  21.592  0.00  0.00    +0.000 C 
ATOM     14  C   UNL     1       1.813   8.773  22.169  0.00  0.00    +0.000 C 
ATOM     15  C   UNL     1       1.663  10.059  21.339  0.00  0.00    +0.000 C 
BRANCH  10  19
ATOM     16  C   UNL     1      -1.563  11.003  17.690  0.00  0.00    +0.000 C 
ATOM     17  C   UNL     1      -2.084  11.525  19.047  0.00  0.00    +0.000 C 
ATOM     18  C   UNL     1      -1.080  12.299  19.884  0.00  0.00    +0.000 C 
ATOM     19  C   UNL     1       0.275  11.600  20.058  0.00  0.00    +0.000 C 
ATOM     20  C   UNL     1       0.843  11.362  18.641  0.00  0.00    +0.000 C 
ATOM     21  C   UNL     1      -0.068  10.611  17.669  0.00  0.00    +0.000 C 
BRANCH  16  23
ATOM     22  C   UNL     1      -2.765   9.880  15.692  0.00  0.00    +0.000 C 
ATOM     23  C   UNL     1      -2.475   9.830  17.195  0.00  0.00    +0.000 C 
ATOM     24  C   UNL     1      -3.805   9.769  17.959  0.00  0.00    +0.000 C 
ENDBRANCH  16  23
ENDBRANCH  10  19
ENDBRANCH   1  13
BRANCH   3  25
ATOM     25  C   UNL     1       3.729   7.148  17.357  0.00  0.00    +0.000 C 
BRANCH  25  26
ATOM     26  C   UNL     1       5.194   6.865  17.692  0.00  0.00    +0.000 C 
BRANCH  26  27
ATOM     27  N   UNL     1       5.513   5.452  17.621  0.00  0.00    +0.000 N 
ATOM     28  H   UNL     1       4.824   4.799  17.982  0.00  0.00    +0.000 HD
BRANCH  27  29
ATOM     29  C   UNL     1       6.609   4.880  17.083  0.00  0.00    +0.000 C 
ATOM     30  S   UNL     1       6.839   4.867  15.440  0.00  0.00    +0.000 S 
BRANCH  29  31
ATOM     31  N   UNL     1       7.503   4.311  17.909  0.00  0.00    +0.000 N 
ATOM     32  H   UNL     1       8.463   4.133  17.657  0.00  0.00    +0.000 HD
ATOM     33  H   UNL     1       7.169   3.910  18.776  0.00  0.00    +0.000 HD
ENDBRANCH  29  31
ENDBRANCH  27  29
ENDBRANCH  26  27
ENDBRANCH  25  26
ENDBRANCH   3  25
TORSDOF 8
ENDMDL
MODEL 9
REMARK VINA RESULT:      -5.7      4.059      6.472
REMARK  Name = 
REMARK  10 active torsions:
REMARK  status: ('A' for Active; 'I' for Inactive)
REMARK    1  A    between atoms: C_1  and  C_2
REMARK    2  A    between atoms: C_2  and  C_3
REMARK    3  A    between atoms: C_2  and  C_4
REMARK    4  A    between atoms: C_7  and  N_8
REMARK    5  A    between atoms: C_11  and  N_12
REMARK    6  A    between atoms: C_14  and  C_15
REMARK    7  A    between atoms: C_15  and  C_16
REMARK    8  A    between atoms: C_16  and  N_17
REMARK    9  A    between atoms: N_17  and  C_18
REMARK   10  A    between atoms: C_18  and  N_19
REMARK                            x       y       z     vdW  Elec       q    Type
REMARK                         _______ _______ _______ _____ _____    ______ ____
ROOT
ATOM      1  N   UNL     1      -0.235  10.753  19.330  0.00  0.00    +0.000 N 
ATOM      2  C   UNL     1       0.625   9.818  18.801  0.00  0.00    +0.000 A 
ATOM      3  C   UNL     1       1.014   8.925  19.770  0.00  0.00    +0.000 A 
ATOM      4  C   UNL     1       0.388   9.344  20.977  0.00  0.00    +0.000 A 
ATOM      5  C   UNL     1       0.426   8.826  22.282  0.00  0.00    +0.000 A 
ATOM      6  C   UNL     1      -0.199   9.522  23.320  0.00  0.00    +0.000 A 
ATOM      7  C   UNL     1      -0.838  10.729  23.053  0.00  0.00    +0.000 A 
ATOM      8  C   UNL     1      -0.916  11.252  21.752  0.00  0.00    +0.000 A 
ATOM      9  C   UNL     1      -0.315  10.528  20.702  0.00  0.00    +0.000 A 
ENDROOT
BRANCH   1  13
ATOM     10  N   UNL     1      -3.753  12.010  18.931  0.00  0.00    +0.000 NA
ATOM     11  C   UNL     1      -2.840  12.645  19.878  0.00  0.00    +0.000 C 
ATOM     12  C   UNL     1      -1.431  13.005  19.404  0.00  0.00    +0.000 C 
ATOM     13  C   UNL     1      -0.753  11.908  18.581  0.00  0.00    +0.000 C 
ATOM     14  C   UNL     1      -1.737  11.581  17.441  0.00  0.00    +0.000 C 
ATOM     15  C   UNL     1      -3.116  11.130  17.947  0.00  0.00    +0.000 C 
BRANCH  10  19
ATOM     16  C   UNL     1      -7.517  12.862  18.697  0.00  0.00    +0.000 C 
ATOM     17  C   UNL     1      -6.811  11.846  17.772  0.00  0.00    +0.000 C 
ATOM     18  C   UNL     1      -5.962  10.799  18.471  0.00  0.00    +0.000 C 
ATOM     19  C   UNL     1      -4.978  11.363  19.504  0.00  0.00    +0.000 C 
ATOM     20  C   UNL     1      -5.815  12.141  20.544  0.00  0.00    +0.000 C 
ATOM     21  C   UNL     1      -6.744  13.222  19.986  0.00  0.00    +0.000 C 
BRANCH  16  23
ATOM     22  C   UNL     1      -6.991  14.381  16.670  0.00  0.00    +0.000 C 
ATOM     23  C   UNL     1      -7.900  14.140  17.878  0.00  0.00    +0.000 C 
ATOM     24  C   UNL     1      -7.917  15.403  18.751  0.00  0.00    +0.000 C 
ENDBRANCH  16  23
ENDBRANCH  10  19
ENDBRANCH   1  13
BRANCH   3  25
ATOM     25  C   UNL     1       1.976   7.787  19.614  0.00  0.00    +0.000 C 
BRANCH  25  26
ATOM     26  C   UNL     1       2.567   7.683  18.208  0.00  0.00    +0.000 C 
BRANCH  26  27
ATOM     27  N   UNL     1       3.084   6.359  17.923  0.00  0.00    +0.000 N 
ATOM     28  H   UNL     1       3.925   6.297  17.359  0.00  0.00    +0.000 HD
BRANCH  27  29
ATOM     29  C   UNL     1       2.605   5.176  18.360  0.00  0.00    +0.000 C 
ATOM     30  S   UNL     1       3.276   4.425  19.679  0.00  0.00    +0.000 S 
BRANCH  29  31
ATOM     31  N   UNL     1       1.582   4.615  17.694  0.00  0.00    +0.000 N 
ATOM     32  H   UNL     1       0.880   4.038  18.131  0.00  0.00    +0.000 HD
ATOM     33  H   UNL     1       1.588   4.653  16.683  0.00  0.00    +0.000 HD
ENDBRANCH  29  31
ENDBRANCH  27  29
ENDBRANCH  26  27
ENDBRANCH  25  26
ENDBRANCH   3  25
TORSDOF 8
ENDMDL
