MODEL 1
REMARK VINA RESULT:      -9.4      0.000      0.000
REMARK  Name = 
REMARK  6 active torsions:
REMARK  status: ('A' for Active; 'I' for Inactive)
REMARK    1  A    between atoms: N_3  and  C_4
REMARK    2  A    between atoms: C_4  and  C_5
REMARK    3  A    between atoms: N_10  and  C_11
REMARK    4  A    between atoms: C_13  and  N_14
REMARK    5  A    between atoms: C_20  and  N_21
REMARK    6  A    between atoms: C_26  and  N_27
REMARK                            x       y       z     vdW  Elec       q    Type
REMARK                         _______ _______ _______ _____ _____    ______ ____
ROOT
ATOM      1  C   UNL     1       3.590   6.759  17.846  0.00  0.00    +0.000 A 
ATOM      2  C   UNL     1       3.373   5.589  18.591  0.00  0.00    +0.000 A 
ATOM      3  C   UNL     1       2.411   5.516  19.584  0.00  0.00    +0.000 A 
ATOM      4  C   UNL     1       1.645   6.680  19.799  0.00  0.00    +0.000 A 
ATOM      5  C   UNL     1       1.896   7.947  19.106  0.00  0.00    +0.000 A 
ATOM      6  C   UNL     1       2.805   7.930  18.050  0.00  0.00    +0.000 A 
ENDROOT
BRANCH   5   7
ATOM      7  N   UNL     1       1.278   9.162  19.656  0.00  0.00    +0.000 N 
ATOM      8  C   UNL     1       1.007  10.163  18.733  0.00  0.00    +0.000 A 
ATOM      9  N   UNL     1       1.016  11.350  19.255  0.00  0.00    +0.000 NA
ATOM     10  C   UNL     1       0.625  11.086  20.520  0.00  0.00    +0.000 A 
ATOM     11  C   UNL     1       0.071  12.070  21.352  0.00  0.00    +0.000 A 
ATOM     12  C   UNL     1      -0.676  11.720  22.459  0.00  0.00    +0.000 A 
ATOM     13  C   UNL     1      -0.706  10.371  22.822  0.00  0.00    +0.000 A 
ATOM     14  C   UNL     1       0.003   9.335  22.051  0.00  0.00    +0.000 A 
ATOM     15  C   UNL     1       0.638   9.702  20.823  0.00  0.00    +0.000 A 
BRANCH  12  16
ATOM     16  N   UNL     1      -1.447  12.801  23.081  0.00  0.00    +0.000 N 
ATOM     17  C   UNL     1      -2.839  12.874  23.162  0.00  0.00    +0.000 A 
ATOM     18  C   UNL     1      -3.179  13.959  23.926  0.00  0.00    +0.000 A 
ATOM     19  C   UNL     1      -1.932  14.528  24.258  0.00  0.00    +0.000 A 
ATOM     20  N   UNL     1      -0.888  13.854  23.741  0.00  0.00    +0.000 NA
ENDBRANCH  12  16
ENDBRANCH   5   7
BRANCH   1  24
ATOM     21  O   UNL     1       5.325   4.555  16.940  0.00  0.00    +0.000 OA
ATOM     22  C   UNL     1       5.445   5.713  16.555  0.00  0.00    +0.000 C 
ATOM     23  N   UNL     1       6.437   6.074  15.682  0.00  0.00    +0.000 N 
ATOM     24  N   UNL     1       4.661   6.799  16.921  0.00  0.00    +0.000 N 
ATOM     25  H   UNL     1       6.670   7.046  15.570  0.00  0.00    +0.000 HD
ATOM     26  H   UNL     1       5.019   7.709  16.678  0.00  0.00    +0.000 HD
BRANCH  23  27
ATOM     27  C   UNL     1       7.464   5.134  15.290  0.00  0.00    +0.000 C 
BRANCH  27  28
ATOM     28  C   UNL     1       7.168   4.679  13.912  0.00  0.00    +0.000 A 
ATOM     29  C   UNL     1       7.674   5.027  12.677  0.00  0.00    +0.000 A 
ATOM     30  C   UNL     1       7.001   4.221  11.730  0.00  0.00    +0.000 A 
ATOM     31  C   UNL     1       6.130   3.433  12.443  0.00  0.00    +0.000 A 
ATOM     32  O   UNL     1       6.220   3.703  13.771  0.00  0.00    +0.000 OA
ENDBRANCH  27  28
ENDBRANCH  23  27
ENDBRANCH   1  24
BRANCH   3  33
ATOM     33  N   UNL     1       2.303   4.300  20.347  0.00  0.00    +0.000 N 
ATOM     34  C   UNL     1       1.154   3.803  20.959  0.00  0.00    +0.000 A 
ATOM     35  C   UNL     1       1.486   2.653  21.630  0.00  0.00    +0.000 A 
ATOM     36  C   UNL     1       2.857   2.506  21.377  0.00  0.00    +0.000 A 
ATOM     37  N   UNL     1       3.350   3.452  20.564  0.00  0.00    +0.000 NA
ENDBRANCH   3  33
TORSDOF 6
ENDMDL
MODEL 2
REMARK VINA RESULT:      -8.4      4.737     11.082
REMARK  Name = 
REMARK  6 active torsions:
REMARK  status: ('A' for Active; 'I' for Inactive)
REMARK    1  A    between atoms: N_3  and  C_4
REMARK    2  A    between atoms: C_4  and  C_5
REMARK    3  A    between atoms: N_10  and  C_11
REMARK    4  A    between atoms: C_13  and  N_14
REMARK    5  A    between atoms: C_20  and  N_21
REMARK    6  A    between atoms: C_26  and  N_27
REMARK                            x       y       z     vdW  Elec       q    Type
REMARK                         _______ _______ _______ _____ _____    ______ ____
ROOT
ATOM      1  C   UNL     1      -1.165  12.569  19.333  0.00  0.00    +0.000 A 
ATOM      2  C   UNL     1      -0.298  13.569  19.800  0.00  0.00    +0.000 A 
ATOM      3  C   UNL     1       1.023  13.309  20.119  0.00  0.00    +0.000 A 
ATOM      4  C   UNL     1       1.462  11.982  19.934  0.00  0.00    +0.000 A 
ATOM      5  C   UNL     1       0.571  10.890  19.532  0.00  0.00    +0.000 A 
ATOM      6  C   UNL     1      -0.719  11.231  19.128  0.00  0.00    +0.000 A 
ENDROOT
BRANCH   5   7
ATOM      7  N   UNL     1       1.052   9.513  19.711  0.00  0.00    +0.000 N 
ATOM      8  C   UNL     1       0.549   8.843  20.817  0.00  0.00    +0.000 A 
ATOM      9  N   UNL     1       1.353   7.930  21.267  0.00  0.00    +0.000 NA
ATOM     10  C   UNL     1       1.993   7.561  20.136  0.00  0.00    +0.000 A 
ATOM     11  C   UNL     1       2.643   6.324  20.016  0.00  0.00    +0.000 A 
ATOM     12  C   UNL     1       2.934   5.798  18.773  0.00  0.00    +0.000 A 
ATOM     13  C   UNL     1       2.727   6.614  17.658  0.00  0.00    +0.000 A 
ATOM     14  C   UNL     1       2.192   7.981  17.774  0.00  0.00    +0.000 A 
ATOM     15  C   UNL     1       1.753   8.444  19.055  0.00  0.00    +0.000 A 
BRANCH  12  16
ATOM     16  N   UNL     1       3.337   4.388  18.752  0.00  0.00    +0.000 N 
ATOM     17  C   UNL     1       3.923   3.686  19.806  0.00  0.00    +0.000 A 
ATOM     18  C   UNL     1       4.033   2.367  19.450  0.00  0.00    +0.000 A 
ATOM     19  C   UNL     1       3.517   2.340  18.138  0.00  0.00    +0.000 A 
ATOM     20  N   UNL     1       3.116   3.548  17.701  0.00  0.00    +0.000 NA
ENDBRANCH  12  16
ENDBRANCH   5   7
BRANCH   1  24
ATOM     21  O   UNL     1      -3.390  12.440  21.261  0.00  0.00    +0.000 OA
ATOM     22  C   UNL     1      -3.528  12.777  20.090  0.00  0.00    +0.000 C 
ATOM     23  N   UNL     1      -4.759  13.093  19.580  0.00  0.00    +0.000 N 
ATOM     24  N   UNL     1      -2.531  12.878  19.128  0.00  0.00    +0.000 N 
ATOM     25  H   UNL     1      -4.889  13.128  18.583  0.00  0.00    +0.000 HD
ATOM     26  H   UNL     1      -2.840  12.965  18.173  0.00  0.00    +0.000 HD
BRANCH  23  27
ATOM     27  C   UNL     1      -5.961  12.908  20.363  0.00  0.00    +0.000 C 
BRANCH  27  28
ATOM     28  C   UNL     1      -6.492  11.556  20.077  0.00  0.00    +0.000 A 
ATOM     29  C   UNL     1      -6.449  10.745  18.962  0.00  0.00    +0.000 A 
ATOM     30  C   UNL     1      -7.122   9.551  19.312  0.00  0.00    +0.000 A 
ATOM     31  C   UNL     1      -7.531   9.707  20.615  0.00  0.00    +0.000 A 
ATOM     32  O   UNL     1      -7.156  10.922  21.091  0.00  0.00    +0.000 OA
ENDBRANCH  27  28
ENDBRANCH  23  27
ENDBRANCH   1  24
BRANCH   3  33
ATOM     33  N   UNL     1       1.822  14.378  20.659  0.00  0.00    +0.000 N 
ATOM     34  C   UNL     1       1.723  14.924  21.937  0.00  0.00    +0.000 A 
ATOM     35  C   UNL     1       2.622  15.956  22.037  0.00  0.00    +0.000 A 
ATOM     36  C   UNL     1       3.242  15.976  20.780  0.00  0.00    +0.000 A 
ATOM     37  N   UNL     1       2.815  15.002  19.962  0.00  0.00    +0.000 NA
ENDBRANCH   3  33
TORSDOF 6
ENDMDL
MODEL 3
REMARK VINA RESULT:      -8.4      1.328      1.866
REMARK  Name = 
REMARK  6 active torsions:
REMARK  status: ('A' for Active; 'I' for Inactive)
REMARK    1  A    between atoms: N_3  and  C_4
REMARK    2  A    between atoms: C_4  and  C_5
REMARK    3  A    between atoms: N_10  and  C_11
REMARK    4  A    between atoms: C_13  and  N_14
REMARK    5  A    between atoms: C_20  and  N_21
REMARK    6  A    between atoms: C_26  and  N_27
REMARK                            x       y       z     vdW  Elec       q    Type
REMARK                         _______ _______ _______ _____ _____    ______ ____
ROOT
ATOM      1  C   UNL     1       3.418   6.636  17.976  0.00  0.00    +0.000 A 
ATOM      2  C   UNL     1       3.277   5.426  18.676  0.00  0.00    +0.000 A 
ATOM      3  C   UNL     1       2.453   5.306  19.781  0.00  0.00    +0.000 A 
ATOM      4  C   UNL     1       1.744   6.463  20.162  0.00  0.00    +0.000 A 
ATOM      5  C   UNL     1       1.926   7.766  19.516  0.00  0.00    +0.000 A 
ATOM      6  C   UNL     1       2.688   7.802  18.349  0.00  0.00    +0.000 A 
ENDROOT
BRANCH   5   7
ATOM      7  N   UNL     1       1.409   8.953  20.211  0.00  0.00    +0.000 N 
ATOM      8  C   UNL     1       1.383   8.870  21.596  0.00  0.00    +0.000 A 
ATOM      9  N   UNL     1       0.459   9.606  22.131  0.00  0.00    +0.000 NA
ATOM     10  C   UNL     1       0.367  10.611  21.233  0.00  0.00    +0.000 A 
ATOM     11  C   UNL     1      -0.173  11.861  21.563  0.00  0.00    +0.000 A 
ATOM     12  C   UNL     1       0.098  12.974  20.791  0.00  0.00    +0.000 A 
ATOM     13  C   UNL     1       0.769  12.776  19.582  0.00  0.00    +0.000 A 
ATOM     14  C   UNL     1       1.207  11.443  19.136  0.00  0.00    +0.000 A 
ATOM     15  C   UNL     1       1.054  10.333  20.025  0.00  0.00    +0.000 A 
BRANCH  12  16
ATOM     16  N   UNL     1      -0.263  14.268  21.380  0.00  0.00    +0.000 N 
ATOM     17  C   UNL     1      -0.957  15.295  20.739  0.00  0.00    +0.000 A 
ATOM     18  C   UNL     1      -1.217  16.285  21.650  0.00  0.00    +0.000 A 
ATOM     19  C   UNL     1      -0.621  15.805  22.833  0.00  0.00    +0.000 A 
ATOM     20  N   UNL     1      -0.028  14.606  22.679  0.00  0.00    +0.000 NA
ENDBRANCH  12  16
ENDBRANCH   5   7
BRANCH   1  24
ATOM     21  O   UNL     1       5.365   4.613  17.083  0.00  0.00    +0.000 OA
ATOM     22  C   UNL     1       5.258   5.721  16.570  0.00  0.00    +0.000 C 
ATOM     23  N   UNL     1       6.076   6.115  15.545  0.00  0.00    +0.000 N 
ATOM     24  N   UNL     1       4.358   6.719  16.922  0.00  0.00    +0.000 N 
ATOM     25  H   UNL     1       6.139   7.090  15.306  0.00  0.00    +0.000 HD
ATOM     26  H   UNL     1       4.539   7.636  16.545  0.00  0.00    +0.000 HD
BRANCH  23  27
ATOM     27  C   UNL     1       7.188   5.292  15.121  0.00  0.00    +0.000 C 
BRANCH  27  28
ATOM     28  C   UNL     1       6.780   4.563  13.899  0.00  0.00    +0.000 A 
ATOM     29  C   UNL     1       5.701   3.757  13.600  0.00  0.00    +0.000 A 
ATOM     30  C   UNL     1       5.856   3.369  12.249  0.00  0.00    +0.000 A 
ATOM     31  C   UNL     1       7.016   3.961  11.808  0.00  0.00    +0.000 A 
ATOM     32  O   UNL     1       7.587   4.689  12.802  0.00  0.00    +0.000 OA
ENDBRANCH  27  28
ENDBRANCH  23  27
ENDBRANCH   1  24
BRANCH   3  33
ATOM     33  N   UNL     1       2.423   4.047  20.480  0.00  0.00    +0.000 N 
ATOM     34  C   UNL     1       1.373   3.550  21.250  0.00  0.00    +0.000 A 
ATOM     35  C   UNL     1       1.764   2.350  21.788  0.00  0.00    +0.000 A 
ATOM     36  C   UNL     1       3.065   2.175  21.296  0.00  0.00    +0.000 A 
ATOM     37  N   UNL     1       3.454   3.153  20.466  0.00  0.00    +0.000 NA
ENDBRANCH   3  33
TORSDOF 6
ENDMDL
MODEL 4
REMARK VINA RESULT:      -8.4      4.500     11.838
REMARK  Name = 
REMARK  6 active torsions:
REMARK  status: ('A' for Active; 'I' for Inactive)
REMARK    1  A    between atoms: N_3  and  C_4
REMARK    2  A    between atoms: C_4  and  C_5
REMARK    3  A    between atoms: N_10  and  C_11
REMARK    4  A    between atoms: C_13  and  N_14
REMARK    5  A    between atoms: C_20  and  N_21
REMARK    6  A    between atoms: C_26  and  N_27
REMARK                            x       y       z     vdW  Elec       q    Type
REMARK                         _______ _______ _______ _____ _____    ______ ____
ROOT
ATOM      1  C   UNL     1      -1.026  13.061  20.077  0.00  0.00    +0.000 A 
ATOM      2  C   UNL     1      -0.076  13.968  19.580  0.00  0.00    +0.000 A 
ATOM      3  C   UNL     1       1.113  13.549  19.009  0.00  0.00    +0.000 A 
ATOM      4  C   UNL     1       1.318  12.156  18.938  0.00  0.00    +0.000 A 
ATOM      5  C   UNL     1       0.395  11.179  19.522  0.00  0.00    +0.000 A 
ATOM      6  C   UNL     1      -0.830  11.653  19.989  0.00  0.00    +0.000 A 
ENDROOT
BRANCH   5   7
ATOM      7  N   UNL     1       0.876   9.801  19.694  0.00  0.00    +0.000 N 
ATOM      8  C   UNL     1       0.282   9.085  20.724  0.00  0.00    +0.000 A 
ATOM      9  N   UNL     1       1.054   8.164  21.213  0.00  0.00    +0.000 NA
ATOM     10  C   UNL     1       1.800   7.844  20.134  0.00  0.00    +0.000 A 
ATOM     11  C   UNL     1       2.476   6.620  20.030  0.00  0.00    +0.000 A 
ATOM     12  C   UNL     1       2.887   6.143  18.801  0.00  0.00    +0.000 A 
ATOM     13  C   UNL     1       2.773   6.998  17.702  0.00  0.00    +0.000 A 
ATOM     14  C   UNL     1       2.212   8.355  17.818  0.00  0.00    +0.000 A 
ATOM     15  C   UNL     1       1.650   8.764  19.068  0.00  0.00    +0.000 A 
BRANCH  12  16
ATOM     16  N   UNL     1       3.310   4.739  18.766  0.00  0.00    +0.000 N 
ATOM     17  C   UNL     1       3.497   3.911  19.874  0.00  0.00    +0.000 A 
ATOM     18  C   UNL     1       3.764   2.641  19.433  0.00  0.00    +0.000 A 
ATOM     19  C   UNL     1       3.754   2.773  18.029  0.00  0.00    +0.000 A 
ATOM     20  N   UNL     1       3.503   4.030  17.618  0.00  0.00    +0.000 NA
ENDBRANCH  12  16
ENDBRANCH   5   7
BRANCH   1  24
ATOM     21  O   UNL     1      -1.542  13.222  22.973  0.00  0.00    +0.000 OA
ATOM     22  C   UNL     1      -2.346  13.585  22.122  0.00  0.00    +0.000 C 
ATOM     23  N   UNL     1      -3.579  14.072  22.467  0.00  0.00    +0.000 N 
ATOM     24  N   UNL     1      -2.172  13.557  20.744  0.00  0.00    +0.000 N 
ATOM     25  H   UNL     1      -4.302  14.133  21.770  0.00  0.00    +0.000 HD
ATOM     26  H   UNL     1      -3.000  13.695  20.187  0.00  0.00    +0.000 HD
BRANCH  23  27
ATOM     27  C   UNL     1      -4.033  14.046  23.840  0.00  0.00    +0.000 C 
BRANCH  27  28
ATOM     28  C   UNL     1      -5.487  13.769  23.838  0.00  0.00    +0.000 A 
ATOM     29  C   UNL     1      -6.600  14.584  23.818  0.00  0.00    +0.000 A 
ATOM     30  C   UNL     1      -7.723  13.724  23.805  0.00  0.00    +0.000 A 
ATOM     31  C   UNL     1      -7.227  12.442  23.816  0.00  0.00    +0.000 A 
ATOM     32  O   UNL     1      -5.869  12.456  23.838  0.00  0.00    +0.000 OA
ENDBRANCH  27  28
ENDBRANCH  23  27
ENDBRANCH   1  24
BRANCH   3  33
ATOM     33  N   UNL     1       2.062  14.549  18.590  0.00  0.00    +0.000 N 
ATOM     34  C   UNL     1       1.841  15.923  18.516  0.00  0.00    +0.000 A 
ATOM     35  C   UNL     1       2.975  16.515  18.020  0.00  0.00    +0.000 A 
ATOM     36  C   UNL     1       3.851  15.438  17.821  0.00  0.00    +0.000 A 
ATOM     37  N   UNL     1       3.341  14.261  18.211  0.00  0.00    +0.000 NA
ENDBRANCH   3  33
TORSDOF 6
ENDMDL
MODEL 5
REMARK VINA RESULT:      -8.3      4.772     11.035
REMARK  Name = 
REMARK  6 active torsions:
REMARK  status: ('A' for Active; 'I' for Inactive)
REMARK    1  A    between atoms: N_3  and  C_4
REMARK    2  A    between atoms: C_4  and  C_5
REMARK    3  A    between atoms: N_10  and  C_11
REMARK    4  A    between atoms: C_13  and  N_14
REMARK    5  A    between atoms: C_20  and  N_21
REMARK    6  A    between atoms: C_26  and  N_27
REMARK                            x       y       z     vdW  Elec       q    Type
REMARK                         _______ _______ _______ _____ _____    ______ ____
ROOT
ATOM      1  C   UNL     1      -1.162  13.421  19.850  0.00  0.00    +0.000 A 
ATOM      2  C   UNL     1      -0.296  14.310  20.508  0.00  0.00    +0.000 A 
ATOM      3  C   UNL     1       1.066  14.082  20.597  0.00  0.00    +0.000 A 
ATOM      4  C   UNL     1       1.546  12.911  19.976  0.00  0.00    +0.000 A 
ATOM      5  C   UNL     1       0.670  11.913  19.356  0.00  0.00    +0.000 A 
ATOM      6  C   UNL     1      -0.676  12.246  19.207  0.00  0.00    +0.000 A 
ENDROOT
BRANCH   5   7
ATOM      7  N   UNL     1       1.239  10.591  19.060  0.00  0.00    +0.000 N 
ATOM      8  C   UNL     1       2.136  10.550  18.002  0.00  0.00    +0.000 A 
ATOM      9  N   UNL     1       2.175   9.395  17.414  0.00  0.00    +0.000 NA
ATOM     10  C   UNL     1       1.866   8.568  18.435  0.00  0.00    +0.000 A 
ATOM     11  C   UNL     1       2.195   7.205  18.418  0.00  0.00    +0.000 A 
ATOM     12  C   UNL     1       2.242   6.476  19.590  0.00  0.00    +0.000 A 
ATOM     13  C   UNL     1       1.775   7.089  20.755  0.00  0.00    +0.000 A 
ATOM     14  C   UNL     1       1.273   8.474  20.767  0.00  0.00    +0.000 A 
ATOM     15  C   UNL     1       1.382   9.257  19.574  0.00  0.00    +0.000 A 
BRANCH  12  16
ATOM     16  N   UNL     1       2.877   5.157  19.501  0.00  0.00    +0.000 N 
ATOM     17  C   UNL     1       4.240   4.913  19.325  0.00  0.00    +0.000 A 
ATOM     18  C   UNL     1       4.461   3.564  19.422  0.00  0.00    +0.000 A 
ATOM     19  C   UNL     1       3.171   3.035  19.629  0.00  0.00    +0.000 A 
ATOM     20  N   UNL     1       2.210   3.978  19.658  0.00  0.00    +0.000 NA
ENDBRANCH  12  16
ENDBRANCH   5   7
BRANCH   1  24
ATOM     21  O   UNL     1      -3.152  12.387  21.761  0.00  0.00    +0.000 OA
ATOM     22  C   UNL     1      -3.435  13.119  20.819  0.00  0.00    +0.000 C 
ATOM     23  N   UNL     1      -4.730  13.488  20.568  0.00  0.00    +0.000 N 
ATOM     24  N   UNL     1      -2.556  13.658  19.889  0.00  0.00    +0.000 N 
ATOM     25  H   UNL     1      -4.970  13.876  19.671  0.00  0.00    +0.000 HD
ATOM     26  H   UNL     1      -2.972  14.064  19.066  0.00  0.00    +0.000 HD
BRANCH  23  27
ATOM     27  C   UNL     1      -5.827  12.918  21.318  0.00  0.00    +0.000 C 
BRANCH  27  28
ATOM     28  C   UNL     1      -6.348  11.757  20.560  0.00  0.00    +0.000 A 
ATOM     29  C   UNL     1      -6.187  11.335  19.256  0.00  0.00    +0.000 A 
ATOM     30  C   UNL     1      -6.923  10.134  19.133  0.00  0.00    +0.000 A 
ATOM     31  C   UNL     1      -7.484   9.897  20.365  0.00  0.00    +0.000 A 
ATOM     32  O   UNL     1      -7.144  10.878  21.241  0.00  0.00    +0.000 OA
ENDBRANCH  27  28
ENDBRANCH  23  27
ENDBRANCH   1  24
BRANCH   3  33
ATOM     33  N   UNL     1       1.869  15.010  21.350  0.00  0.00    +0.000 N 
ATOM     34  C   UNL     1       1.784  16.400  21.315  0.00  0.00    +0.000 A 
ATOM     35  C   UNL     1       2.757  16.913  22.135  0.00  0.00    +0.000 A 
ATOM     36  C   UNL     1       3.394  15.773  22.644  0.00  0.00    +0.000 A 
ATOM     37  N   UNL     1       2.839  14.626  22.230  0.00  0.00    +0.000 NA
ENDBRANCH   3  33
TORSDOF 6
ENDMDL
MODEL 6
REMARK VINA RESULT:      -8.3      4.675     11.317
REMARK  Name = 
REMARK  6 active torsions:
REMARK  status: ('A' for Active; 'I' for Inactive)
REMARK    1  A    between atoms: N_3  and  C_4
REMARK    2  A    between atoms: C_4  and  C_5
REMARK    3  A    between atoms: N_10  and  C_11
REMARK    4  A    between atoms: C_13  and  N_14
REMARK    5  A    between atoms: C_20  and  N_21
REMARK    6  A    between atoms: C_26  and  N_27
REMARK                            x       y       z     vdW  Elec       q    Type
REMARK                         _______ _______ _______ _____ _____    ______ ____
ROOT
ATOM      1  C   UNL     1      -1.131  13.055  19.463  0.00  0.00    +0.000 A 
ATOM      2  C   UNL     1      -0.086  13.989  19.379  0.00  0.00    +0.000 A 
ATOM      3  C   UNL     1       1.240  13.605  19.287  0.00  0.00    +0.000 A 
ATOM      4  C   UNL     1       1.490  12.217  19.265  0.00  0.00    +0.000 A 
ATOM      5  C   UNL     1       0.440  11.210  19.437  0.00  0.00    +0.000 A 
ATOM      6  C   UNL     1      -0.882  11.652  19.423  0.00  0.00    +0.000 A 
ENDROOT
BRANCH   5   7
ATOM      7  N   UNL     1       0.856   9.834  19.745  0.00  0.00    +0.000 N 
ATOM      8  C   UNL     1       0.180   9.226  20.794  0.00  0.00    +0.000 A 
ATOM      9  N   UNL     1       0.887   8.322  21.396  0.00  0.00    +0.000 NA
ATOM     10  C   UNL     1       1.675   7.888  20.390  0.00  0.00    +0.000 A 
ATOM     11  C   UNL     1       2.305   6.635  20.421  0.00  0.00    +0.000 A 
ATOM     12  C   UNL     1       2.761   6.045  19.259  0.00  0.00    +0.000 A 
ATOM     13  C   UNL     1       2.740   6.811  18.090  0.00  0.00    +0.000 A 
ATOM     14  C   UNL     1       2.228   8.192  18.066  0.00  0.00    +0.000 A 
ATOM     15  C   UNL     1       1.618   8.723  19.247  0.00  0.00    +0.000 A 
BRANCH  12  16
ATOM     16  N   UNL     1       3.128   4.629  19.359  0.00  0.00    +0.000 N 
ATOM     17  C   UNL     1       4.326   4.060  18.926  0.00  0.00    +0.000 A 
ATOM     18  C   UNL     1       4.352   2.744  19.308  0.00  0.00    +0.000 A 
ATOM     19  C   UNL     1       3.110   2.566  19.951  0.00  0.00    +0.000 A 
ATOM     20  N   UNL     1       2.359   3.683  19.969  0.00  0.00    +0.000 NA
ENDBRANCH  12  16
ENDBRANCH   5   7
BRANCH   1  24
ATOM     21  O   UNL     1      -2.785  12.891  21.896  0.00  0.00    +0.000 OA
ATOM     22  C   UNL     1      -3.176  13.385  20.844  0.00  0.00    +0.000 C 
ATOM     23  N   UNL     1      -4.448  13.877  20.717  0.00  0.00    +0.000 N 
ATOM     24  N   UNL     1      -2.454  13.514  19.664  0.00  0.00    +0.000 N 
ATOM     25  H   UNL     1      -4.824  14.050  19.800  0.00  0.00    +0.000 HD
ATOM     26  H   UNL     1      -2.984  13.750  18.841  0.00  0.00    +0.000 HD
BRANCH  23  27
ATOM     27  C   UNL     1      -5.422  13.707  21.772  0.00  0.00    +0.000 C 
BRANCH  27  28
ATOM     28  C   UNL     1      -6.319  12.591  21.395  0.00  0.00    +0.000 A 
ATOM     29  C   UNL     1      -7.461  12.068  21.964  0.00  0.00    +0.000 A 
ATOM     30  C   UNL     1      -7.880  11.014  21.120  0.00  0.00    +0.000 A 
ATOM     31  C   UNL     1      -6.971  10.959  20.091  0.00  0.00    +0.000 A 
ATOM     32  O   UNL     1      -6.015  11.912  20.247  0.00  0.00    +0.000 OA
ENDBRANCH  27  28
ENDBRANCH  23  27
ENDBRANCH   1  24
BRANCH   3  33
ATOM     33  N   UNL     1       2.252  14.630  19.277  0.00  0.00    +0.000 N 
ATOM     34  C   UNL     1       2.376  15.665  18.353  0.00  0.00    +0.000 A 
ATOM     35  C   UNL     1       3.499  16.389  18.664  0.00  0.00    +0.000 A 
ATOM     36  C   UNL     1       4.008  15.739  19.797  0.00  0.00    +0.000 A 
ATOM     37  N   UNL     1       3.242  14.719  20.212  0.00  0.00    +0.000 NA
ENDBRANCH   3  33
TORSDOF 6
ENDMDL
MODEL 7
REMARK VINA RESULT:      -8.3      2.032      2.590
REMARK  Name = 
REMARK  6 active torsions:
REMARK  status: ('A' for Active; 'I' for Inactive)
REMARK    1  A    between atoms: N_3  and  C_4
REMARK    2  A    between atoms: C_4  and  C_5
REMARK    3  A    between atoms: N_10  and  C_11
REMARK    4  A    between atoms: C_13  and  N_14
REMARK    5  A    between atoms: C_20  and  N_21
REMARK    6  A    between atoms: C_26  and  N_27
REMARK                            x       y       z     vdW  Elec       q    Type
REMARK                         _______ _______ _______ _____ _____    ______ ____
ROOT
ATOM      1  C   UNL     1       3.695   6.962  17.683  0.00  0.00    +0.000 A 
ATOM      2  C   UNL     1       3.324   5.864  18.476  0.00  0.00    +0.000 A 
ATOM      3  C   UNL     1       2.258   5.916  19.356  0.00  0.00    +0.000 A 
ATOM      4  C   UNL     1       1.546   7.132  19.406  0.00  0.00    +0.000 A 
ATOM      5  C   UNL     1       1.950   8.330  18.663  0.00  0.00    +0.000 A 
ATOM      6  C   UNL     1       2.966   8.186  17.719  0.00  0.00    +0.000 A 
ENDROOT
BRANCH   5   7
ATOM      7  N   UNL     1       1.353   9.613  19.058  0.00  0.00    +0.000 N 
ATOM      8  C   UNL     1       0.585   9.585  20.214  0.00  0.00    +0.000 A 
ATOM      9  N   UNL     1      -0.342  10.492  20.229  0.00  0.00    +0.000 NA
ATOM     10  C   UNL     1       0.226  11.464  19.484  0.00  0.00    +0.000 A 
ATOM     11  C   UNL     1      -0.187  12.802  19.561  0.00  0.00    +0.000 A 
ATOM     12  C   UNL     1       0.634  13.821  19.120  0.00  0.00    +0.000 A 
ATOM     13  C   UNL     1       1.799  13.465  18.434  0.00  0.00    +0.000 A 
ATOM     14  C   UNL     1       2.174  12.060  18.201  0.00  0.00    +0.000 A 
ATOM     15  C   UNL     1       1.389  11.027  18.803  0.00  0.00    +0.000 A 
BRANCH  12  16
ATOM     16  N   UNL     1       0.241  15.178  19.513  0.00  0.00    +0.000 N 
ATOM     17  C   UNL     1      -0.639  15.510  20.544  0.00  0.00    +0.000 A 
ATOM     18  C   UNL     1      -0.651  16.873  20.689  0.00  0.00    +0.000 A 
ATOM     19  C   UNL     1       0.232  17.316  19.683  0.00  0.00    +0.000 A 
ATOM     20  N   UNL     1       0.757  16.311  18.959  0.00  0.00    +0.000 NA
ENDBRANCH  12  16
ENDBRANCH   5   7
BRANCH   1  24
ATOM     21  O   UNL     1       5.059   4.556  16.670  0.00  0.00    +0.000 OA
ATOM     22  C   UNL     1       5.454   5.696  16.457  0.00  0.00    +0.000 C 
ATOM     23  N   UNL     1       6.599   5.934  15.745  0.00  0.00    +0.000 N 
ATOM     24  N   UNL     1       4.860   6.877  16.885  0.00  0.00    +0.000 N 
ATOM     25  H   UNL     1       7.031   6.841  15.788  0.00  0.00    +0.000 HD
ATOM     26  H   UNL     1       5.418   7.712  16.803  0.00  0.00    +0.000 HD
BRANCH  23  27
ATOM     27  C   UNL     1       7.461   4.847  15.335  0.00  0.00    +0.000 C 
BRANCH  27  28
ATOM     28  C   UNL     1       7.171   4.541  13.915  0.00  0.00    +0.000 A 
ATOM     29  C   UNL     1       7.679   5.024  12.727  0.00  0.00    +0.000 A 
ATOM     30  C   UNL     1       7.014   4.320  11.695  0.00  0.00    +0.000 A 
ATOM     31  C   UNL     1       6.146   3.454  12.317  0.00  0.00    +0.000 A 
ATOM     32  O   UNL     1       6.231   3.581  13.667  0.00  0.00    +0.000 OA
ENDBRANCH  27  28
ENDBRANCH  23  27
ENDBRANCH   1  24
BRANCH   3  33
ATOM     33  N   UNL     1       1.993   4.766  20.181  0.00  0.00    +0.000 N 
ATOM     34  C   UNL     1       0.962   3.844  20.013  0.00  0.00    +0.000 A 
ATOM     35  C   UNL     1       1.025   2.934  21.038  0.00  0.00    +0.000 A 
ATOM     36  C   UNL     1       2.127   3.362  21.792  0.00  0.00    +0.000 A 
ATOM     37  N   UNL     1       2.752   4.422  21.261  0.00  0.00    +0.000 NA
ENDBRANCH   3  33
TORSDOF 6
ENDMDL
MODEL 8
REMARK VINA RESULT:      -8.2      4.589     11.125
REMARK  Name = 
REMARK  6 active torsions:
REMARK  status: ('A' for Active; 'I' for Inactive)
REMARK    1  A    between atoms: N_3  and  C_4
REMARK    2  A    between atoms: C_4  and  C_5
REMARK    3  A    between atoms: N_10  and  C_11
REMARK    4  A    between atoms: C_13  and  N_14
REMARK    5  A    between atoms: C_20  and  N_21
REMARK    6  A    between atoms: C_26  and  N_27
REMARK                            x       y       z     vdW  Elec       q    Type
REMARK                         _______ _______ _______ _____ _____    ______ ____
ROOT
ATOM      1  C   UNL     1      -0.960  13.335  19.994  0.00  0.00    +0.000 A 
ATOM      2  C   UNL     1      -0.013  14.185  20.588  0.00  0.00    +0.000 A 
ATOM      3  C   UNL     1       1.274  13.766  20.875  0.00  0.00    +0.000 A 
ATOM      4  C   UNL     1       1.594  12.439  20.524  0.00  0.00    +0.000 A 
ATOM      5  C   UNL     1       0.614  11.493  19.984  0.00  0.00    +0.000 A 
ATOM      6  C   UNL     1      -0.633  11.999  19.622  0.00  0.00    +0.000 A 
ENDROOT
BRANCH   5   7
ATOM      7  N   UNL     1       0.967  10.066  19.987  0.00  0.00    +0.000 N 
ATOM      8  C   UNL     1       0.356   9.302  20.972  0.00  0.00    +0.000 A 
ATOM      9  N   UNL     1       1.056   8.268  21.319  0.00  0.00    +0.000 NA
ATOM     10  C   UNL     1       1.715   7.997  20.172  0.00  0.00    +0.000 A 
ATOM     11  C   UNL     1       2.262   6.733  19.906  0.00  0.00    +0.000 A 
ATOM     12  C   UNL     1       2.566   6.354  18.613  0.00  0.00    +0.000 A 
ATOM     13  C   UNL     1       2.484   7.329  17.615  0.00  0.00    +0.000 A 
ATOM     14  C   UNL     1       2.063   8.711  17.900  0.00  0.00    +0.000 A 
ATOM     15  C   UNL     1       1.604   9.036  19.215  0.00  0.00    +0.000 A 
BRANCH  12  16
ATOM     16  N   UNL     1       2.848   4.929  18.411  0.00  0.00    +0.000 N 
ATOM     17  C   UNL     1       1.949   3.880  18.608  0.00  0.00    +0.000 A 
ATOM     18  C   UNL     1       2.536   2.714  18.191  0.00  0.00    +0.000 A 
ATOM     19  C   UNL     1       3.819   3.125  17.775  0.00  0.00    +0.000 A 
ATOM     20  N   UNL     1       4.024   4.447  17.920  0.00  0.00    +0.000 NA
ENDBRANCH  12  16
ENDBRANCH   5   7
BRANCH   1  24
ATOM     21  O   UNL     1      -3.339  12.708  21.616  0.00  0.00    +0.000 OA
ATOM     22  C   UNL     1      -3.366  13.436  20.630  0.00  0.00    +0.000 C 
ATOM     23  N   UNL     1      -4.535  13.994  20.187  0.00  0.00    +0.000 N 
ATOM     24  N   UNL     1      -2.289  13.791  19.827  0.00  0.00    +0.000 N 
ATOM     25  H   UNL     1      -4.581  14.379  19.258  0.00  0.00    +0.000 HD
ATOM     26  H   UNL     1      -2.515  14.223  18.945  0.00  0.00    +0.000 HD
BRANCH  23  27
ATOM     27  C   UNL     1      -5.804  13.636  20.781  0.00  0.00    +0.000 C 
BRANCH  27  28
ATOM     28  C   UNL     1      -6.306  12.423  20.097  0.00  0.00    +0.000 A 
ATOM     29  C   UNL     1      -6.915  11.271  20.550  0.00  0.00    +0.000 A 
ATOM     30  C   UNL     1      -7.183  10.485  19.405  0.00  0.00    +0.000 A 
ATOM     31  C   UNL     1      -6.723  11.205  18.327  0.00  0.00    +0.000 A 
ATOM     32  O   UNL     1      -6.186  12.384  18.735  0.00  0.00    +0.000 OA
ENDBRANCH  27  28
ENDBRANCH  23  27
ENDBRANCH   1  24
BRANCH   3  33
ATOM     33  N   UNL     1       2.158  14.682  21.550  0.00  0.00    +0.000 N 
ATOM     34  C   UNL     1       2.043  16.070  21.589  0.00  0.00    +0.000 A 
ATOM     35  C   UNL     1       3.113  16.572  22.286  0.00  0.00    +0.000 A 
ATOM     36  C   UNL     1       3.837  15.428  22.649  0.00  0.00    +0.000 A 
ATOM     37  N   UNL     1       3.250  14.285  22.266  0.00  0.00    +0.000 NA
ENDBRANCH   3  33
TORSDOF 6
ENDMDL
MODEL 9
REMARK VINA RESULT:      -8.2      4.375      9.952
REMARK  Name = 
REMARK  6 active torsions:
REMARK  status: ('A' for Active; 'I' for Inactive)
REMARK    1  A    between atoms: N_3  and  C_4
REMARK    2  A    between atoms: C_4  and  C_5
REMARK    3  A    between atoms: N_10  and  C_11
REMARK    4  A    between atoms: C_13  and  N_14
REMARK    5  A    between atoms: C_20  and  N_21
REMARK    6  A    between atoms: C_26  and  N_27
REMARK                            x       y       z     vdW  Elec       q    Type
REMARK                         _______ _______ _______ _____ _____    ______ ____
ROOT
ATOM      1  C   UNL     1       0.293  13.695  20.812  0.00  0.00    +0.000 A 
ATOM      2  C   UNL     1      -1.055  13.781  21.194  0.00  0.00    +0.000 A 
ATOM      3  C   UNL     1      -1.798  12.663  21.532  0.00  0.00    +0.000 A 
ATOM      4  C   UNL     1      -1.123  11.426  21.486  0.00  0.00    +0.000 A 
ATOM      5  C   UNL     1       0.256  11.280  21.010  0.00  0.00    +0.000 A 
ATOM      6  C   UNL     1       0.982  12.448  20.783  0.00  0.00    +0.000 A 
ENDROOT
BRANCH   5   7
ATOM      7  N   UNL     1       0.726   9.928  20.680  0.00  0.00    +0.000 N 
ATOM      8  C   UNL     1       0.243   8.912  21.493  0.00  0.00    +0.000 A 
ATOM      9  N   UNL     1       1.048   7.899  21.572  0.00  0.00    +0.000 NA
ATOM     10  C   UNL     1       1.657   7.950  20.368  0.00  0.00    +0.000 A 
ATOM     11  C   UNL     1       2.291   6.834  19.804  0.00  0.00    +0.000 A 
ATOM     12  C   UNL     1       2.547   6.777  18.448  0.00  0.00    +0.000 A 
ATOM     13  C   UNL     1       2.322   7.934  17.696  0.00  0.00    +0.000 A 
ATOM     14  C   UNL     1       1.804   9.174  18.300  0.00  0.00    +0.000 A 
ATOM     15  C   UNL     1       1.401   9.157  19.672  0.00  0.00    +0.000 A 
BRANCH  12  16
ATOM     16  N   UNL     1       2.935   5.465  17.921  0.00  0.00    +0.000 N 
ATOM     17  C   UNL     1       2.121   4.332  17.862  0.00  0.00    +0.000 A 
ATOM     18  C   UNL     1       2.792   3.344  17.189  0.00  0.00    +0.000 A 
ATOM     19  C   UNL     1       4.035   3.938  16.891  0.00  0.00    +0.000 A 
ATOM     20  N   UNL     1       4.140   5.202  17.342  0.00  0.00    +0.000 NA
ENDBRANCH  12  16
ENDBRANCH   5   7
BRANCH   1  24
ATOM     21  O   UNL     1       1.572  14.220  18.209  0.00  0.00    +0.000 OA
ATOM     22  C   UNL     1       1.557  15.028  19.130  0.00  0.00    +0.000 C 
ATOM     23  N   UNL     1       2.175  16.245  19.021  0.00  0.00    +0.000 N 
ATOM     24  N   UNL     1       0.964  14.863  20.376  0.00  0.00    +0.000 N 
ATOM     25  H   UNL     1       2.361  16.784  19.850  0.00  0.00    +0.000 HD
ATOM     26  H   UNL     1       1.220  15.533  21.084  0.00  0.00    +0.000 HD
BRANCH  23  27
ATOM     27  C   UNL     1       2.986  16.568  17.868  0.00  0.00    +0.000 C 
BRANCH  27  28
ATOM     28  C   UNL     1       4.399  16.283  18.206  0.00  0.00    +0.000 A 
ATOM     29  C   UNL     1       5.195  15.166  18.057  0.00  0.00    +0.000 A 
ATOM     30  C   UNL     1       6.472  15.519  18.552  0.00  0.00    +0.000 A 
ATOM     31  C   UNL     1       6.377  16.825  18.970  0.00  0.00    +0.000 A 
ATOM     32  O   UNL     1       5.121  17.300  18.766  0.00  0.00    +0.000 OA
ENDBRANCH  27  28
ENDBRANCH  23  27
ENDBRANCH   1  24
BRANCH   3  33
ATOM     33  N   UNL     1      -3.193  12.835  21.843  0.00  0.00    +0.000 N 
ATOM     34  C   UNL     1      -4.157  13.432  21.033  0.00  0.00    +0.000 A 
ATOM     35  C   UNL     1      -5.346  13.447  21.717  0.00  0.00    +0.000 A 
ATOM     36  C   UNL     1      -5.033  12.834  22.938  0.00  0.00    +0.000 A 
ATOM     37  N   UNL     1      -3.762  12.410  23.008  0.00  0.00    +0.000 NA
ENDBRANCH   3  33
TORSDOF 6
ENDMDL
