MODEL 1
REMARK VINA RESULT:      -7.5      0.000      0.000
REMARK  Name = 
REMARK  9 active torsions:
REMARK  status: ('A' for Active; 'I' for Inactive)
REMARK    1  A    between atoms: C_1  and  C_2
REMARK    2  A    between atoms: C_2  and  O_3
REMARK    3  A    between atoms: O_3  and  C_4
REMARK    4  A    between atoms: C_7  and  C_8
REMARK    5  A    between atoms: C_8  and  N_9
REMARK    6  A    between atoms: C_10  and  C_12
REMARK    7  A    between atoms: C_16  and  S_17
REMARK    8  A    between atoms: S_17  and  N_20
REMARK    9  A    between atoms: C_29  and  C_30
REMARK                            x       y       z     vdW  Elec       q    Type
REMARK                         _______ _______ _______ _____ _____    ______ ____
ROOT
ATOM      1  C   UNL     1       0.010  10.352  21.950  0.00  0.00    +0.000 C 
ATOM      2  C   UNL     1      -1.003  10.339  23.154  0.00  0.00    +0.000 C 
ATOM      3  C   UNL     1      -1.571  11.715  23.107  0.00  0.00    +0.000 A 
ATOM      4  C   UNL     1      -2.813  12.301  23.209  0.00  0.00    +0.000 A 
ATOM      5  C   UNL     1      -2.797  13.699  23.120  0.00  0.00    +0.000 A 
ATOM      6  C   UNL     1      -1.594  14.356  23.353  0.00  0.00    +0.000 A 
ATOM      7  C   UNL     1      -0.495  13.762  22.747  0.00  0.00    +0.000 A 
ATOM      8  C   UNL     1      -0.671  12.452  22.379  0.00  0.00    +0.000 A 
ATOM      9  N   UNL     1      -0.258  11.635  21.246  0.00  0.00    +0.000 N 
ATOM     10  C   UNL     1      -1.347  11.496  20.284  0.00  0.00    +0.000 C 
ATOM     11  C   UNL     1      -1.146  10.575  19.130  0.00  0.00    +0.000 C 
ATOM     12  O   UNL     1      -2.459  12.021  20.374  0.00  0.00    +0.000 OA
ENDROOT
BRANCH   1  14
ATOM     13  N   UNL     1       1.349   8.500  20.817  0.00  0.00    +0.000 N 
ATOM     14  C   UNL     1       0.176   8.907  21.415  0.00  0.00    +0.000 C 
ATOM     15  O   UNL     1      -0.690   8.057  21.666  0.00  0.00    +0.000 OA
ATOM     16  H   UNL     1       2.170   9.090  20.849  0.00  0.00    +0.000 HD
BRANCH  13  17
ATOM     17  C   UNL     1       1.544   7.078  20.540  0.00  0.00    +0.000 C 
BRANCH  17  21
ATOM     18  C   UNL     1       4.543   6.190  17.543  0.00  0.00    +0.000 A 
ATOM     19  C   UNL     1       4.407   5.380  18.670  0.00  0.00    +0.000 A 
ATOM     20  C   UNL     1       3.442   5.669  19.641  0.00  0.00    +0.000 A 
ATOM     21  C   UNL     1       2.614   6.795  19.516  0.00  0.00    +0.000 A 
ATOM     22  C   UNL     1       2.750   7.596  18.374  0.00  0.00    +0.000 A 
ATOM     23  C   UNL     1       3.719   7.305  17.403  0.00  0.00    +0.000 A 
BRANCH  18  24
ATOM     24  O   UNL     1       5.509   5.803  16.653  0.00  0.00    +0.000 OA
BRANCH  24  26
ATOM     25  C   UNL     1       7.372   7.098  17.398  0.00  0.00    +0.000 C 
ATOM     26  C   UNL     1       6.834   5.696  17.180  0.00  0.00    +0.000 C 
ENDBRANCH  24  26
ENDBRANCH  18  24
ENDBRANCH  17  21
ENDBRANCH  13  17
ENDBRANCH   1  14
BRANCH   5  27
ATOM     27  S   UNL     1      -3.806  14.517  21.857  0.00  0.00    +0.000 S 
ATOM     28  O   UNL     1      -2.947  14.936  20.766  0.00  0.00    +0.000 OA
ATOM     29  O   UNL     1      -4.871  13.568  21.581  0.00  0.00    +0.000 OA
BRANCH  27  30
ATOM     30  N   UNL     1      -4.537  15.842  22.588  0.00  0.00    +0.000 NA
ATOM     31  C   UNL     1      -3.998  17.211  22.542  0.00  0.00    +0.000 C 
ATOM     32  C   UNL     1      -3.858  17.629  23.993  0.00  0.00    +0.000 C 
ATOM     33  C   UNL     1      -4.913  16.836  24.741  0.00  0.00    +0.000 C 
ATOM     34  C   UNL     1      -5.318  15.685  23.819  0.00  0.00    +0.000 C 
ENDBRANCH  27  30
ENDBRANCH   5  27
TORSDOF 7
ENDMDL
MODEL 2
REMARK VINA RESULT:      -7.2      2.221      3.356
REMARK  Name = 
REMARK  9 active torsions:
REMARK  status: ('A' for Active; 'I' for Inactive)
REMARK    1  A    between atoms: C_1  and  C_2
REMARK    2  A    between atoms: C_2  and  O_3
REMARK    3  A    between atoms: O_3  and  C_4
REMARK    4  A    between atoms: C_7  and  C_8
REMARK    5  A    between atoms: C_8  and  N_9
REMARK    6  A    between atoms: C_10  and  C_12
REMARK    7  A    between atoms: C_16  and  S_17
REMARK    8  A    between atoms: S_17  and  N_20
REMARK    9  A    between atoms: C_29  and  C_30
REMARK                            x       y       z     vdW  Elec       q    Type
REMARK                         _______ _______ _______ _____ _____    ______ ____
ROOT
ATOM      1  C   UNL     1      -0.061  11.015  18.708  0.00  0.00    +0.000 C 
ATOM      2  C   UNL     1       0.104  12.575  18.824  0.00  0.00    +0.000 C 
ATOM      3  C   UNL     1      -1.005  12.945  19.746  0.00  0.00    +0.000 A 
ATOM      4  C   UNL     1      -1.181  13.763  20.840  0.00  0.00    +0.000 A 
ATOM      5  C   UNL     1      -2.488  13.774  21.344  0.00  0.00    +0.000 A 
ATOM      6  C   UNL     1      -3.513  13.337  20.513  0.00  0.00    +0.000 A 
ATOM      7  C   UNL     1      -3.217  12.183  19.801  0.00  0.00    +0.000 A 
ATOM      8  C   UNL     1      -1.881  11.890  19.700  0.00  0.00    +0.000 A 
ATOM      9  N   UNL     1      -1.088  10.668  19.728  0.00  0.00    +0.000 N 
ATOM     10  C   UNL     1      -0.485  10.473  21.043  0.00  0.00    +0.000 C 
ATOM     11  C   UNL     1       0.474   9.345  21.211  0.00  0.00    +0.000 C 
ATOM     12  O   UNL     1      -0.642  11.204  22.023  0.00  0.00    +0.000 OA
ENDROOT
BRANCH   1  14
ATOM     13  N   UNL     1       1.433   9.046  18.078  0.00  0.00    +0.000 N 
ATOM     14  C   UNL     1       1.318  10.383  18.390  0.00  0.00    +0.000 C 
ATOM     15  O   UNL     1       2.310  11.114  18.254  0.00  0.00    +0.000 OA
ATOM     16  H   UNL     1       0.606   8.488  17.910  0.00  0.00    +0.000 HD
BRANCH  13  17
ATOM     17  C   UNL     1       2.707   8.548  17.563  0.00  0.00    +0.000 C 
BRANCH  17  21
ATOM     18  C   UNL     1       3.931   4.725  19.190  0.00  0.00    +0.000 A 
ATOM     19  C   UNL     1       4.548   5.239  18.051  0.00  0.00    +0.000 A 
ATOM     20  C   UNL     1       4.150   6.471  17.521  0.00  0.00    +0.000 A 
ATOM     21  C   UNL     1       3.103   7.198  18.107  0.00  0.00    +0.000 A 
ATOM     22  C   UNL     1       2.497   6.679  19.259  0.00  0.00    +0.000 A 
ATOM     23  C   UNL     1       2.896   5.444  19.787  0.00  0.00    +0.000 A 
BRANCH  18  24
ATOM     24  O   UNL     1       4.412   3.520  19.627  0.00  0.00    +0.000 OA
BRANCH  24  26
ATOM     25  C   UNL     1       3.268   1.771  18.470  0.00  0.00    +0.000 C 
ATOM     26  C   UNL     1       3.439   2.486  19.798  0.00  0.00    +0.000 C 
ENDBRANCH  24  26
ENDBRANCH  18  24
ENDBRANCH  17  21
ENDBRANCH  13  17
ENDBRANCH   1  14
BRANCH   5  27
ATOM     27  S   UNL     1      -2.769  13.348  23.083  0.00  0.00    +0.000 S 
ATOM     28  O   UNL     1      -3.229  11.976  23.164  0.00  0.00    +0.000 OA
ATOM     29  O   UNL     1      -1.526  13.707  23.744  0.00  0.00    +0.000 OA
BRANCH  27  30
ATOM     30  N   UNL     1      -3.935  14.408  23.670  0.00  0.00    +0.000 NA
ATOM     31  C   UNL     1      -5.367  14.082  23.776  0.00  0.00    +0.000 C 
ATOM     32  C   UNL     1      -6.076  15.166  22.987  0.00  0.00    +0.000 C 
ATOM     33  C   UNL     1      -5.166  16.377  23.064  0.00  0.00    +0.000 C 
ATOM     34  C   UNL     1      -3.793  15.856  23.489  0.00  0.00    +0.000 C 
ENDBRANCH  27  30
ENDBRANCH   5  27
TORSDOF 7
ENDMDL
MODEL 3
REMARK VINA RESULT:      -7.1      1.636      2.250
REMARK  Name = 
REMARK  9 active torsions:
REMARK  status: ('A' for Active; 'I' for Inactive)
REMARK    1  A    between atoms: C_1  and  C_2
REMARK    2  A    between atoms: C_2  and  O_3
REMARK    3  A    between atoms: O_3  and  C_4
REMARK    4  A    between atoms: C_7  and  C_8
REMARK    5  A    between atoms: C_8  and  N_9
REMARK    6  A    between atoms: C_10  and  C_12
REMARK    7  A    between atoms: C_16  and  S_17
REMARK    8  A    between atoms: S_17  and  N_20
REMARK    9  A    between atoms: C_29  and  C_30
REMARK                            x       y       z     vdW  Elec       q    Type
REMARK                         _______ _______ _______ _____ _____    ______ ____
ROOT
ATOM      1  C   UNL     1       0.093  10.261  21.861  0.00  0.00    +0.000 C 
ATOM      2  C   UNL     1      -0.896  10.300  23.084  0.00  0.00    +0.000 C 
ATOM      3  C   UNL     1      -1.442  11.683  23.009  0.00  0.00    +0.000 A 
ATOM      4  C   UNL     1      -2.672  12.293  23.119  0.00  0.00    +0.000 A 
ATOM      5  C   UNL     1      -2.635  13.688  22.989  0.00  0.00    +0.000 A 
ATOM      6  C   UNL     1      -1.417  14.330  23.179  0.00  0.00    +0.000 A 
ATOM      7  C   UNL     1      -0.340  13.701  22.568  0.00  0.00    +0.000 A 
ATOM      8  C   UNL     1      -0.546  12.384  22.243  0.00  0.00    +0.000 A 
ATOM      9  N   UNL     1      -0.168  11.528  21.126  0.00  0.00    +0.000 N 
ATOM     10  C   UNL     1      -1.280  11.379  20.190  0.00  0.00    +0.000 C 
ATOM     11  C   UNL     1      -1.117  10.423  19.059  0.00  0.00    +0.000 C 
ATOM     12  O   UNL     1      -2.381  11.925  20.287  0.00  0.00    +0.000 OA
ENDROOT
BRANCH   1  14
ATOM     13  N   UNL     1       1.390   8.346  20.788  0.00  0.00    +0.000 N 
ATOM     14  C   UNL     1       0.224   8.799  21.365  0.00  0.00    +0.000 C 
ATOM     15  O   UNL     1      -0.666   7.979  21.631  0.00  0.00    +0.000 OA
ATOM     16  H   UNL     1       2.226   8.915  20.810  0.00  0.00    +0.000 HD
BRANCH  13  17
ATOM     17  C   UNL     1       1.550   6.913  20.549  0.00  0.00    +0.000 C 
BRANCH  17  21
ATOM     18  C   UNL     1       4.746   6.018  17.765  0.00  0.00    +0.000 A 
ATOM     19  C   UNL     1       3.854   7.058  17.508  0.00  0.00    +0.000 A 
ATOM     20  C   UNL     1       2.818   7.344  18.403  0.00  0.00    +0.000 A 
ATOM     21  C   UNL     1       2.638   6.573  19.561  0.00  0.00    +0.000 A 
ATOM     22  C   UNL     1       3.548   5.538  19.819  0.00  0.00    +0.000 A 
ATOM     23  C   UNL     1       4.584   5.252  18.919  0.00  0.00    +0.000 A 
BRANCH  18  24
ATOM     24  O   UNL     1       5.728   5.839  16.828  0.00  0.00    +0.000 OA
BRANCH  24  26
ATOM     25  C   UNL     1       5.643   4.669  14.748  0.00  0.00    +0.000 C 
ATOM     26  C   UNL     1       5.318   5.966  15.465  0.00  0.00    +0.000 C 
ENDBRANCH  24  26
ENDBRANCH  18  24
ENDBRANCH  17  21
ENDBRANCH  13  17
ENDBRANCH   1  14
BRANCH   5  27
ATOM     27  S   UNL     1      -3.657  14.485  21.723  0.00  0.00    +0.000 S 
ATOM     28  O   UNL     1      -4.160  15.740  22.245  0.00  0.00    +0.000 OA
ATOM     29  O   UNL     1      -2.809  14.511  20.543  0.00  0.00    +0.000 OA
BRANCH  27  30
ATOM     30  N   UNL     1      -4.919  13.433  21.369  0.00  0.00    +0.000 NA
ATOM     31  C   UNL     1      -5.455  13.213  20.016  0.00  0.00    +0.000 C 
ATOM     32  C   UNL     1      -6.937  13.517  20.124  0.00  0.00    +0.000 C 
ATOM     33  C   UNL     1      -7.302  13.218  21.565  0.00  0.00    +0.000 C 
ATOM     34  C   UNL     1      -5.986  13.186  22.344  0.00  0.00    +0.000 C 
ENDBRANCH  27  30
ENDBRANCH   5  27
TORSDOF 7
ENDMDL
MODEL 4
REMARK VINA RESULT:      -7.1      2.275      3.374
REMARK  Name = 
REMARK  9 active torsions:
REMARK  status: ('A' for Active; 'I' for Inactive)
REMARK    1  A    between atoms: C_1  and  C_2
REMARK    2  A    between atoms: C_2  and  O_3
REMARK    3  A    between atoms: O_3  and  C_4
REMARK    4  A    between atoms: C_7  and  C_8
REMARK    5  A    between atoms: C_8  and  N_9
REMARK    6  A    between atoms: C_10  and  C_12
REMARK    7  A    between atoms: C_16  and  S_17
REMARK    8  A    between atoms: S_17  and  N_20
REMARK    9  A    between atoms: C_29  and  C_30
REMARK                            x       y       z     vdW  Elec       q    Type
REMARK                         _______ _______ _______ _____ _____    ______ ____
ROOT
ATOM      1  C   UNL     1      -0.027  11.206  18.947  0.00  0.00    +0.000 C 
ATOM      2  C   UNL     1       0.163  12.756  18.754  0.00  0.00    +0.000 C 
ATOM      3  C   UNL     1      -0.775  13.319  19.763  0.00  0.00    +0.000 A 
ATOM      4  C   UNL     1      -0.764  14.322  20.707  0.00  0.00    +0.000 A 
ATOM      5  C   UNL     1      -1.968  14.466  21.408  0.00  0.00    +0.000 A 
ATOM      6  C   UNL     1      -3.119  13.926  20.847  0.00  0.00    +0.000 A 
ATOM      7  C   UNL     1      -2.951  12.655  20.314  0.00  0.00    +0.000 A 
ATOM      8  C   UNL     1      -1.651  12.303  20.050  0.00  0.00    +0.000 A 
ATOM      9  N   UNL     1      -0.871  11.079  20.166  0.00  0.00    +0.000 N 
ATOM     10  C   UNL     1      -0.058  11.097  21.379  0.00  0.00    +0.000 C 
ATOM     11  C   UNL     1       0.911   9.984  21.587  0.00  0.00    +0.000 C 
ATOM     12  O   UNL     1      -0.046  11.993  22.225  0.00  0.00    +0.000 OA
ENDROOT
BRANCH   1  14
ATOM     13  N   UNL     1       1.314   9.112  18.378  0.00  0.00    +0.000 N 
ATOM     14  C   UNL     1       1.277  10.482  18.526  0.00  0.00    +0.000 C 
ATOM     15  O   UNL     1       2.257  11.147  18.161  0.00  0.00    +0.000 OA
ATOM     16  H   UNL     1       0.459   8.573  18.400  0.00  0.00    +0.000 HD
BRANCH  13  17
ATOM     17  C   UNL     1       2.489   8.500  17.760  0.00  0.00    +0.000 C 
BRANCH  17  21
ATOM     18  C   UNL     1       3.538   4.606  19.343  0.00  0.00    +0.000 A 
ATOM     19  C   UNL     1       3.994   5.006  18.087  0.00  0.00    +0.000 A 
ATOM     20  C   UNL     1       3.651   6.261  17.573  0.00  0.00    +0.000 A 
ATOM     21  C   UNL     1       2.819   7.129  18.296  0.00  0.00    +0.000 A 
ATOM     22  C   UNL     1       2.376   6.724  19.563  0.00  0.00    +0.000 A 
ATOM     23  C   UNL     1       2.719   5.465  20.075  0.00  0.00    +0.000 A 
BRANCH  18  24
ATOM     24  O   UNL     1       3.948   3.365  19.751  0.00  0.00    +0.000 OA
BRANCH  24  26
ATOM     25  C   UNL     1       2.058   2.034  19.151  0.00  0.00    +0.000 C 
ATOM     26  C   UNL     1       3.540   2.273  18.924  0.00  0.00    +0.000 C 
ENDBRANCH  24  26
ENDBRANCH  18  24
ENDBRANCH  17  21
ENDBRANCH  13  17
ENDBRANCH   1  14
BRANCH   5  27
ATOM     27  S   UNL     1      -1.957  14.362  23.217  0.00  0.00    +0.000 S 
ATOM     28  O   UNL     1      -2.646  13.153  23.623  0.00  0.00    +0.000 OA
ATOM     29  O   UNL     1      -0.558  14.522  23.575  0.00  0.00    +0.000 OA
BRANCH  27  30
ATOM     30  N   UNL     1      -2.748  15.727  23.796  0.00  0.00    +0.000 NA
ATOM     31  C   UNL     1      -3.700  15.715  24.919  0.00  0.00    +0.000 C 
ATOM     32  C   UNL     1      -4.975  16.320  24.362  0.00  0.00    +0.000 C 
ATOM     33  C   UNL     1      -4.523  17.249  23.251  0.00  0.00    +0.000 C 
ATOM     34  C   UNL     1      -3.095  16.832  22.898  0.00  0.00    +0.000 C 
ENDBRANCH  27  30
ENDBRANCH   5  27
TORSDOF 7
ENDMDL
MODEL 5
REMARK VINA RESULT:      -7.1      2.323      3.474
REMARK  Name = 
REMARK  9 active torsions:
REMARK  status: ('A' for Active; 'I' for Inactive)
REMARK    1  A    between atoms: C_1  and  C_2
REMARK    2  A    between atoms: C_2  and  O_3
REMARK    3  A    between atoms: O_3  and  C_4
REMARK    4  A    between atoms: C_7  and  C_8
REMARK    5  A    between atoms: C_8  and  N_9
REMARK    6  A    between atoms: C_10  and  C_12
REMARK    7  A    between atoms: C_16  and  S_17
REMARK    8  A    between atoms: S_17  and  N_20
REMARK    9  A    between atoms: C_29  and  C_30
REMARK                            x       y       z     vdW  Elec       q    Type
REMARK                         _______ _______ _______ _____ _____    ______ ____
ROOT
ATOM      1  C   UNL     1       0.143  11.054  18.785  0.00  0.00    +0.000 C 
ATOM      2  C   UNL     1       0.382  12.609  18.786  0.00  0.00    +0.000 C 
ATOM      3  C   UNL     1      -0.611  13.083  19.790  0.00  0.00    +0.000 A 
ATOM      4  C   UNL     1      -0.641  13.970  20.842  0.00  0.00    +0.000 A 
ATOM      5  C   UNL     1      -1.888  14.070  21.474  0.00  0.00    +0.000 A 
ATOM      6  C   UNL     1      -3.009  13.633  20.778  0.00  0.00    +0.000 A 
ATOM      7  C   UNL     1      -2.835  12.427  20.114  0.00  0.00    +0.000 A 
ATOM      8  C   UNL     1      -1.528  12.068  19.897  0.00  0.00    +0.000 A 
ATOM      9  N   UNL     1      -0.786  10.815  19.922  0.00  0.00    +0.000 N 
ATOM     10  C   UNL     1      -0.059  10.669  21.180  0.00  0.00    +0.000 C 
ATOM     11  C   UNL     1       0.867   9.509  21.321  0.00  0.00    +0.000 C 
ATOM     12  O   UNL     1      -0.086  11.462  22.123  0.00  0.00    +0.000 OA
ENDROOT
BRANCH   1  14
ATOM     13  N   UNL     1       1.512   8.971  18.242  0.00  0.00    +0.000 N 
ATOM     14  C   UNL     1       1.456  10.342  18.370  0.00  0.00    +0.000 C 
ATOM     15  O   UNL     1       2.425  11.016  17.991  0.00  0.00    +0.000 OA
ATOM     16  H   UNL     1       0.665   8.420  18.275  0.00  0.00    +0.000 HD
BRANCH  13  17
ATOM     17  C   UNL     1       2.694   8.367  17.630  0.00  0.00    +0.000 C 
BRANCH  17  21
ATOM     18  C   UNL     1       3.635   4.447  19.216  0.00  0.00    +0.000 A 
ATOM     19  C   UNL     1       2.844   5.335  19.945  0.00  0.00    +0.000 A 
ATOM     20  C   UNL     1       2.544   6.603  19.436  0.00  0.00    +0.000 A 
ATOM     21  C   UNL     1       3.057   7.018  18.198  0.00  0.00    +0.000 A 
ATOM     22  C   UNL     1       3.841   6.115  17.467  0.00  0.00    +0.000 A 
ATOM     23  C   UNL     1       4.142   4.845  17.979  0.00  0.00    +0.000 A 
BRANCH  18  24
ATOM     24  O   UNL     1       3.851   3.230  19.805  0.00  0.00    +0.000 OA
BRANCH  24  26
ATOM     25  C   UNL     1       1.845   1.991  19.427  0.00  0.00    +0.000 C 
ATOM     26  C   UNL     1       2.725   2.653  20.471  0.00  0.00    +0.000 C 
ENDBRANCH  24  26
ENDBRANCH  18  24
ENDBRANCH  17  21
ENDBRANCH  13  17
ENDBRANCH   1  14
BRANCH   5  27
ATOM     27  S   UNL     1      -2.005  13.760  23.255  0.00  0.00    +0.000 S 
ATOM     28  O   UNL     1      -2.532  12.426  23.467  0.00  0.00    +0.000 OA
ATOM     29  O   UNL     1      -0.680  14.075  23.760  0.00  0.00    +0.000 OA
BRANCH  27  30
ATOM     30  N   UNL     1      -3.039  14.921  23.894  0.00  0.00    +0.000 NA
ATOM     31  C   UNL     1      -4.489  14.732  24.062  0.00  0.00    +0.000 C 
ATOM     32  C   UNL     1      -5.127  15.882  23.305  0.00  0.00    +0.000 C 
ATOM     33  C   UNL     1      -4.104  17.001  23.343  0.00  0.00    +0.000 C 
ATOM     34  C   UNL     1      -2.769  16.350  23.707  0.00  0.00    +0.000 C 
ENDBRANCH  27  30
ENDBRANCH   5  27
TORSDOF 7
ENDMDL
MODEL 6
REMARK VINA RESULT:      -7.0      0.739      1.360
REMARK  Name = 
REMARK  9 active torsions:
REMARK  status: ('A' for Active; 'I' for Inactive)
REMARK    1  A    between atoms: C_1  and  C_2
REMARK    2  A    between atoms: C_2  and  O_3
REMARK    3  A    between atoms: O_3  and  C_4
REMARK    4  A    between atoms: C_7  and  C_8
REMARK    5  A    between atoms: C_8  and  N_9
REMARK    6  A    between atoms: C_10  and  C_12
REMARK    7  A    between atoms: C_16  and  S_17
REMARK    8  A    between atoms: S_17  and  N_20
REMARK    9  A    between atoms: C_29  and  C_30
REMARK                            x       y       z     vdW  Elec       q    Type
REMARK                         _______ _______ _______ _____ _____    ______ ____
ROOT
ATOM      1  C   UNL     1       0.138  10.255  21.910  0.00  0.00    +0.000 C 
ATOM      2  C   UNL     1      -0.855  10.344  23.128  0.00  0.00    +0.000 C 
ATOM      3  C   UNL     1      -1.382  11.732  23.009  0.00  0.00    +0.000 A 
ATOM      4  C   UNL     1      -2.603  12.361  23.096  0.00  0.00    +0.000 A 
ATOM      5  C   UNL     1      -2.547  13.751  22.924  0.00  0.00    +0.000 A 
ATOM      6  C   UNL     1      -1.321  14.382  23.098  0.00  0.00    +0.000 A 
ATOM      7  C   UNL     1      -0.251  13.720  22.512  0.00  0.00    +0.000 A 
ATOM      8  C   UNL     1      -0.473  12.397  22.225  0.00  0.00    +0.000 A 
ATOM      9  N   UNL     1      -0.104  11.502  21.136  0.00  0.00    +0.000 N 
ATOM     10  C   UNL     1      -1.214  11.340  20.201  0.00  0.00    +0.000 C 
ATOM     11  C   UNL     1      -1.061  10.348  19.100  0.00  0.00    +0.000 C 
ATOM     12  O   UNL     1      -2.308  11.904  20.277  0.00  0.00    +0.000 OA
ENDROOT
BRANCH   1  14
ATOM     13  N   UNL     1       1.455   8.247  21.052  0.00  0.00    +0.000 N 
ATOM     14  C   UNL     1       0.250   8.777  21.458  0.00  0.00    +0.000 C 
ATOM     15  O   UNL     1      -0.713   8.013  21.615  0.00  0.00    +0.000 OA
ATOM     16  H   UNL     1       2.312   8.770  21.178  0.00  0.00    +0.000 HD
BRANCH  13  17
ATOM     17  C   UNL     1       1.563   6.802  20.859  0.00  0.00    +0.000 C 
BRANCH  17  21
ATOM     18  C   UNL     1       4.110   5.696  17.534  0.00  0.00    +0.000 A 
ATOM     19  C   UNL     1       3.587   6.986  17.627  0.00  0.00    +0.000 A 
ATOM     20  C   UNL     1       2.760   7.342  18.697  0.00  0.00    +0.000 A 
ATOM     21  C   UNL     1       2.416   6.403  19.681  0.00  0.00    +0.000 A 
ATOM     22  C   UNL     1       2.957   5.113  19.586  0.00  0.00    +0.000 A 
ATOM     23  C   UNL     1       3.783   4.757  18.511  0.00  0.00    +0.000 A 
BRANCH  18  24
ATOM     24  O   UNL     1       4.918   5.465  16.453  0.00  0.00    +0.000 OA
BRANCH  24  26
ATOM     25  C   UNL     1       7.140   5.412  17.325  0.00  0.00    +0.000 C 
ATOM     26  C   UNL     1       6.162   6.168  16.444  0.00  0.00    +0.000 C 
ENDBRANCH  24  26
ENDBRANCH  18  24
ENDBRANCH  17  21
ENDBRANCH  13  17
ENDBRANCH   1  14
BRANCH   5  27
ATOM     27  S   UNL     1      -3.553  14.524  21.630  0.00  0.00    +0.000 S 
ATOM     28  O   UNL     1      -2.678  15.017  20.585  0.00  0.00    +0.000 OA
ATOM     29  O   UNL     1      -4.541  13.513  21.294  0.00  0.00    +0.000 OA
BRANCH  27  30
ATOM     30  N   UNL     1      -4.400  15.785  22.349  0.00  0.00    +0.000 NA
ATOM     31  C   UNL     1      -5.092  15.682  23.644  0.00  0.00    +0.000 C 
ATOM     32  C   UNL     1      -6.527  16.079  23.358  0.00  0.00    +0.000 C 
ATOM     33  C   UNL     1      -6.452  17.018  22.170  0.00  0.00    +0.000 C 
ATOM     34  C   UNL     1      -5.081  16.794  21.531  0.00  0.00    +0.000 C 
ENDBRANCH  27  30
ENDBRANCH   5  27
TORSDOF 7
ENDMDL
MODEL 7
REMARK VINA RESULT:      -7.0      1.601      2.013
REMARK  Name = 
REMARK  9 active torsions:
REMARK  status: ('A' for Active; 'I' for Inactive)
REMARK    1  A    between atoms: C_1  and  C_2
REMARK    2  A    between atoms: C_2  and  O_3
REMARK    3  A    between atoms: O_3  and  C_4
REMARK    4  A    between atoms: C_7  and  C_8
REMARK    5  A    between atoms: C_8  and  N_9
REMARK    6  A    between atoms: C_10  and  C_12
REMARK    7  A    between atoms: C_16  and  S_17
REMARK    8  A    between atoms: S_17  and  N_20
REMARK    9  A    between atoms: C_29  and  C_30
REMARK                            x       y       z     vdW  Elec       q    Type
REMARK                         _______ _______ _______ _____ _____    ______ ____
ROOT
ATOM      1  C   UNL     1       0.072  10.264  21.922  0.00  0.00    +0.000 C 
ATOM      2  C   UNL     1      -0.984  10.296  23.087  0.00  0.00    +0.000 C 
ATOM      3  C   UNL     1      -1.535  11.675  22.980  0.00  0.00    +0.000 A 
ATOM      4  C   UNL     1      -2.774  12.276  23.020  0.00  0.00    +0.000 A 
ATOM      5  C   UNL     1      -2.740  13.671  22.890  0.00  0.00    +0.000 A 
ATOM      6  C   UNL     1      -1.540  14.322  23.147  0.00  0.00    +0.000 A 
ATOM      7  C   UNL     1      -0.426  13.701  22.600  0.00  0.00    +0.000 A 
ATOM      8  C   UNL     1      -0.603  12.382  22.264  0.00  0.00    +0.000 A 
ATOM      9  N   UNL     1      -0.157  11.528  21.171  0.00  0.00    +0.000 N 
ATOM     10  C   UNL     1      -1.213  11.370  20.175  0.00  0.00    +0.000 C 
ATOM     11  C   UNL     1      -0.979  10.414  19.056  0.00  0.00    +0.000 C 
ATOM     12  O   UNL     1      -2.321  11.908  20.209  0.00  0.00    +0.000 OA
ENDROOT
BRANCH   1  14
ATOM     13  N   UNL     1       1.459   8.340  20.984  0.00  0.00    +0.000 N 
ATOM     14  C   UNL     1       0.242   8.803  21.435  0.00  0.00    +0.000 C 
ATOM     15  O   UNL     1      -0.679   7.990  21.601  0.00  0.00    +0.000 OA
ATOM     16  H   UNL     1       2.293   8.901  21.098  0.00  0.00    +0.000 HD
BRANCH  13  17
ATOM     17  C   UNL     1       1.629   6.906  20.756  0.00  0.00    +0.000 C 
BRANCH  17  21
ATOM     18  C   UNL     1       4.157   5.904  17.384  0.00  0.00    +0.000 A 
ATOM     19  C   UNL     1       3.893   4.961  18.375  0.00  0.00    +0.000 A 
ATOM     20  C   UNL     1       3.082   5.285  19.468  0.00  0.00    +0.000 A 
ATOM     21  C   UNL     1       2.542   6.573  19.603  0.00  0.00    +0.000 A 
ATOM     22  C   UNL     1       2.802   7.511  18.594  0.00  0.00    +0.000 A 
ATOM     23  C   UNL     1       3.617   7.185  17.502  0.00  0.00    +0.000 A 
BRANCH  18  24
ATOM     24  O   UNL     1       4.950   5.472  16.355  0.00  0.00    +0.000 OA
BRANCH  24  26
ATOM     25  C   UNL     1       7.117   6.224  17.021  0.00  0.00    +0.000 C 
ATOM     26  C   UNL     1       6.252   5.012  16.725  0.00  0.00    +0.000 C 
ENDBRANCH  24  26
ENDBRANCH  18  24
ENDBRANCH  17  21
ENDBRANCH  13  17
ENDBRANCH   1  14
BRANCH   5  27
ATOM     27  S   UNL     1      -3.695  14.460  21.568  0.00  0.00    +0.000 S 
ATOM     28  O   UNL     1      -4.224  15.718  22.055  0.00  0.00    +0.000 OA
ATOM     29  O   UNL     1      -2.788  14.477  20.433  0.00  0.00    +0.000 OA
BRANCH  27  30
ATOM     30  N   UNL     1      -4.938  13.405  21.157  0.00  0.00    +0.000 NA
ATOM     31  C   UNL     1      -5.419  13.193  19.782  0.00  0.00    +0.000 C 
ATOM     32  C   UNL     1      -6.905  13.491  19.833  0.00  0.00    +0.000 C 
ATOM     33  C   UNL     1      -7.326  13.179  21.257  0.00  0.00    +0.000 C 
ATOM     34  C   UNL     1      -6.042  13.147  22.086  0.00  0.00    +0.000 C 
ENDBRANCH  27  30
ENDBRANCH   5  27
TORSDOF 7
ENDMDL
MODEL 8
REMARK VINA RESULT:      -7.0      0.842      1.240
REMARK  Name = 
REMARK  9 active torsions:
REMARK  status: ('A' for Active; 'I' for Inactive)
REMARK    1  A    between atoms: C_1  and  C_2
REMARK    2  A    between atoms: C_2  and  O_3
REMARK    3  A    between atoms: O_3  and  C_4
REMARK    4  A    between atoms: C_7  and  C_8
REMARK    5  A    between atoms: C_8  and  N_9
REMARK    6  A    between atoms: C_10  and  C_12
REMARK    7  A    between atoms: C_16  and  S_17
REMARK    8  A    between atoms: S_17  and  N_20
REMARK    9  A    between atoms: C_29  and  C_30
REMARK                            x       y       z     vdW  Elec       q    Type
REMARK                         _______ _______ _______ _____ _____    ______ ____
ROOT
ATOM      1  C   UNL     1       0.079  10.326  21.871  0.00  0.00    +0.000 C 
ATOM      2  C   UNL     1      -0.902  10.336  23.101  0.00  0.00    +0.000 C 
ATOM      3  C   UNL     1      -1.461  11.715  23.051  0.00  0.00    +0.000 A 
ATOM      4  C   UNL     1      -2.696  12.312  23.178  0.00  0.00    +0.000 A 
ATOM      5  C   UNL     1      -2.673  13.708  23.070  0.00  0.00    +0.000 A 
ATOM      6  C   UNL     1      -1.460  14.359  23.261  0.00  0.00    +0.000 A 
ATOM      7  C   UNL     1      -0.381  13.750  22.635  0.00  0.00    +0.000 A 
ATOM      8  C   UNL     1      -0.577  12.436  22.290  0.00  0.00    +0.000 A 
ATOM      9  N   UNL     1      -0.199  11.601  21.157  0.00  0.00    +0.000 N 
ATOM     10  C   UNL     1      -1.315  11.456  20.227  0.00  0.00    +0.000 C 
ATOM     11  C   UNL     1      -1.151  10.519  19.080  0.00  0.00    +0.000 C 
ATOM     12  O   UNL     1      -2.420  11.990  20.339  0.00  0.00    +0.000 OA
ENDROOT
BRANCH   1  14
ATOM     13  N   UNL     1       1.380   8.445  20.742  0.00  0.00    +0.000 N 
ATOM     14  C   UNL     1       0.220   8.873  21.351  0.00  0.00    +0.000 C 
ATOM     15  O   UNL     1      -0.652   8.036  21.625  0.00  0.00    +0.000 OA
ATOM     16  H   UNL     1       2.207   9.026  20.754  0.00  0.00    +0.000 HD
BRANCH  13  17
ATOM     17  C   UNL     1       1.555   7.017  20.479  0.00  0.00    +0.000 C 
BRANCH  17  21
ATOM     18  C   UNL     1       4.708   6.035  17.676  0.00  0.00    +0.000 A 
ATOM     19  C   UNL     1       4.546   5.295  18.846  0.00  0.00    +0.000 A 
ATOM     20  C   UNL     1       3.531   5.615  19.755  0.00  0.00    +0.000 A 
ATOM     21  C   UNL     1       2.677   6.703  19.522  0.00  0.00    +0.000 A 
ATOM     22  C   UNL     1       2.839   7.433  18.336  0.00  0.00    +0.000 A 
ATOM     23  C   UNL     1       3.858   7.112  17.428  0.00  0.00    +0.000 A 
BRANCH  18  24
ATOM     24  O   UNL     1       5.723   5.623  16.855  0.00  0.00    +0.000 OA
BRANCH  24  26
ATOM     25  C   UNL     1       6.570   4.674  14.834  0.00  0.00    +0.000 C 
ATOM     26  C   UNL     1       5.325   5.119  15.578  0.00  0.00    +0.000 C 
ENDBRANCH  24  26
ENDBRANCH  18  24
ENDBRANCH  17  21
ENDBRANCH  13  17
ENDBRANCH   1  14
BRANCH   5  27
ATOM     27  S   UNL     1      -3.710  14.516  21.823  0.00  0.00    +0.000 S 
ATOM     28  O   UNL     1      -2.863  15.011  20.755  0.00  0.00    +0.000 OA
ATOM     29  O   UNL     1      -4.724  13.526  21.506  0.00  0.00    +0.000 OA
BRANCH  27  30
ATOM     30  N   UNL     1      -4.512  15.780  22.588  0.00  0.00    +0.000 NA
ATOM     31  C   UNL     1      -5.677  15.603  23.471  0.00  0.00    +0.000 C 
ATOM     32  C   UNL     1      -6.763  16.474  22.870  0.00  0.00    +0.000 C 
ATOM     33  C   UNL     1      -6.028  17.588  22.149  0.00  0.00    +0.000 C 
ATOM     34  C   UNL     1      -4.589  17.106  21.968  0.00  0.00    +0.000 C 
ENDBRANCH  27  30
ENDBRANCH   5  27
TORSDOF 7
ENDMDL
MODEL 9
REMARK VINA RESULT:      -6.9      1.924      2.675
REMARK  Name = 
REMARK  9 active torsions:
REMARK  status: ('A' for Active; 'I' for Inactive)
REMARK    1  A    between atoms: C_1  and  C_2
REMARK    2  A    between atoms: C_2  and  O_3
REMARK    3  A    between atoms: O_3  and  C_4
REMARK    4  A    between atoms: C_7  and  C_8
REMARK    5  A    between atoms: C_8  and  N_9
REMARK    6  A    between atoms: C_10  and  C_12
REMARK    7  A    between atoms: C_16  and  S_17
REMARK    8  A    between atoms: S_17  and  N_20
REMARK    9  A    between atoms: C_29  and  C_30
REMARK                            x       y       z     vdW  Elec       q    Type
REMARK                         _______ _______ _______ _____ _____    ______ ____
ROOT
ATOM      1  C   UNL     1       0.849  12.240  20.450  0.00  0.00    +0.000 C 
ATOM      2  C   UNL     1       0.321  11.283  21.581  0.00  0.00    +0.000 C 
ATOM      3  C   UNL     1      -0.817  12.057  22.148  0.00  0.00    +0.000 A 
ATOM      4  C   UNL     1      -2.112  11.808  22.548  0.00  0.00    +0.000 A 
ATOM      5  C   UNL     1      -2.780  12.928  23.059  0.00  0.00    +0.000 A 
ATOM      6  C   UNL     1      -2.016  14.006  23.490  0.00  0.00    +0.000 A 
ATOM      7  C   UNL     1      -0.972  14.341  22.639  0.00  0.00    +0.000 A 
ATOM      8  C   UNL     1      -0.601  13.355  21.760  0.00  0.00    +0.000 A 
ATOM      9  N   UNL     1      -0.167  13.324  20.369  0.00  0.00    +0.000 N 
ATOM     10  C   UNL     1      -1.273  12.951  19.491  0.00  0.00    +0.000 C 
ATOM     11  C   UNL     1      -0.976  12.732  18.047  0.00  0.00    +0.000 C 
ATOM     12  O   UNL     1      -2.432  12.728  19.848  0.00  0.00    +0.000 OA
ENDROOT
BRANCH   1  14
ATOM     13  N   UNL     1       1.247  10.048  19.209  0.00  0.00    +0.000 N 
ATOM     14  C   UNL     1       1.527  11.390  19.346  0.00  0.00    +0.000 C 
ATOM     15  O   UNL     1       2.206  11.949  18.472  0.00  0.00    +0.000 OA
ATOM     16  H   UNL     1       0.489   9.629  19.730  0.00  0.00    +0.000 HD
BRANCH  13  17
ATOM     17  C   UNL     1       1.726   9.344  18.020  0.00  0.00    +0.000 C 
BRANCH  17  21
ATOM     18  C   UNL     1       3.729   5.590  18.833  0.00  0.00    +0.000 A 
ATOM     19  C   UNL     1       2.772   6.087  19.716  0.00  0.00    +0.000 A 
ATOM     20  C   UNL     1       2.129   7.302  19.458  0.00  0.00    +0.000 A 
ATOM     21  C   UNL     1       2.454   8.059  18.322  0.00  0.00    +0.000 A 
ATOM     22  C   UNL     1       3.408   7.545  17.433  0.00  0.00    +0.000 A 
ATOM     23  C   UNL     1       4.054   6.328  17.695  0.00  0.00    +0.000 A 
BRANCH  18  24
ATOM     24  O   UNL     1       4.283   4.387  19.179  0.00  0.00    +0.000 OA
BRANCH  24  26
ATOM     25  C   UNL     1       3.329   2.569  17.960  0.00  0.00    +0.000 C 
ATOM     26  C   UNL     1       4.532   3.483  18.101  0.00  0.00    +0.000 C 
ENDBRANCH  24  26
ENDBRANCH  18  24
ENDBRANCH  17  21
ENDBRANCH  13  17
ENDBRANCH   1  14
BRANCH   5  27
ATOM     27  S   UNL     1      -4.350  13.439  22.310  0.00  0.00    +0.000 S 
ATOM     28  O   UNL     1      -4.091  14.495  21.350  0.00  0.00    +0.000 OA
ATOM     29  O   UNL     1      -4.942  12.199  21.840  0.00  0.00    +0.000 OA
BRANCH  27  30
ATOM     30  N   UNL     1      -5.337  13.988  23.554  0.00  0.00    +0.000 NA
ATOM     31  C   UNL     1      -6.477  13.232  24.097  0.00  0.00    +0.000 C 
ATOM     32  C   UNL     1      -7.669  14.159  23.957  0.00  0.00    +0.000 C 
ATOM     33  C   UNL     1      -7.092  15.561  24.011  0.00  0.00    +0.000 C 
ATOM     34  C   UNL     1      -5.595  15.421  23.732  0.00  0.00    +0.000 C 
ENDBRANCH  27  30
ENDBRANCH   5  27
TORSDOF 7
ENDMDL
