MODEL 1
REMARK VINA RESULT:      -8.1      0.000      0.000
REMARK  Name = 
REMARK  6 active torsions:
REMARK  status: ('A' for Active; 'I' for Inactive)
REMARK    1  A    between atoms: C_2  and  C_3
REMARK    2  A    between atoms: C_2  and  C_17
REMARK    3  A    between atoms: C_4  and  C_5
REMARK    4  A    between atoms: C_8  and  N_9
REMARK    5  A    between atoms: C_20  and  O_21
REMARK    6  A    between atoms: C_23  and  O_24
REMARK                            x       y       z     vdW  Elec       q    Type
REMARK                         _______ _______ _______ _____ _____    ______ ____
ROOT
ATOM      1  C   UNL     1       3.477   4.654  18.550  0.00  0.00    +0.000 C 
ATOM      2  C   UNL     1       3.089   5.843  18.071  0.00  0.00    +0.000 C 
ENDROOT
BRANCH   2   3
ATOM      3  C   UNL     1       2.434   6.855  18.911  0.00  0.00    +0.000 A 
ATOM      4  C   UNL     1       2.140   8.104  18.368  0.00  0.00    +0.000 A 
ATOM      5  C   UNL     1       1.535   9.095  19.150  0.00  0.00    +0.000 A 
ATOM      6  C   UNL     1       1.186   8.876  20.492  0.00  0.00    +0.000 A 
ATOM      7  C   UNL     1       1.448   7.603  21.010  0.00  0.00    +0.000 A 
ATOM      8  C   UNL     1       2.053   6.606  20.234  0.00  0.00    +0.000 A 
BRANCH   6   9
ATOM      9  N   UNL     1       0.569   9.868  21.230  0.00  0.00    +0.000 N 
ATOM     10  C   UNL     1       0.467   9.806  22.686  0.00  0.00    +0.000 C 
ATOM     11  C   UNL     1      -0.951  10.224  23.083  0.00  0.00    +0.000 C 
ATOM     12  C   UNL     1      -1.329  11.584  22.496  0.00  0.00    +0.000 C 
ATOM     13  C   UNL     1      -1.079  11.636  20.987  0.00  0.00    +0.000 C 
ATOM     14  C   UNL     1       0.340  11.190  20.642  0.00  0.00    +0.000 C 
ENDBRANCH   6   9
ENDBRANCH   2   3
BRANCH   1  16
ATOM     15  O   UNL     1       3.717   2.468  17.657  0.00  0.00    +0.000 OA
ATOM     16  C   UNL     1       4.099   3.633  17.670  0.00  0.00    +0.000 C 
BRANCH  16  17
ATOM     17  C   UNL     1       5.163   4.096  16.734  0.00  0.00    +0.000 A 
ATOM     18  C   UNL     1       4.815   4.234  15.382  0.00  0.00    +0.000 A 
ATOM     19  C   UNL     1       5.762   4.672  14.447  0.00  0.00    +0.000 A 
ATOM     20  C   UNL     1       7.056   4.954  14.870  0.00  0.00    +0.000 A 
ATOM     21  C   UNL     1       7.425   4.802  16.200  0.00  0.00    +0.000 A 
ATOM     22  C   UNL     1       6.481   4.373  17.134  0.00  0.00    +0.000 A 
BRANCH  20  23
ATOM     23  O   UNL     1       8.011   5.386  13.997  0.00  0.00    +0.000 OA
ATOM     24  H   UNL     1       7.601   5.985  13.353  0.00  0.00    +0.000 HD
ENDBRANCH  20  23
BRANCH  22  25
ATOM     25  O   UNL     1       6.874   4.211  18.433  0.00  0.00    +0.000 OA
ATOM     26  H   UNL     1       6.511   4.933  18.974  0.00  0.00    +0.000 HD
ENDBRANCH  22  25
ENDBRANCH  16  17
ENDBRANCH   1  16
TORSDOF 6
ENDMDL
MODEL 2
REMARK VINA RESULT:      -8.1      1.268      1.653
REMARK  Name = 
REMARK  6 active torsions:
REMARK  status: ('A' for Active; 'I' for Inactive)
REMARK    1  A    between atoms: C_2  and  C_3
REMARK    2  A    between atoms: C_2  and  C_17
REMARK    3  A    between atoms: C_4  and  C_5
REMARK    4  A    between atoms: C_8  and  N_9
REMARK    5  A    between atoms: C_20  and  O_21
REMARK    6  A    between atoms: C_23  and  O_24
REMARK                            x       y       z     vdW  Elec       q    Type
REMARK                         _______ _______ _______ _____ _____    ______ ____
ROOT
ATOM      1  C   UNL     1       2.794   5.321  18.698  0.00  0.00    +0.000 C 
ATOM      2  C   UNL     1       3.214   6.582  18.857  0.00  0.00    +0.000 C 
ENDROOT
BRANCH   2   3
ATOM      3  C   UNL     1       2.286   7.701  19.068  0.00  0.00    +0.000 A 
ATOM      4  C   UNL     1       1.923   8.497  17.984  0.00  0.00    +0.000 A 
ATOM      5  C   UNL     1       1.057   9.584  18.158  0.00  0.00    +0.000 A 
ATOM      6  C   UNL     1       0.509   9.907  19.409  0.00  0.00    +0.000 A 
ATOM      7  C   UNL     1       0.850   9.072  20.479  0.00  0.00    +0.000 A 
ATOM      8  C   UNL     1       1.715   7.984  20.314  0.00  0.00    +0.000 A 
BRANCH   6   9
ATOM      9  N   UNL     1      -0.361  10.973  19.543  0.00  0.00    +0.000 N 
ATOM     10  C   UNL     1      -0.283  11.905  20.665  0.00  0.00    +0.000 C 
ATOM     11  C   UNL     1      -1.706  12.165  21.166  0.00  0.00    +0.000 C 
ATOM     12  C   UNL     1      -2.630  12.631  20.041  0.00  0.00    +0.000 C 
ATOM     13  C   UNL     1      -2.572  11.688  18.838  0.00  0.00    +0.000 C 
ATOM     14  C   UNL     1      -1.133  11.443  18.391  0.00  0.00    +0.000 C 
ENDBRANCH   6   9
ENDBRANCH   2   3
BRANCH   1  16
ATOM     15  O   UNL     1       3.604   3.103  18.941  0.00  0.00    +0.000 OA
ATOM     16  C   UNL     1       3.751   4.214  18.444  0.00  0.00    +0.000 C 
BRANCH  16  17
ATOM     17  C   UNL     1       4.864   4.480  17.490  0.00  0.00    +0.000 A 
ATOM     18  C   UNL     1       4.537   4.576  16.129  0.00  0.00    +0.000 A 
ATOM     19  C   UNL     1       5.531   4.832  15.175  0.00  0.00    +0.000 A 
ATOM     20  C   UNL     1       6.850   4.976  15.590  0.00  0.00    +0.000 A 
ATOM     21  C   UNL     1       7.197   4.863  16.931  0.00  0.00    +0.000 A 
ATOM     22  C   UNL     1       6.206   4.615  17.882  0.00  0.00    +0.000 A 
BRANCH  20  23
ATOM     23  O   UNL     1       7.852   5.229  14.700  0.00  0.00    +0.000 OA
ATOM     24  H   UNL     1       7.869   4.521  14.036  0.00  0.00    +0.000 HD
ENDBRANCH  20  23
BRANCH  22  25
ATOM     25  O   UNL     1       6.576   4.487  19.191  0.00  0.00    +0.000 OA
ATOM     26  H   UNL     1       7.488   4.152  19.239  0.00  0.00    +0.000 HD
ENDBRANCH  22  25
ENDBRANCH  16  17
ENDBRANCH   1  16
TORSDOF 6
ENDMDL
MODEL 3
REMARK VINA RESULT:      -8.0      1.294      1.888
REMARK  Name = 
REMARK  6 active torsions:
REMARK  status: ('A' for Active; 'I' for Inactive)
REMARK    1  A    between atoms: C_2  and  C_3
REMARK    2  A    between atoms: C_2  and  C_17
REMARK    3  A    between atoms: C_4  and  C_5
REMARK    4  A    between atoms: C_8  and  N_9
REMARK    5  A    between atoms: C_20  and  O_21
REMARK    6  A    between atoms: C_23  and  O_24
REMARK                            x       y       z     vdW  Elec       q    Type
REMARK                         _______ _______ _______ _____ _____    ______ ____
ROOT
ATOM      1  C   UNL     1       3.184   5.467  19.629  0.00  0.00    +0.000 C 
ATOM      2  C   UNL     1       3.044   6.476  18.760  0.00  0.00    +0.000 C 
ENDROOT
BRANCH   2   3
ATOM      3  C   UNL     1       2.222   7.659  19.051  0.00  0.00    +0.000 A 
ATOM      4  C   UNL     1       1.738   7.849  20.343  0.00  0.00    +0.000 A 
ATOM      5  C   UNL     1       0.934   8.956  20.646  0.00  0.00    +0.000 A 
ATOM      6  C   UNL     1       0.598   9.918  19.682  0.00  0.00    +0.000 A 
ATOM      7  C   UNL     1       1.128   9.736  18.400  0.00  0.00    +0.000 A 
ATOM      8  C   UNL     1       1.932   8.632  18.089  0.00  0.00    +0.000 A 
BRANCH   6   9
ATOM      9  N   UNL     1      -0.178  11.011  20.019  0.00  0.00    +0.000 N 
ATOM     10  C   UNL     1      -0.101  11.646  21.332  0.00  0.00    +0.000 C 
ATOM     11  C   UNL     1      -1.527  11.934  21.806  0.00  0.00    +0.000 C 
ATOM     12  C   UNL     1      -2.317  12.743  20.776  0.00  0.00    +0.000 C 
ATOM     13  C   UNL     1      -2.255  12.103  19.389  0.00  0.00    +0.000 C 
ATOM     14  C   UNL     1      -0.814  11.814  18.972  0.00  0.00    +0.000 C 
ENDBRANCH   6   9
ENDBRANCH   2   3
BRANCH   1  16
ATOM     15  O   UNL     1       3.770   3.174  19.810  0.00  0.00    +0.000 OA
ATOM     16  C   UNL     1       3.986   4.264  19.292  0.00  0.00    +0.000 C 
BRANCH  16  17
ATOM     17  C   UNL     1       5.023   4.411  18.232  0.00  0.00    +0.000 A 
ATOM     18  C   UNL     1       4.671   4.026  16.929  0.00  0.00    +0.000 A 
ATOM     19  C   UNL     1       5.593   4.143  15.880  0.00  0.00    +0.000 A 
ATOM     20  C   UNL     1       6.868   4.632  16.146  0.00  0.00    +0.000 A 
ATOM     21  C   UNL     1       7.242   4.997  17.433  0.00  0.00    +0.000 A 
ATOM     22  C   UNL     1       6.322   4.888  18.477  0.00  0.00    +0.000 A 
BRANCH  20  23
ATOM     23  O   UNL     1       7.798   4.767  15.158  0.00  0.00    +0.000 OA
ATOM     24  H   UNL     1       8.610   4.307  15.426  0.00  0.00    +0.000 HD
ENDBRANCH  20  23
BRANCH  22  25
ATOM     25  O   UNL     1       6.721   5.233  19.738  0.00  0.00    +0.000 OA
ATOM     26  H   UNL     1       6.603   6.190  19.864  0.00  0.00    +0.000 HD
ENDBRANCH  22  25
ENDBRANCH  16  17
ENDBRANCH   1  16
TORSDOF 6
ENDMDL
MODEL 4
REMARK VINA RESULT:      -7.9      0.910      1.524
REMARK  Name = 
REMARK  6 active torsions:
REMARK  status: ('A' for Active; 'I' for Inactive)
REMARK    1  A    between atoms: C_2  and  C_3
REMARK    2  A    between atoms: C_2  and  C_17
REMARK    3  A    between atoms: C_4  and  C_5
REMARK    4  A    between atoms: C_8  and  N_9
REMARK    5  A    between atoms: C_20  and  O_21
REMARK    6  A    between atoms: C_23  and  O_24
REMARK                            x       y       z     vdW  Elec       q    Type
REMARK                         _______ _______ _______ _____ _____    ______ ____
ROOT
ATOM      1  C   UNL     1       3.022   4.908  18.094  0.00  0.00    +0.000 C 
ATOM      2  C   UNL     1       3.484   6.151  18.281  0.00  0.00    +0.000 C 
ENDROOT
BRANCH   2   3
ATOM      3  C   UNL     1       2.620   7.257  18.715  0.00  0.00    +0.000 A 
ATOM      4  C   UNL     1       2.269   8.245  17.799  0.00  0.00    +0.000 A 
ATOM      5  C   UNL     1       1.463   9.323  18.189  0.00  0.00    +0.000 A 
ATOM      6  C   UNL     1       0.965   9.446  19.496  0.00  0.00    +0.000 A 
ATOM      7  C   UNL     1       1.291   8.422  20.392  0.00  0.00    +0.000 A 
ATOM      8  C   UNL     1       2.096   7.342  20.010  0.00  0.00    +0.000 A 
BRANCH   6   9
ATOM      9  N   UNL     1       0.154  10.509  19.843  0.00  0.00    +0.000 N 
ATOM     10  C   UNL     1      -0.464  11.376  18.842  0.00  0.00    +0.000 C 
ATOM     11  C   UNL     1      -0.314  12.826  19.310  0.00  0.00    +0.000 C 
ATOM     12  C   UNL     1      -0.862  13.027  20.723  0.00  0.00    +0.000 C 
ATOM     13  C   UNL     1      -0.281  12.008  21.704  0.00  0.00    +0.000 C 
ATOM     14  C   UNL     1      -0.435  10.582  21.182  0.00  0.00    +0.000 C 
ENDBRANCH   6   9
ENDBRANCH   2   3
BRANCH   1  16
ATOM     15  O   UNL     1       3.692   2.641  17.879  0.00  0.00    +0.000 OA
ATOM     16  C   UNL     1       3.909   3.818  17.614  0.00  0.00    +0.000 C 
BRANCH  16  17
ATOM     17  C   UNL     1       5.040   4.202  16.723  0.00  0.00    +0.000 A 
ATOM     18  C   UNL     1       4.762   4.345  15.355  0.00  0.00    +0.000 A 
ATOM     19  C   UNL     1       5.775   4.711  14.459  0.00  0.00    +0.000 A 
ATOM     20  C   UNL     1       7.064   4.917  14.937  0.00  0.00    +0.000 A 
ATOM     21  C   UNL     1       7.364   4.759  16.284  0.00  0.00    +0.000 A 
ATOM     22  C   UNL     1       6.354   4.401  17.179  0.00  0.00    +0.000 A 
BRANCH  20  23
ATOM     23  O   UNL     1       8.082   5.277  14.104  0.00  0.00    +0.000 OA
ATOM     24  H   UNL     1       7.712   5.751  13.341  0.00  0.00    +0.000 HD
ENDBRANCH  20  23
BRANCH  22  25
ATOM     25  O   UNL     1       6.678   4.231  18.495  0.00  0.00    +0.000 OA
ATOM     26  H   UNL     1       7.001   3.324  18.634  0.00  0.00    +0.000 HD
ENDBRANCH  22  25
ENDBRANCH  16  17
ENDBRANCH   1  16
TORSDOF 6
ENDMDL
MODEL 5
REMARK VINA RESULT:      -7.9      1.382      2.248
REMARK  Name = 
REMARK  6 active torsions:
REMARK  status: ('A' for Active; 'I' for Inactive)
REMARK    1  A    between atoms: C_2  and  C_3
REMARK    2  A    between atoms: C_2  and  C_17
REMARK    3  A    between atoms: C_4  and  C_5
REMARK    4  A    between atoms: C_8  and  N_9
REMARK    5  A    between atoms: C_20  and  O_21
REMARK    6  A    between atoms: C_23  and  O_24
REMARK                            x       y       z     vdW  Elec       q    Type
REMARK                         _______ _______ _______ _____ _____    ______ ____
ROOT
ATOM      1  C   UNL     1       2.942   5.360  19.347  0.00  0.00    +0.000 C 
ATOM      2  C   UNL     1       3.113   6.500  18.665  0.00  0.00    +0.000 C 
ENDROOT
BRANCH   2   3
ATOM      3  C   UNL     1       2.268   7.682  18.882  0.00  0.00    +0.000 A 
ATOM      4  C   UNL     1       1.792   7.951  20.163  0.00  0.00    +0.000 A 
ATOM      5  C   UNL     1       0.968   9.060  20.397  0.00  0.00    +0.000 A 
ATOM      6  C   UNL     1       0.602   9.946  19.372  0.00  0.00    +0.000 A 
ATOM      7  C   UNL     1       1.124   9.686  18.101  0.00  0.00    +0.000 A 
ATOM      8  C   UNL     1       1.949   8.580  17.858  0.00  0.00    +0.000 A 
BRANCH   6   9
ATOM      9  N   UNL     1      -0.194  11.043  19.641  0.00  0.00    +0.000 N 
ATOM     10  C   UNL     1      -0.790  11.852  18.580  0.00  0.00    +0.000 C 
ATOM     11  C   UNL     1      -0.619  13.326  18.952  0.00  0.00    +0.000 C 
ATOM     12  C   UNL     1      -1.174  13.630  20.344  0.00  0.00    +0.000 C 
ATOM     13  C   UNL     1      -0.618  12.669  21.396  0.00  0.00    +0.000 C 
ATOM     14  C   UNL     1      -0.791  11.213  20.967  0.00  0.00    +0.000 C 
ENDBRANCH   6   9
ENDBRANCH   2   3
BRANCH   1  16
ATOM     15  O   UNL     1       3.548   3.078  19.592  0.00  0.00    +0.000 OA
ATOM     16  C   UNL     1       3.782   4.166  19.077  0.00  0.00    +0.000 C 
BRANCH  16  17
ATOM     17  C   UNL     1       4.885   4.317  18.087  0.00  0.00    +0.000 A 
ATOM     18  C   UNL     1       4.610   3.961  16.757  0.00  0.00    +0.000 A 
ATOM     19  C   UNL     1       5.597   4.084  15.770  0.00  0.00    +0.000 A 
ATOM     20  C   UNL     1       6.858   4.550  16.124  0.00  0.00    +0.000 A 
ATOM     21  C   UNL     1       7.156   4.887  17.439  0.00  0.00    +0.000 A 
ATOM     22  C   UNL     1       6.172   4.772  18.421  0.00  0.00    +0.000 A 
BRANCH  20  23
ATOM     23  O   UNL     1       7.850   4.690  15.198  0.00  0.00    +0.000 OA
ATOM     24  H   UNL     1       7.499   4.457  14.324  0.00  0.00    +0.000 HD
ENDBRANCH  20  23
BRANCH  22  25
ATOM     25  O   UNL     1       6.496   5.089  19.710  0.00  0.00    +0.000 OA
ATOM     26  H   UNL     1       6.681   6.041  19.772  0.00  0.00    +0.000 HD
ENDBRANCH  22  25
ENDBRANCH  16  17
ENDBRANCH   1  16
TORSDOF 6
ENDMDL
MODEL 6
REMARK VINA RESULT:      -7.7      6.537      7.783
REMARK  Name = 
REMARK  6 active torsions:
REMARK  status: ('A' for Active; 'I' for Inactive)
REMARK    1  A    between atoms: C_2  and  C_3
REMARK    2  A    between atoms: C_2  and  C_17
REMARK    3  A    between atoms: C_4  and  C_5
REMARK    4  A    between atoms: C_8  and  N_9
REMARK    5  A    between atoms: C_20  and  O_21
REMARK    6  A    between atoms: C_23  and  O_24
REMARK                            x       y       z     vdW  Elec       q    Type
REMARK                         _______ _______ _______ _____ _____    ______ ____
ROOT
ATOM      1  C   UNL     1       7.220   8.099  17.315  0.00  0.00    +0.000 C 
ATOM      2  C   UNL     1       8.246   8.378  18.130  0.00  0.00    +0.000 C 
ENDROOT
BRANCH   2   3
ATOM      3  C   UNL     1       8.664   9.754  18.427  0.00  0.00    +0.000 A 
ATOM      4  C   UNL     1       9.403  10.007  19.580  0.00  0.00    +0.000 A 
ATOM      5  C   UNL     1       9.799  11.312  19.900  0.00  0.00    +0.000 A 
ATOM      6  C   UNL     1       9.488  12.407  19.078  0.00  0.00    +0.000 A 
ATOM      7  C   UNL     1       8.783  12.131  17.902  0.00  0.00    +0.000 A 
ATOM      8  C   UNL     1       8.384  10.829  17.575  0.00  0.00    +0.000 A 
BRANCH   6   9
ATOM      9  N   UNL     1       9.912  13.680  19.411  0.00  0.00    +0.000 N 
ATOM     10  C   UNL     1      10.818  13.931  20.529  0.00  0.00    +0.000 C 
ATOM     11  C   UNL     1      10.298  15.146  21.299  0.00  0.00    +0.000 C 
ATOM     12  C   UNL     1      10.096  16.356  20.386  0.00  0.00    +0.000 C 
ATOM     13  C   UNL     1       9.249  16.003  19.162  0.00  0.00    +0.000 C 
ATOM     14  C   UNL     1       9.796  14.772  18.442  0.00  0.00    +0.000 C 
ENDBRANCH   6   9
ENDBRANCH   2   3
BRANCH   1  16
ATOM     15  O   UNL     1       7.549   5.980  16.299  0.00  0.00    +0.000 OA
ATOM     16  C   UNL     1       6.844   6.697  16.999  0.00  0.00    +0.000 C 
BRANCH  16  17
ATOM     17  C   UNL     1       5.607   6.163  17.634  0.00  0.00    +0.000 A 
ATOM     18  C   UNL     1       4.438   6.930  17.514  0.00  0.00    +0.000 A 
ATOM     19  C   UNL     1       3.236   6.486  18.080  0.00  0.00    +0.000 A 
ATOM     20  C   UNL     1       3.215   5.282  18.776  0.00  0.00    +0.000 A 
ATOM     21  C   UNL     1       4.367   4.520  18.926  0.00  0.00    +0.000 A 
ATOM     22  C   UNL     1       5.563   4.958  18.356  0.00  0.00    +0.000 A 
BRANCH  20  23
ATOM     23  O   UNL     1       2.069   4.808  19.342  0.00  0.00    +0.000 OA
ATOM     24  H   UNL     1       1.650   5.521  19.850  0.00  0.00    +0.000 HD
ENDBRANCH  20  23
BRANCH  22  25
ATOM     25  O   UNL     1       6.687   4.201  18.535  0.00  0.00    +0.000 OA
ATOM     26  H   UNL     1       6.632   3.403  17.980  0.00  0.00    +0.000 HD
ENDBRANCH  22  25
ENDBRANCH  16  17
ENDBRANCH   1  16
TORSDOF 6
ENDMDL
MODEL 7
REMARK VINA RESULT:      -7.7      1.116      1.284
REMARK  Name = 
REMARK  6 active torsions:
REMARK  status: ('A' for Active; 'I' for Inactive)
REMARK    1  A    between atoms: C_2  and  C_3
REMARK    2  A    between atoms: C_2  and  C_17
REMARK    3  A    between atoms: C_4  and  C_5
REMARK    4  A    between atoms: C_8  and  N_9
REMARK    5  A    between atoms: C_20  and  O_21
REMARK    6  A    between atoms: C_23  and  O_24
REMARK                            x       y       z     vdW  Elec       q    Type
REMARK                         _______ _______ _______ _____ _____    ______ ____
ROOT
ATOM      1  C   UNL     1       4.254   5.618  19.143  0.00  0.00    +0.000 C 
ATOM      2  C   UNL     1       3.247   6.127  18.421  0.00  0.00    +0.000 C 
ENDROOT
BRANCH   2   3
ATOM      3  C   UNL     1       2.455   7.278  18.875  0.00  0.00    +0.000 A 
ATOM      4  C   UNL     1       2.122   8.276  17.963  0.00  0.00    +0.000 A 
ATOM      5  C   UNL     1       1.386   9.396  18.373  0.00  0.00    +0.000 A 
ATOM      6  C   UNL     1       0.942   9.554  19.695  0.00  0.00    +0.000 A 
ATOM      7  C   UNL     1       1.248   8.521  20.588  0.00  0.00    +0.000 A 
ATOM      8  C   UNL     1       1.984   7.398  20.187  0.00  0.00    +0.000 A 
BRANCH   6   9
ATOM      9  N   UNL     1       0.198  10.659  20.061  0.00  0.00    +0.000 N 
ATOM     10  C   UNL     1       0.313  11.272  21.382  0.00  0.00    +0.000 C 
ATOM     11  C   UNL     1      -1.098  11.587  21.884  0.00  0.00    +0.000 C 
ATOM     12  C   UNL     1      -1.885  12.430  20.880  0.00  0.00    +0.000 C 
ATOM     13  C   UNL     1      -1.862  11.809  19.482  0.00  0.00    +0.000 C 
ATOM     14  C   UNL     1      -0.436  11.493  19.037  0.00  0.00    +0.000 C 
ENDBRANCH   6   9
ENDBRANCH   2   3
BRANCH   1  16
ATOM     15  O   UNL     1       5.076   3.400  19.346  0.00  0.00    +0.000 OA
ATOM     16  C   UNL     1       5.011   4.427  18.680  0.00  0.00    +0.000 C 
BRANCH  16  17
ATOM     17  C   UNL     1       5.630   4.496  17.326  0.00  0.00    +0.000 A 
ATOM     18  C   UNL     1       4.819   4.162  16.230  0.00  0.00    +0.000 A 
ATOM     19  C   UNL     1       5.331   4.212  14.927  0.00  0.00    +0.000 A 
ATOM     20  C   UNL     1       6.657   4.582  14.731  0.00  0.00    +0.000 A 
ATOM     21  C   UNL     1       7.482   4.895  15.804  0.00  0.00    +0.000 A 
ATOM     22  C   UNL     1       6.970   4.852  17.102  0.00  0.00    +0.000 A 
BRANCH  20  23
ATOM     23  O   UNL     1       7.200   4.648  13.481  0.00  0.00    +0.000 OA
ATOM     24  H   UNL     1       6.509   4.909  12.851  0.00  0.00    +0.000 HD
ENDBRANCH  20  23
BRANCH  22  25
ATOM     25  O   UNL     1       7.806   5.143  18.143  0.00  0.00    +0.000 OA
ATOM     26  H   UNL     1       8.122   6.060  18.059  0.00  0.00    +0.000 HD
ENDBRANCH  22  25
ENDBRANCH  16  17
ENDBRANCH   1  16
TORSDOF 6
ENDMDL
MODEL 8
REMARK VINA RESULT:      -7.6      2.487      3.803
REMARK  Name = 
REMARK  6 active torsions:
REMARK  status: ('A' for Active; 'I' for Inactive)
REMARK    1  A    between atoms: C_2  and  C_3
REMARK    2  A    between atoms: C_2  and  C_17
REMARK    3  A    between atoms: C_4  and  C_5
REMARK    4  A    between atoms: C_8  and  N_9
REMARK    5  A    between atoms: C_20  and  O_21
REMARK    6  A    between atoms: C_23  and  O_24
REMARK                            x       y       z     vdW  Elec       q    Type
REMARK                         _______ _______ _______ _____ _____    ______ ____
ROOT
ATOM      1  C   UNL     1       2.522   7.698  18.469  0.00  0.00    +0.000 C 
ATOM      2  C   UNL     1       2.116   7.692  19.745  0.00  0.00    +0.000 C 
ENDROOT
BRANCH   2   3
ATOM      3  C   UNL     1       1.199   8.706  20.284  0.00  0.00    +0.000 A 
ATOM      4  C   UNL     1       0.647   9.651  19.423  0.00  0.00    +0.000 A 
ATOM      5  C   UNL     1      -0.213  10.642  19.912  0.00  0.00    +0.000 A 
ATOM      6  C   UNL     1      -0.567  10.719  21.268  0.00  0.00    +0.000 A 
ATOM      7  C   UNL     1      -0.038   9.737  22.112  0.00  0.00    +0.000 A 
ATOM      8  C   UNL     1       0.823   8.742  21.632  0.00  0.00    +0.000 A 
BRANCH   6   9
ATOM      9  N   UNL     1      -1.436  11.696  21.714  0.00  0.00    +0.000 N 
ATOM     10  C   UNL     1      -1.545  12.056  23.126  0.00  0.00    +0.000 C 
ATOM     11  C   UNL     1      -3.030  12.197  23.469  0.00  0.00    +0.000 C 
ATOM     12  C   UNL     1      -3.741  13.170  22.528  0.00  0.00    +0.000 C 
ATOM     13  C   UNL     1      -3.486  12.824  21.060  0.00  0.00    +0.000 C 
ATOM     14  C   UNL     1      -1.993  12.672  20.775  0.00  0.00    +0.000 C 
ENDBRANCH   6   9
ENDBRANCH   2   3
BRANCH   1  16
ATOM     15  O   UNL     1       4.532   7.005  17.414  0.00  0.00    +0.000 OA
ATOM     16  C   UNL     1       3.483   6.685  17.960  0.00  0.00    +0.000 C 
BRANCH  16  17
ATOM     17  C   UNL     1       3.160   5.253  18.211  0.00  0.00    +0.000 A 
ATOM     18  C   UNL     1       1.892   4.799  17.816  0.00  0.00    +0.000 A 
ATOM     19  C   UNL     1       1.522   3.462  18.014  0.00  0.00    +0.000 A 
ATOM     20  C   UNL     1       2.420   2.591  18.621  0.00  0.00    +0.000 A 
ATOM     21  C   UNL     1       3.671   3.026  19.039  0.00  0.00    +0.000 A 
ATOM     22  C   UNL     1       4.043   4.356  18.835  0.00  0.00    +0.000 A 
BRANCH  20  23
ATOM     23  O   UNL     1       2.106   1.281  18.832  0.00  0.00    +0.000 OA
ATOM     24  H   UNL     1       2.029   1.126  19.787  0.00  0.00    +0.000 HD
ENDBRANCH  20  23
BRANCH  22  25
ATOM     25  O   UNL     1       5.271   4.765  19.275  0.00  0.00    +0.000 OA
ATOM     26  H   UNL     1       5.256   4.851  20.243  0.00  0.00    +0.000 HD
ENDBRANCH  22  25
ENDBRANCH  16  17
ENDBRANCH   1  16
TORSDOF 6
ENDMDL
MODEL 9
REMARK VINA RESULT:      -7.6      1.208      1.953
REMARK  Name = 
REMARK  6 active torsions:
REMARK  status: ('A' for Active; 'I' for Inactive)
REMARK    1  A    between atoms: C_2  and  C_3
REMARK    2  A    between atoms: C_2  and  C_17
REMARK    3  A    between atoms: C_4  and  C_5
REMARK    4  A    between atoms: C_8  and  N_9
REMARK    5  A    between atoms: C_20  and  O_21
REMARK    6  A    between atoms: C_23  and  O_24
REMARK                            x       y       z     vdW  Elec       q    Type
REMARK                         _______ _______ _______ _____ _____    ______ ____
ROOT
ATOM      1  C   UNL     1       4.078   5.563  19.209  0.00  0.00    +0.000 C 
ATOM      2  C   UNL     1       3.458   6.348  18.318  0.00  0.00    +0.000 C 
ENDROOT
BRANCH   2   3
ATOM      3  C   UNL     1       2.555   7.435  18.721  0.00  0.00    +0.000 A 
ATOM      4  C   UNL     1       2.076   7.473  20.028  0.00  0.00    +0.000 A 
ATOM      5  C   UNL     1       1.198   8.486  20.435  0.00  0.00    +0.000 A 
ATOM      6  C   UNL     1       0.778   9.503  19.563  0.00  0.00    +0.000 A 
ATOM      7  C   UNL     1       1.303   9.475  18.266  0.00  0.00    +0.000 A 
ATOM      8  C   UNL     1       2.181   8.466  17.851  0.00  0.00    +0.000 A 
BRANCH   6   9
ATOM      9  N   UNL     1      -0.071  10.500  20.002  0.00  0.00    +0.000 N 
ATOM     10  C   UNL     1      -1.156  11.020  19.173  0.00  0.00    +0.000 C 
ATOM     11  C   UNL     1      -1.162  12.545  19.298  0.00  0.00    +0.000 C 
ATOM     12  C   UNL     1      -1.232  12.996  20.758  0.00  0.00    +0.000 C 
ATOM     13  C   UNL     1      -0.156  12.320  21.609  0.00  0.00    +0.000 C 
ATOM     14  C   UNL     1      -0.176  10.803  21.431  0.00  0.00    +0.000 C 
ENDBRANCH   6   9
ENDBRANCH   2   3
BRANCH   1  16
ATOM     15  O   UNL     1       5.108   3.439  19.459  0.00  0.00    +0.000 OA
ATOM     16  C   UNL     1       4.953   4.444  18.774  0.00  0.00    +0.000 C 
BRANCH  16  17
ATOM     17  C   UNL     1       5.579   4.552  17.427  0.00  0.00    +0.000 A 
ATOM     18  C   UNL     1       4.837   4.082  16.332  0.00  0.00    +0.000 A 
ATOM     19  C   UNL     1       5.360   4.158  15.035  0.00  0.00    +0.000 A 
ATOM     20  C   UNL     1       6.630   4.691  14.843  0.00  0.00    +0.000 A 
ATOM     21  C   UNL     1       7.389   5.141  15.916  0.00  0.00    +0.000 A 
ATOM     22  C   UNL     1       6.866   5.072  17.208  0.00  0.00    +0.000 A 
BRANCH  20  23
ATOM     23  O   UNL     1       7.179   4.789  13.599  0.00  0.00    +0.000 OA
ATOM     24  H   UNL     1       6.553   4.430  12.949  0.00  0.00    +0.000 HD
ENDBRANCH  20  23
BRANCH  22  25
ATOM     25  O   UNL     1       7.640   5.501  18.249  0.00  0.00    +0.000 OA
ATOM     26  H   UNL     1       7.115   5.494  19.068  0.00  0.00    +0.000 HD
ENDBRANCH  22  25
ENDBRANCH  16  17
ENDBRANCH   1  16
TORSDOF 6
ENDMDL
