MODEL 1
REMARK VINA RESULT:      -7.2      0.000      0.000
REMARK  Name = 
REMARK  13 active torsions:
REMARK  status: ('A' for Active; 'I' for Inactive)
REMARK    1  A    between atoms: C_1  and  C_2
REMARK    2  A    between atoms: C_2  and  C_3
REMARK    3  A    between atoms: C_2  and  C_4
REMARK    4  A    between atoms: C_4  and  C_5
REMARK    5  A    between atoms: C_5  and  C_6
REMARK    6  A    between atoms: C_6  and  C_7
REMARK    7  A    between atoms: C_7  and  C_8
REMARK    8  A    between atoms: C_7  and  N_9
REMARK    9  A    between atoms: C_10  and  C_12
REMARK   10  A    between atoms: C_15  and  C_16
REMARK   11  A    between atoms: C_16  and  O_17
REMARK   12  A    between atoms: C_16  and  C_18
REMARK   13  A    between atoms: C_16  and  C_22
REMARK                            x       y       z     vdW  Elec       q    Type
REMARK                         _______ _______ _______ _____ _____    ______ ____
ROOT
ATOM      1  C   UNL     1       2.704   6.864  18.650  0.00  0.00    +0.000 C 
ATOM      2  N   UNL     1       3.874   6.681  19.164  0.00  0.00    +0.000 NA
ATOM      3  O   UNL     1       4.061   5.284  19.279  0.00  0.00    +0.000 OA
ATOM      4  C   UNL     1       2.944   4.602  18.658  0.00  0.00    +0.000 C 
ATOM      5  C   UNL     1       1.922   5.660  18.310  0.00  0.00    +0.000 C 
ENDROOT
BRANCH   1   7
ATOM      6  N   UNL     1       1.349   8.716  19.471  0.00  0.00    +0.000 N 
ATOM      7  C   UNL     1       2.096   8.234  18.420  0.00  0.00    +0.000 C 
ATOM      8  O   UNL     1       2.303   8.785  17.364  0.00  0.00    +0.000 OA
ATOM      9  H   UNL     1       1.359   8.185  20.342  0.00  0.00    +0.000 HD
BRANCH   6  10
ATOM     10  C   UNL     1       0.784  10.053  19.415  0.00  0.00    +0.000 C 
ATOM     11  C   UNL     1       1.128  10.836  20.679  0.00  0.00    +0.000 C 
BRANCH  10  12
ATOM     12  C   UNL     1      -0.736   9.993  19.144  0.00  0.00    +0.000 C 
BRANCH  12  13
ATOM     13  C   UNL     1      -1.048  10.048  17.643  0.00  0.00    +0.000 C 
BRANCH  13  14
ATOM     14  C   UNL     1      -2.127  11.073  17.288  0.00  0.00    +0.000 C 
BRANCH  14  16
ATOM     15  C   UNL     1      -4.565  11.285  16.680  0.00  0.00    +0.000 C 
ATOM     16  C   UNL     1      -3.297  10.448  16.496  0.00  0.00    +0.000 C 
ATOM     17  C   UNL     1      -2.995  10.305  15.002  0.00  0.00    +0.000 C 
ENDBRANCH  14  16
ENDBRANCH  13  14
ENDBRANCH  12  13
ENDBRANCH  10  12
ENDBRANCH   6  10
ENDBRANCH   1   7
BRANCH   4  18
ATOM     18  C   UNL     1       2.465   3.456  19.571  0.00  0.00    +0.000 C 
BRANCH  18  19
ATOM     19  C   UNL     1       1.635   3.965  20.757  0.00  0.00    +0.000 C 
ATOM     20  F   UNL     1       2.340   4.773  21.581  0.00  0.00    +0.000 F 
ATOM     21  F   UNL     1       0.512   4.630  20.429  0.00  0.00    +0.000 F 
ATOM     22  F   UNL     1       1.236   2.911  21.521  0.00  0.00    +0.000 F 
ENDBRANCH  18  19
BRANCH  18  23
ATOM     23  C   UNL     1       1.669   2.438  18.747  0.00  0.00    +0.000 C 
ATOM     24  F   UNL     1       2.143   2.353  17.476  0.00  0.00    +0.000 F 
ATOM     25  F   UNL     1       1.775   1.187  19.262  0.00  0.00    +0.000 F 
ATOM     26  F   UNL     1       0.354   2.703  18.630  0.00  0.00    +0.000 F 
ENDBRANCH  18  23
BRANCH  18  27
ATOM     27  O   UNL     1       3.708   2.832  20.074  0.00  0.00    +0.000 OA
ATOM     28  H   UNL     1       4.062   2.277  19.348  0.00  0.00    +0.000 HD
ENDBRANCH  18  27
ENDBRANCH   4  18
TORSDOF 10
ENDMDL
MODEL 2
REMARK VINA RESULT:      -7.1      4.664      6.944
REMARK  Name = 
REMARK  13 active torsions:
REMARK  status: ('A' for Active; 'I' for Inactive)
REMARK    1  A    between atoms: C_1  and  C_2
REMARK    2  A    between atoms: C_2  and  C_3
REMARK    3  A    between atoms: C_2  and  C_4
REMARK    4  A    between atoms: C_4  and  C_5
REMARK    5  A    between atoms: C_5  and  C_6
REMARK    6  A    between atoms: C_6  and  C_7
REMARK    7  A    between atoms: C_7  and  C_8
REMARK    8  A    between atoms: C_7  and  N_9
REMARK    9  A    between atoms: C_10  and  C_12
REMARK   10  A    between atoms: C_15  and  C_16
REMARK   11  A    between atoms: C_16  and  O_17
REMARK   12  A    between atoms: C_16  and  C_18
REMARK   13  A    between atoms: C_16  and  C_22
REMARK                            x       y       z     vdW  Elec       q    Type
REMARK                         _______ _______ _______ _____ _____    ______ ____
ROOT
ATOM      1  C   UNL     1       3.950   5.267  18.171  0.00  0.00    +0.000 C 
ATOM      2  N   UNL     1       2.855   5.501  17.530  0.00  0.00    +0.000 NA
ATOM      3  O   UNL     1       1.791   5.074  18.359  0.00  0.00    +0.000 OA
ATOM      4  C   UNL     1       2.323   4.671  19.645  0.00  0.00    +0.000 C 
ATOM      5  C   UNL     1       3.829   4.679  19.520  0.00  0.00    +0.000 C 
ENDROOT
BRANCH   1   7
ATOM      6  N   UNL     1       6.055   6.492  18.257  0.00  0.00    +0.000 N 
ATOM      7  C   UNL     1       5.329   5.527  17.596  0.00  0.00    +0.000 C 
ATOM      8  O   UNL     1       5.679   4.890  16.630  0.00  0.00    +0.000 OA
ATOM      9  H   UNL     1       5.671   6.863  19.125  0.00  0.00    +0.000 HD
BRANCH   6  10
ATOM     10  C   UNL     1       7.425   6.775  17.862  0.00  0.00    +0.000 C 
ATOM     11  C   UNL     1       8.400   6.322  18.944  0.00  0.00    +0.000 C 
BRANCH  10  12
ATOM     12  C   UNL     1       7.590   8.267  17.494  0.00  0.00    +0.000 C 
BRANCH  12  13
ATOM     13  C   UNL     1       8.487   9.002  18.496  0.00  0.00    +0.000 C 
BRANCH  13  14
ATOM     14  C   UNL     1       8.772  10.452  18.100  0.00  0.00    +0.000 C 
BRANCH  14  16
ATOM     15  C   UNL     1      10.544  12.243  17.990  0.00  0.00    +0.000 C 
ATOM     16  C   UNL     1      10.070  10.996  18.739  0.00  0.00    +0.000 C 
ATOM     17  C   UNL     1       9.910  11.325  20.225  0.00  0.00    +0.000 C 
ENDBRANCH  14  16
ENDBRANCH  13  14
ENDBRANCH  12  13
ENDBRANCH  10  12
ENDBRANCH   6  10
ENDBRANCH   1   7
BRANCH   4  18
ATOM     18  C   UNL     1       1.676   3.341  20.079  0.00  0.00    +0.000 C 
BRANCH  18  19
ATOM     19  C   UNL     1       2.013   2.191  19.121  0.00  0.00    +0.000 C 
ATOM     20  F   UNL     1       1.566   2.409  17.863  0.00  0.00    +0.000 F 
ATOM     21  F   UNL     1       3.319   1.888  19.023  0.00  0.00    +0.000 F 
ATOM     22  F   UNL     1       1.395   1.052  19.541  0.00  0.00    +0.000 F 
ENDBRANCH  18  19
BRANCH  18  23
ATOM     23  C   UNL     1       2.106   3.000  21.510  0.00  0.00    +0.000 C 
ATOM     24  F   UNL     1       2.387   4.124  22.221  0.00  0.00    +0.000 F 
ATOM     25  F   UNL     1       1.115   2.373  22.192  0.00  0.00    +0.000 F 
ATOM     26  F   UNL     1       3.200   2.223  21.606  0.00  0.00    +0.000 F 
ENDBRANCH  18  23
BRANCH  18  27
ATOM     27  O   UNL     1       0.220   3.601  20.041  0.00  0.00    +0.000 OA
ATOM     28  H   UNL     1       0.090   4.411  19.504  0.00  0.00    +0.000 HD
ENDBRANCH  18  27
ENDBRANCH   4  18
TORSDOF 10
ENDMDL
MODEL 3
REMARK VINA RESULT:      -7.1      1.474      2.179
REMARK  Name = 
REMARK  13 active torsions:
REMARK  status: ('A' for Active; 'I' for Inactive)
REMARK    1  A    between atoms: C_1  and  C_2
REMARK    2  A    between atoms: C_2  and  C_3
REMARK    3  A    between atoms: C_2  and  C_4
REMARK    4  A    between atoms: C_4  and  C_5
REMARK    5  A    between atoms: C_5  and  C_6
REMARK    6  A    between atoms: C_6  and  C_7
REMARK    7  A    between atoms: C_7  and  C_8
REMARK    8  A    between atoms: C_7  and  N_9
REMARK    9  A    between atoms: C_10  and  C_12
REMARK   10  A    between atoms: C_15  and  C_16
REMARK   11  A    between atoms: C_16  and  O_17
REMARK   12  A    between atoms: C_16  and  C_18
REMARK   13  A    between atoms: C_16  and  C_22
REMARK                            x       y       z     vdW  Elec       q    Type
REMARK                         _______ _______ _______ _____ _____    ______ ____
ROOT
ATOM      1  C   UNL     1       2.273   7.457  19.085  0.00  0.00    +0.000 C 
ATOM      2  N   UNL     1       1.877   7.142  20.272  0.00  0.00    +0.000 NA
ATOM      3  O   UNL     1       2.386   5.851  20.549  0.00  0.00    +0.000 OA
ATOM      4  C   UNL     1       3.257   5.442  19.466  0.00  0.00    +0.000 C 
ATOM      5  C   UNL     1       3.118   6.477  18.374  0.00  0.00    +0.000 C 
ENDROOT
BRANCH   1   7
ATOM      6  N   UNL     1       1.116   9.601  19.145  0.00  0.00    +0.000 N 
ATOM      7  C   UNL     1       1.884   8.746  18.388  0.00  0.00    +0.000 C 
ATOM      8  O   UNL     1       2.265   8.923  17.254  0.00  0.00    +0.000 OA
ATOM      9  H   UNL     1       0.970   9.364  20.126  0.00  0.00    +0.000 HD
BRANCH   6  10
ATOM     10  C   UNL     1       0.750  10.909  18.627  0.00  0.00    +0.000 C 
ATOM     11  C   UNL     1       1.720  11.975  19.127  0.00  0.00    +0.000 C 
BRANCH  10  12
ATOM     12  C   UNL     1      -0.723  11.236  18.961  0.00  0.00    +0.000 C 
BRANCH  12  13
ATOM     13  C   UNL     1      -1.662  10.088  18.569  0.00  0.00    +0.000 C 
BRANCH  13  14
ATOM     14  C   UNL     1      -1.773   9.890  17.057  0.00  0.00    +0.000 C 
BRANCH  14  16
ATOM     15  C   UNL     1      -3.067  10.468  14.971  0.00  0.00    +0.000 C 
ATOM     16  C   UNL     1      -2.726  10.911  16.395  0.00  0.00    +0.000 C 
ATOM     17  C   UNL     1      -4.019  11.119  17.187  0.00  0.00    +0.000 C 
ENDBRANCH  14  16
ENDBRANCH  13  14
ENDBRANCH  12  13
ENDBRANCH  10  12
ENDBRANCH   6  10
ENDBRANCH   1   7
BRANCH   4  18
ATOM     18  C   UNL     1       2.948   3.984  19.076  0.00  0.00    +0.000 C 
BRANCH  18  19
ATOM     19  C   UNL     1       1.486   3.793  18.649  0.00  0.00    +0.000 C 
ATOM     20  F   UNL     1       1.246   2.565  18.138  0.00  0.00    +0.000 F 
ATOM     21  F   UNL     1       0.574   3.998  19.617  0.00  0.00    +0.000 F 
ATOM     22  F   UNL     1       1.182   4.675  17.657  0.00  0.00    +0.000 F 
ENDBRANCH  18  19
BRANCH  18  23
ATOM     23  C   UNL     1       3.902   3.533  17.964  0.00  0.00    +0.000 C 
ATOM     24  F   UNL     1       5.152   4.030  18.156  0.00  0.00    +0.000 F 
ATOM     25  F   UNL     1       4.043   2.184  17.945  0.00  0.00    +0.000 F 
ATOM     26  F   UNL     1       3.546   3.908  16.721  0.00  0.00    +0.000 F 
ENDBRANCH  18  23
BRANCH  18  27
ATOM     27  O   UNL     1       3.206   3.203  20.305  0.00  0.00    +0.000 OA
ATOM     28  H   UNL     1       2.617   3.564  21.000  0.00  0.00    +0.000 HD
ENDBRANCH  18  27
ENDBRANCH   4  18
TORSDOF 10
ENDMDL
MODEL 4
REMARK VINA RESULT:      -7.0      1.405      2.457
REMARK  Name = 
REMARK  13 active torsions:
REMARK  status: ('A' for Active; 'I' for Inactive)
REMARK    1  A    between atoms: C_1  and  C_2
REMARK    2  A    between atoms: C_2  and  C_3
REMARK    3  A    between atoms: C_2  and  C_4
REMARK    4  A    between atoms: C_4  and  C_5
REMARK    5  A    between atoms: C_5  and  C_6
REMARK    6  A    between atoms: C_6  and  C_7
REMARK    7  A    between atoms: C_7  and  C_8
REMARK    8  A    between atoms: C_7  and  N_9
REMARK    9  A    between atoms: C_10  and  C_12
REMARK   10  A    between atoms: C_15  and  C_16
REMARK   11  A    between atoms: C_16  and  O_17
REMARK   12  A    between atoms: C_16  and  C_18
REMARK   13  A    between atoms: C_16  and  C_22
REMARK                            x       y       z     vdW  Elec       q    Type
REMARK                         _______ _______ _______ _____ _____    ______ ____
ROOT
ATOM      1  C   UNL     1       2.176   7.450  18.901  0.00  0.00    +0.000 C 
ATOM      2  N   UNL     1       1.994   7.085  20.125  0.00  0.00    +0.000 NA
ATOM      3  O   UNL     1       2.323   5.712  20.201  0.00  0.00    +0.000 OA
ATOM      4  C   UNL     1       2.861   5.280  18.927  0.00  0.00    +0.000 C 
ATOM      5  C   UNL     1       2.671   6.426  17.959  0.00  0.00    +0.000 C 
ENDROOT
BRANCH   1   7
ATOM      6  N   UNL     1       1.064   9.597  19.209  0.00  0.00    +0.000 N 
ATOM      7  C   UNL     1       1.874   8.845  18.388  0.00  0.00    +0.000 C 
ATOM      8  O   UNL     1       2.350   9.184  17.330  0.00  0.00    +0.000 OA
ATOM      9  H   UNL     1       0.833   9.214  20.126  0.00  0.00    +0.000 HD
BRANCH   6  10
ATOM     10  C   UNL     1       0.770  10.981  18.878  0.00  0.00    +0.000 C 
ATOM     11  C   UNL     1       0.802  11.851  20.131  0.00  0.00    +0.000 C 
BRANCH  10  12
ATOM     12  C   UNL     1      -0.567  11.086  18.110  0.00  0.00    +0.000 C 
BRANCH  12  13
ATOM     13  C   UNL     1      -1.624  10.130  18.677  0.00  0.00    +0.000 C 
BRANCH  13  14
ATOM     14  C   UNL     1      -2.722   9.779  17.671  0.00  0.00    +0.000 C 
BRANCH  14  16
ATOM     15  C   UNL     1      -2.855  10.404  15.232  0.00  0.00    +0.000 C 
ATOM     16  C   UNL     1      -2.989  10.921  16.666  0.00  0.00    +0.000 C 
ATOM     17  C   UNL     1      -4.367  11.564  16.848  0.00  0.00    +0.000 C 
ENDBRANCH  14  16
ENDBRANCH  13  14
ENDBRANCH  12  13
ENDBRANCH  10  12
ENDBRANCH   6  10
ENDBRANCH   1   7
BRANCH   4  18
ATOM     18  C   UNL     1       2.232   3.932  18.529  0.00  0.00    +0.000 C 
BRANCH  18  19
ATOM     19  C   UNL     1       3.245   2.993  17.859  0.00  0.00    +0.000 C 
ATOM     20  F   UNL     1       2.665   1.897  17.319  0.00  0.00    +0.000 F 
ATOM     21  F   UNL     1       3.996   3.552  16.894  0.00  0.00    +0.000 F 
ATOM     22  F   UNL     1       4.121   2.527  18.792  0.00  0.00    +0.000 F 
ENDBRANCH  18  19
BRANCH  18  23
ATOM     23  C   UNL     1       1.607   3.268  19.761  0.00  0.00    +0.000 C 
ATOM     24  F   UNL     1       2.437   3.343  20.834  0.00  0.00    +0.000 F 
ATOM     25  F   UNL     1       0.463   3.893  20.137  0.00  0.00    +0.000 F 
ATOM     26  F   UNL     1       1.313   1.963  19.616  0.00  0.00    +0.000 F 
ENDBRANCH  18  23
BRANCH  18  27
ATOM     27  O   UNL     1       1.173   4.283  17.557  0.00  0.00    +0.000 OA
ATOM     28  H   UNL     1       0.399   4.585  18.077  0.00  0.00    +0.000 HD
ENDBRANCH  18  27
ENDBRANCH   4  18
TORSDOF 10
ENDMDL
MODEL 5
REMARK VINA RESULT:      -7.0      1.278      1.977
REMARK  Name = 
REMARK  13 active torsions:
REMARK  status: ('A' for Active; 'I' for Inactive)
REMARK    1  A    between atoms: C_1  and  C_2
REMARK    2  A    between atoms: C_2  and  C_3
REMARK    3  A    between atoms: C_2  and  C_4
REMARK    4  A    between atoms: C_4  and  C_5
REMARK    5  A    between atoms: C_5  and  C_6
REMARK    6  A    between atoms: C_6  and  C_7
REMARK    7  A    between atoms: C_7  and  C_8
REMARK    8  A    between atoms: C_7  and  N_9
REMARK    9  A    between atoms: C_10  and  C_12
REMARK   10  A    between atoms: C_15  and  C_16
REMARK   11  A    between atoms: C_16  and  O_17
REMARK   12  A    between atoms: C_16  and  C_18
REMARK   13  A    between atoms: C_16  and  C_22
REMARK                            x       y       z     vdW  Elec       q    Type
REMARK                         _______ _______ _______ _____ _____    ______ ____
ROOT
ATOM      1  C   UNL     1       2.450   6.944  19.142  0.00  0.00    +0.000 C 
ATOM      2  N   UNL     1       2.215   6.607  20.365  0.00  0.00    +0.000 NA
ATOM      3  O   UNL     1       2.676   5.279  20.525  0.00  0.00    +0.000 OA
ATOM      4  C   UNL     1       3.350   4.861  19.312  0.00  0.00    +0.000 C 
ATOM      5  C   UNL     1       3.116   5.944  18.284  0.00  0.00    +0.000 C 
ENDROOT
BRANCH   1   7
ATOM      6  N   UNL     1       1.206   9.030  19.340  0.00  0.00    +0.000 N 
ATOM      7  C   UNL     1       2.045   8.279  18.549  0.00  0.00    +0.000 C 
ATOM      8  O   UNL     1       2.475   8.577  17.458  0.00  0.00    +0.000 OA
ATOM      9  H   UNL     1       1.021   8.695  20.286  0.00  0.00    +0.000 HD
BRANCH   6  10
ATOM     10  C   UNL     1       0.815  10.368  18.928  0.00  0.00    +0.000 C 
ATOM     11  C   UNL     1       0.452  11.219  20.141  0.00  0.00    +0.000 C 
BRANCH  10  12
ATOM     12  C   UNL     1      -0.319  10.306  17.880  0.00  0.00    +0.000 C 
BRANCH  12  13
ATOM     13  C   UNL     1      -1.682  10.641  18.497  0.00  0.00    +0.000 C 
BRANCH  13  14
ATOM     14  C   UNL     1      -2.861  10.090  17.694  0.00  0.00    +0.000 C 
BRANCH  14  16
ATOM     15  C   UNL     1      -3.166  10.389  15.208  0.00  0.00    +0.000 C 
ATOM     16  C   UNL     1      -3.318  11.055  16.577  0.00  0.00    +0.000 C 
ATOM     17  C   UNL     1      -4.763  11.529  16.754  0.00  0.00    +0.000 C 
ENDBRANCH  14  16
ENDBRANCH  13  14
ENDBRANCH  12  13
ENDBRANCH  10  12
ENDBRANCH   6  10
ENDBRANCH   1   7
BRANCH   4  18
ATOM     18  C   UNL     1       2.894   3.440  18.930  0.00  0.00    +0.000 C 
BRANCH  18  19
ATOM     19  C   UNL     1       1.384   3.364  18.666  0.00  0.00    +0.000 C 
ATOM     20  F   UNL     1       0.982   4.201  17.682  0.00  0.00    +0.000 F 
ATOM     21  F   UNL     1       0.916   2.143  18.353  0.00  0.00    +0.000 F 
ATOM     22  F   UNL     1       0.706   3.750  19.782  0.00  0.00    +0.000 F 
ENDBRANCH  18  19
BRANCH  18  23
ATOM     23  C   UNL     1       3.684   2.954  17.710  0.00  0.00    +0.000 C 
ATOM     24  F   UNL     1       4.980   3.360  17.769  0.00  0.00    +0.000 F 
ATOM     25  F   UNL     1       3.727   1.599  17.651  0.00  0.00    +0.000 F 
ATOM     26  F   UNL     1       3.220   3.384  16.522  0.00  0.00    +0.000 F 
ENDBRANCH  18  23
BRANCH  18  27
ATOM     27  O   UNL     1       3.228   2.609  20.108  0.00  0.00    +0.000 OA
ATOM     28  H   UNL     1       2.716   1.777  20.023  0.00  0.00    +0.000 HD
ENDBRANCH  18  27
ENDBRANCH   4  18
TORSDOF 10
ENDMDL
MODEL 6
REMARK VINA RESULT:      -7.0      1.079      1.530
REMARK  Name = 
REMARK  13 active torsions:
REMARK  status: ('A' for Active; 'I' for Inactive)
REMARK    1  A    between atoms: C_1  and  C_2
REMARK    2  A    between atoms: C_2  and  C_3
REMARK    3  A    between atoms: C_2  and  C_4
REMARK    4  A    between atoms: C_4  and  C_5
REMARK    5  A    between atoms: C_5  and  C_6
REMARK    6  A    between atoms: C_6  and  C_7
REMARK    7  A    between atoms: C_7  and  C_8
REMARK    8  A    between atoms: C_7  and  N_9
REMARK    9  A    between atoms: C_10  and  C_12
REMARK   10  A    between atoms: C_15  and  C_16
REMARK   11  A    between atoms: C_16  and  O_17
REMARK   12  A    between atoms: C_16  and  C_18
REMARK   13  A    between atoms: C_16  and  C_22
REMARK                            x       y       z     vdW  Elec       q    Type
REMARK                         _______ _______ _______ _____ _____    ______ ____
ROOT
ATOM      1  C   UNL     1       2.641   7.149  18.045  0.00  0.00    +0.000 C 
ATOM      2  N   UNL     1       3.903   6.951  17.867  0.00  0.00    +0.000 NA
ATOM      3  O   UNL     1       4.099   5.551  17.811  0.00  0.00    +0.000 OA
ATOM      4  C   UNL     1       2.810   4.890  17.838  0.00  0.00    +0.000 C 
ATOM      5  C   UNL     1       1.775   5.956  18.116  0.00  0.00    +0.000 C 
ENDROOT
BRANCH   1   7
ATOM      6  N   UNL     1       1.295   8.685  19.377  0.00  0.00    +0.000 N 
ATOM      7  C   UNL     1       2.025   8.524  18.221  0.00  0.00    +0.000 C 
ATOM      8  O   UNL     1       2.214   9.352  17.360  0.00  0.00    +0.000 OA
ATOM      9  H   UNL     1       1.320   7.929  20.062  0.00  0.00    +0.000 HD
BRANCH   6  10
ATOM     10  C   UNL     1       0.727   9.980  19.709  0.00  0.00    +0.000 C 
ATOM     11  C   UNL     1       1.044  10.351  21.154  0.00  0.00    +0.000 C 
BRANCH  10  12
ATOM     12  C   UNL     1      -0.788  10.006  19.403  0.00  0.00    +0.000 C 
BRANCH  12  13
ATOM     13  C   UNL     1      -1.071  10.487  17.975  0.00  0.00    +0.000 C 
BRANCH  13  14
ATOM     14  C   UNL     1      -2.385   9.950  17.406  0.00  0.00    +0.000 C 
BRANCH  14  16
ATOM     15  C   UNL     1      -2.922  10.173  14.953  0.00  0.00    +0.000 C 
ATOM     16  C   UNL     1      -2.977  10.869  16.314  0.00  0.00    +0.000 C 
ATOM     17  C   UNL     1      -4.417  11.295  16.611  0.00  0.00    +0.000 C 
ENDBRANCH  14  16
ENDBRANCH  13  14
ENDBRANCH  12  13
ENDBRANCH  10  12
ENDBRANCH   6  10
ENDBRANCH   1   7
BRANCH   4  18
ATOM     18  C   UNL     1       2.856   3.704  18.820  0.00  0.00    +0.000 C 
BRANCH  18  19
ATOM     19  C   UNL     1       1.469   3.356  19.377  0.00  0.00    +0.000 C 
ATOM     20  F   UNL     1       1.012   4.277  20.256  0.00  0.00    +0.000 F 
ATOM     21  F   UNL     1       0.505   3.185  18.455  0.00  0.00    +0.000 F 
ATOM     22  F   UNL     1       1.536   2.185  20.069  0.00  0.00    +0.000 F 
ENDBRANCH  18  19
BRANCH  18  23
ATOM     23  C   UNL     1       3.486   2.487  18.133  0.00  0.00    +0.000 C 
ATOM     24  F   UNL     1       4.411   2.866  17.212  0.00  0.00    +0.000 F 
ATOM     25  F   UNL     1       4.150   1.703  19.018  0.00  0.00    +0.000 F 
ATOM     26  F   UNL     1       2.621   1.693  17.476  0.00  0.00    +0.000 F 
ENDBRANCH  18  23
BRANCH  18  27
ATOM     27  O   UNL     1       3.727   4.163  19.924  0.00  0.00    +0.000 OA
ATOM     28  H   UNL     1       4.456   4.675  19.516  0.00  0.00    +0.000 HD
ENDBRANCH  18  27
ENDBRANCH   4  18
TORSDOF 10
ENDMDL
MODEL 7
REMARK VINA RESULT:      -6.9      4.669      7.013
REMARK  Name = 
REMARK  13 active torsions:
REMARK  status: ('A' for Active; 'I' for Inactive)
REMARK    1  A    between atoms: C_1  and  C_2
REMARK    2  A    between atoms: C_2  and  C_3
REMARK    3  A    between atoms: C_2  and  C_4
REMARK    4  A    between atoms: C_4  and  C_5
REMARK    5  A    between atoms: C_5  and  C_6
REMARK    6  A    between atoms: C_6  and  C_7
REMARK    7  A    between atoms: C_7  and  C_8
REMARK    8  A    between atoms: C_7  and  N_9
REMARK    9  A    between atoms: C_10  and  C_12
REMARK   10  A    between atoms: C_15  and  C_16
REMARK   11  A    between atoms: C_16  and  O_17
REMARK   12  A    between atoms: C_16  and  C_18
REMARK   13  A    between atoms: C_16  and  C_22
REMARK                            x       y       z     vdW  Elec       q    Type
REMARK                         _______ _______ _______ _____ _____    ______ ____
ROOT
ATOM      1  C   UNL     1       4.270   5.465  18.574  0.00  0.00    +0.000 C 
ATOM      2  N   UNL     1       3.372   6.380  18.429  0.00  0.00    +0.000 NA
ATOM      3  O   UNL     1       2.305   6.056  19.300  0.00  0.00    +0.000 OA
ATOM      4  C   UNL     1       2.682   4.915  20.109  0.00  0.00    +0.000 C 
ATOM      5  C   UNL     1       3.993   4.400  19.559  0.00  0.00    +0.000 C 
ENDROOT
BRANCH   1   7
ATOM      6  N   UNL     1       5.544   4.511  16.728  0.00  0.00    +0.000 N 
ATOM      7  C   UNL     1       5.553   5.414  17.768  0.00  0.00    +0.000 C 
ATOM      8  O   UNL     1       6.461   6.146  18.086  0.00  0.00    +0.000 OA
ATOM      9  H   UNL     1       4.663   4.045  16.513  0.00  0.00    +0.000 HD
BRANCH   6  10
ATOM     10  C   UNL     1       6.677   4.427  15.823  0.00  0.00    +0.000 C 
ATOM     11  C   UNL     1       7.226   5.817  15.517  0.00  0.00    +0.000 C 
BRANCH  10  12
ATOM     12  C   UNL     1       6.300   3.638  14.548  0.00  0.00    +0.000 C 
BRANCH  12  13
ATOM     13  C   UNL     1       6.549   4.461  13.278  0.00  0.00    +0.000 C 
BRANCH  13  14
ATOM     14  C   UNL     1       6.680   3.602  12.019  0.00  0.00    +0.000 C 
BRANCH  14  16
ATOM     15  C   UNL     1       4.319   3.129  11.270  0.00  0.00    +0.000 C 
ATOM     16  C   UNL     1       5.570   2.532  11.916  0.00  0.00    +0.000 C 
ATOM     17  C   UNL     1       6.008   1.294  11.129  0.00  0.00    +0.000 C 
ENDBRANCH  14  16
ENDBRANCH  13  14
ENDBRANCH  12  13
ENDBRANCH  10  12
ENDBRANCH   6  10
ENDBRANCH   1   7
BRANCH   4  18
ATOM     18  C   UNL     1       1.517   3.909  20.161  0.00  0.00    +0.000 C 
BRANCH  18  19
ATOM     19  C   UNL     1       1.307   3.190  18.821  0.00  0.00    +0.000 C 
ATOM     20  F   UNL     1       1.021   4.042  17.810  0.00  0.00    +0.000 F 
ATOM     21  F   UNL     1       2.338   2.430  18.409  0.00  0.00    +0.000 F 
ATOM     22  F   UNL     1       0.239   2.352  18.915  0.00  0.00    +0.000 F 
ENDBRANCH  18  19
BRANCH  18  23
ATOM     23  C   UNL     1       1.756   2.898  21.288  0.00  0.00    +0.000 C 
ATOM     24  F   UNL     1       2.490   3.445  22.292  0.00  0.00    +0.000 F 
ATOM     25  F   UNL     1       0.590   2.503  21.859  0.00  0.00    +0.000 F 
ATOM     26  F   UNL     1       2.412   1.781  20.922  0.00  0.00    +0.000 F 
ENDBRANCH  18  23
BRANCH  18  27
ATOM     27  O   UNL     1       0.325   4.730  20.468  0.00  0.00    +0.000 OA
ATOM     28  H   UNL     1      -0.332   4.552  19.764  0.00  0.00    +0.000 HD
ENDBRANCH  18  27
ENDBRANCH   4  18
TORSDOF 10
ENDMDL
MODEL 8
REMARK VINA RESULT:      -6.9      4.820      6.591
REMARK  Name = 
REMARK  13 active torsions:
REMARK  status: ('A' for Active; 'I' for Inactive)
REMARK    1  A    between atoms: C_1  and  C_2
REMARK    2  A    between atoms: C_2  and  C_3
REMARK    3  A    between atoms: C_2  and  C_4
REMARK    4  A    between atoms: C_4  and  C_5
REMARK    5  A    between atoms: C_5  and  C_6
REMARK    6  A    between atoms: C_6  and  C_7
REMARK    7  A    between atoms: C_7  and  C_8
REMARK    8  A    between atoms: C_7  and  N_9
REMARK    9  A    between atoms: C_10  and  C_12
REMARK   10  A    between atoms: C_15  and  C_16
REMARK   11  A    between atoms: C_16  and  O_17
REMARK   12  A    between atoms: C_16  and  C_18
REMARK   13  A    between atoms: C_16  and  C_22
REMARK                            x       y       z     vdW  Elec       q    Type
REMARK                         _______ _______ _______ _____ _____    ______ ____
ROOT
ATOM      1  C   UNL     1       4.465   5.382  19.319  0.00  0.00    +0.000 C 
ATOM      2  N   UNL     1       3.600   6.330  19.188  0.00  0.00    +0.000 NA
ATOM      3  O   UNL     1       2.422   5.911  19.849  0.00  0.00    +0.000 OA
ATOM      4  C   UNL     1       2.678   4.657  20.528  0.00  0.00    +0.000 C 
ATOM      5  C   UNL     1       4.050   4.195  20.092  0.00  0.00    +0.000 C 
ENDROOT
BRANCH   1   7
ATOM      6  N   UNL     1       5.888   5.920  17.415  0.00  0.00    +0.000 N 
ATOM      7  C   UNL     1       5.846   5.416  18.695  0.00  0.00    +0.000 C 
ATOM      8  O   UNL     1       6.781   5.011  19.346  0.00  0.00    +0.000 OA
ATOM      9  H   UNL     1       5.032   6.328  17.038  0.00  0.00    +0.000 HD
BRANCH   6  10
ATOM     10  C   UNL     1       7.161   6.089  16.736  0.00  0.00    +0.000 C 
ATOM     11  C   UNL     1       7.743   7.470  17.022  0.00  0.00    +0.000 C 
BRANCH  10  12
ATOM     12  C   UNL     1       7.016   5.802  15.224  0.00  0.00    +0.000 C 
BRANCH  12  13
ATOM     13  C   UNL     1       6.711   4.324  14.954  0.00  0.00    +0.000 C 
BRANCH  13  14
ATOM     14  C   UNL     1       5.526   4.116  14.009  0.00  0.00    +0.000 C 
BRANCH  14  16
ATOM     15  C   UNL     1       4.741   3.333  11.744  0.00  0.00    +0.000 C 
ATOM     16  C   UNL     1       5.930   3.391  12.705  0.00  0.00    +0.000 C 
ATOM     17  C   UNL     1       7.121   4.048  12.003  0.00  0.00    +0.000 C 
ENDBRANCH  14  16
ENDBRANCH  13  14
ENDBRANCH  12  13
ENDBRANCH  10  12
ENDBRANCH   6  10
ENDBRANCH   1   7
BRANCH   4  18
ATOM     18  C   UNL     1       1.512   3.683  20.275  0.00  0.00    +0.000 C 
BRANCH  18  19
ATOM     19  C   UNL     1       1.471   3.189  18.822  0.00  0.00    +0.000 C 
ATOM     20  F   UNL     1       1.341   4.198  17.930  0.00  0.00    +0.000 F 
ATOM     21  F   UNL     1       2.531   2.459  18.433  0.00  0.00    +0.000 F 
ATOM     22  F   UNL     1       0.381   2.392  18.642  0.00  0.00    +0.000 F 
ENDBRANCH  18  19
BRANCH  18  23
ATOM     23  C   UNL     1       1.604   2.502  21.248  0.00  0.00    +0.000 C 
ATOM     24  F   UNL     1       1.633   1.317  20.583  0.00  0.00    +0.000 F 
ATOM     25  F   UNL     1       2.749   2.543  21.974  0.00  0.00    +0.000 F 
ATOM     26  F   UNL     1       0.587   2.406  22.124  0.00  0.00    +0.000 F 
ENDBRANCH  18  23
BRANCH  18  27
ATOM     27  O   UNL     1       0.294   4.473  20.559  0.00  0.00    +0.000 OA
ATOM     28  H   UNL     1       0.113   4.381  21.518  0.00  0.00    +0.000 HD
ENDBRANCH  18  27
ENDBRANCH   4  18
TORSDOF 10
ENDMDL
MODEL 9
REMARK VINA RESULT:      -6.9      4.443      6.707
REMARK  Name = 
REMARK  13 active torsions:
REMARK  status: ('A' for Active; 'I' for Inactive)
REMARK    1  A    between atoms: C_1  and  C_2
REMARK    2  A    between atoms: C_2  and  C_3
REMARK    3  A    between atoms: C_2  and  C_4
REMARK    4  A    between atoms: C_4  and  C_5
REMARK    5  A    between atoms: C_5  and  C_6
REMARK    6  A    between atoms: C_6  and  C_7
REMARK    7  A    between atoms: C_7  and  C_8
REMARK    8  A    between atoms: C_7  and  N_9
REMARK    9  A    between atoms: C_10  and  C_12
REMARK   10  A    between atoms: C_15  and  C_16
REMARK   11  A    between atoms: C_16  and  O_17
REMARK   12  A    between atoms: C_16  and  C_18
REMARK   13  A    between atoms: C_16  and  C_22
REMARK                            x       y       z     vdW  Elec       q    Type
REMARK                         _______ _______ _______ _____ _____    ______ ____
ROOT
ATOM      1  C   UNL     1       3.667   5.937  18.328  0.00  0.00    +0.000 C 
ATOM      2  N   UNL     1       2.675   6.741  18.506  0.00  0.00    +0.000 NA
ATOM      3  O   UNL     1       1.871   6.188  19.530  0.00  0.00    +0.000 OA
ATOM      4  C   UNL     1       2.532   5.020  20.074  0.00  0.00    +0.000 C 
ATOM      5  C   UNL     1       3.728   4.741  19.192  0.00  0.00    +0.000 C 
ENDROOT
BRANCH   1   7
ATOM      6  N   UNL     1       5.703   5.166  17.233  0.00  0.00    +0.000 N 
ATOM      7  C   UNL     1       4.732   6.141  17.268  0.00  0.00    +0.000 C 
ATOM      8  O   UNL     1       4.653   7.113  16.554  0.00  0.00    +0.000 OA
ATOM      9  H   UNL     1       5.573   4.346  17.824  0.00  0.00    +0.000 HD
BRANCH   6  10
ATOM     10  C   UNL     1       6.732   5.195  16.206  0.00  0.00    +0.000 C 
ATOM     11  C   UNL     1       7.670   6.380  16.419  0.00  0.00    +0.000 C 
BRANCH  10  12
ATOM     12  C   UNL     1       6.097   5.181  14.797  0.00  0.00    +0.000 C 
BRANCH  12  13
ATOM     13  C   UNL     1       6.029   3.761  14.220  0.00  0.00    +0.000 C 
BRANCH  13  14
ATOM     14  C   UNL     1       6.204   3.718  12.701  0.00  0.00    +0.000 C 
BRANCH  14  16
ATOM     15  C   UNL     1       4.253   3.204  11.188  0.00  0.00    +0.000 C 
ATOM     16  C   UNL     1       5.369   2.598  12.042  0.00  0.00    +0.000 C 
ATOM     17  C   UNL     1       6.213   1.655  11.180  0.00  0.00    +0.000 C 
ENDBRANCH  14  16
ENDBRANCH  13  14
ENDBRANCH  12  13
ENDBRANCH  10  12
ENDBRANCH   6  10
ENDBRANCH   1   7
BRANCH   4  18
ATOM     18  C   UNL     1       1.514   3.875  20.234  0.00  0.00    +0.000 C 
BRANCH  18  19
ATOM     19  C   UNL     1       1.364   3.046  18.951  0.00  0.00    +0.000 C 
ATOM     20  F   UNL     1       1.131   3.810  17.859  0.00  0.00    +0.000 F 
ATOM     21  F   UNL     1       2.409   2.252  18.654  0.00  0.00    +0.000 F 
ATOM     22  F   UNL     1       0.287   2.221  19.064  0.00  0.00    +0.000 F 
ENDBRANCH  18  19
BRANCH  18  23
ATOM     23  C   UNL     1       1.919   2.983  21.412  0.00  0.00    +0.000 C 
ATOM     24  F   UNL     1       2.919   2.131  21.065  0.00  0.00    +0.000 F 
ATOM     25  F   UNL     1       2.403   3.714  22.448  0.00  0.00    +0.000 F 
ATOM     26  F   UNL     1       0.934   2.209  21.906  0.00  0.00    +0.000 F 
ENDBRANCH  18  23
BRANCH  18  27
ATOM     27  O   UNL     1       0.233   4.551  20.533  0.00  0.00    +0.000 OA
ATOM     28  H   UNL     1      -0.457   3.855  20.560  0.00  0.00    +0.000 HD
ENDBRANCH  18  27
ENDBRANCH   4  18
TORSDOF 10
ENDMDL
