MODEL 1
REMARK VINA RESULT:      -8.0      0.000      0.000
REMARK  Name = 
REMARK  4 active torsions:
REMARK  status: ('A' for Active; 'I' for Inactive)
REMARK    1  A    between atoms: C_4  and  N_5
REMARK    2  A    between atoms: C_8  and  C_9
REMARK    3  A    between atoms: C_9  and  N_10
REMARK    4  A    between atoms: N_10  and  C_11
REMARK                            x       y       z     vdW  Elec       q    Type
REMARK                         _______ _______ _______ _____ _____    ______ ____
ROOT
ATOM      1  C   UNL     1       3.154   5.508  19.141  0.00  0.00    +0.000 C 
ENDROOT
BRANCH   1   5
ATOM      2  N   UNL     1       1.406   8.540  19.957  0.00  0.00    +0.000 N 
ATOM      3  C   UNL     1       1.764   8.873  18.666  0.00  0.00    +0.000 A 
ATOM      4  C   UNL     1       2.439   7.799  18.143  0.00  0.00    +0.000 A 
ATOM      5  C   UNL     1       2.467   6.843  19.182  0.00  0.00    +0.000 A 
ATOM      6  N   UNL     1       1.862   7.301  20.286  0.00  0.00    +0.000 NA
BRANCH   2  10
ATOM      7  C   UNL     1      -0.737  10.940  22.693  0.00  0.00    +0.000 A 
ATOM      8  C   UNL     1      -0.204   9.721  23.111  0.00  0.00    +0.000 A 
ATOM      9  C   UNL     1       0.501   8.921  22.215  0.00  0.00    +0.000 A 
ATOM     10  C   UNL     1       0.685   9.337  20.886  0.00  0.00    +0.000 A 
ATOM     11  C   UNL     1       0.155  10.573  20.478  0.00  0.00    +0.000 A 
ATOM     12  C   UNL     1      -0.558  11.365  21.377  0.00  0.00    +0.000 A 
ENDBRANCH   2  10
ENDBRANCH   1   5
BRANCH   1  13
ATOM     13  N   UNL     1       4.467   5.551  19.799  0.00  0.00    +0.000 NA
ATOM     14  H   UNL     1       4.369   5.259  20.772  0.00  0.00    +0.000 HD
BRANCH  13  15
ATOM     15  C   UNL     1       5.493   4.757  19.097  0.00  0.00    +0.000 C 
ATOM     16  C   UNL     1       6.794   5.558  18.833  0.00  0.00    +0.000 C 
ATOM     17  C   UNL     1       7.757   4.733  17.974  0.00  0.00    +0.000 C 
ATOM     18  C   UNL     1       7.088   4.555  16.672  0.00  0.00    +0.000 A 
ATOM     19  N   UNL     1       7.508   4.861  15.468  0.00  0.00    +0.000 NA
ATOM     20  C   UNL     1       6.358   4.807  14.729  0.00  0.00    +0.000 A 
ATOM     21  N   UNL     1       5.259   4.444  15.399  0.00  0.00    +0.000 NA
ATOM     22  N   UNL     1       5.752   4.274  16.635  0.00  0.00    +0.000 N 
ATOM     23  C   UNL     1       4.910   4.101  17.803  0.00  0.00    +0.000 C 
ENDBRANCH  13  15
ENDBRANCH   1  13
TORSDOF 4
ENDMDL
MODEL 2
REMARK VINA RESULT:      -8.0      0.212      1.024
REMARK  Name = 
REMARK  4 active torsions:
REMARK  status: ('A' for Active; 'I' for Inactive)
REMARK    1  A    between atoms: C_4  and  N_5
REMARK    2  A    between atoms: C_8  and  C_9
REMARK    3  A    between atoms: C_9  and  N_10
REMARK    4  A    between atoms: N_10  and  C_11
REMARK                            x       y       z     vdW  Elec       q    Type
REMARK                         _______ _______ _______ _____ _____    ______ ____
ROOT
ATOM      1  C   UNL     1       3.102   5.606  18.952  0.00  0.00    +0.000 C 
ENDROOT
BRANCH   1   5
ATOM      2  N   UNL     1       1.423   8.655  19.848  0.00  0.00    +0.000 N 
ATOM      3  C   UNL     1       1.780   9.009  18.563  0.00  0.00    +0.000 A 
ATOM      4  C   UNL     1       2.428   7.934  18.011  0.00  0.00    +0.000 A 
ATOM      5  C   UNL     1       2.443   6.954  19.027  0.00  0.00    +0.000 A 
ATOM      6  N   UNL     1       1.856   7.399  20.145  0.00  0.00    +0.000 NA
BRANCH   2  10
ATOM      7  C   UNL     1      -0.661  10.971  22.700  0.00  0.00    +0.000 A 
ATOM      8  C   UNL     1      -0.172  11.574  21.542  0.00  0.00    +0.000 A 
ATOM      9  C   UNL     1       0.520  10.819  20.598  0.00  0.00    +0.000 A 
ATOM     10  C   UNL     1       0.725   9.445  20.801  0.00  0.00    +0.000 A 
ATOM     11  C   UNL     1       0.219   8.843  21.965  0.00  0.00    +0.000 A 
ATOM     12  C   UNL     1      -0.465   9.607  22.912  0.00  0.00    +0.000 A 
ENDBRANCH   2  10
ENDBRANCH   1   5
BRANCH   1  13
ATOM     13  N   UNL     1       4.354   5.569  19.719  0.00  0.00    +0.000 NA
ATOM     14  H   UNL     1       4.166   5.227  20.661  0.00  0.00    +0.000 HD
BRANCH  13  15
ATOM     15  C   UNL     1       5.414   4.781  19.059  0.00  0.00    +0.000 C 
ATOM     16  C   UNL     1       6.702   5.605  18.802  0.00  0.00    +0.000 C 
ATOM     17  C   UNL     1       7.702   4.781  17.986  0.00  0.00    +0.000 C 
ATOM     18  C   UNL     1       7.066   4.553  16.675  0.00  0.00    +0.000 A 
ATOM     19  N   UNL     1       7.505   4.836  15.473  0.00  0.00    +0.000 NA
ATOM     20  C   UNL     1       6.373   4.737  14.711  0.00  0.00    +0.000 A 
ATOM     21  N   UNL     1       5.268   4.366  15.367  0.00  0.00    +0.000 NA
ATOM     22  N   UNL     1       5.738   4.240  16.618  0.00  0.00    +0.000 N 
ATOM     23  C   UNL     1       4.874   4.077  17.772  0.00  0.00    +0.000 C 
ENDBRANCH  13  15
ENDBRANCH   1  13
TORSDOF 4
ENDMDL
MODEL 3
REMARK VINA RESULT:      -7.5      2.450      4.424
REMARK  Name = 
REMARK  4 active torsions:
REMARK  status: ('A' for Active; 'I' for Inactive)
REMARK    1  A    between atoms: C_4  and  N_5
REMARK    2  A    between atoms: C_8  and  C_9
REMARK    3  A    between atoms: C_9  and  N_10
REMARK    4  A    between atoms: N_10  and  C_11
REMARK                            x       y       z     vdW  Elec       q    Type
REMARK                         _______ _______ _______ _____ _____    ______ ____
ROOT
ATOM      1  C   UNL     1       5.309   4.683  18.692  0.00  0.00    +0.000 C 
ENDROOT
BRANCH   1   5
ATOM      2  N   UNL     1       2.916   7.363  18.785  0.00  0.00    +0.000 N 
ATOM      3  C   UNL     1       3.421   7.607  17.524  0.00  0.00    +0.000 A 
ATOM      4  C   UNL     1       4.362   6.642  17.270  0.00  0.00    +0.000 A 
ATOM      5  C   UNL     1       4.390   5.842  18.434  0.00  0.00    +0.000 A 
ATOM      6  N   UNL     1       3.532   6.293  19.358  0.00  0.00    +0.000 NA
BRANCH   2  10
ATOM      7  C   UNL     1      -0.065   9.576  20.798  0.00  0.00    +0.000 A 
ATOM      8  C   UNL     1       0.509   8.466  21.417  0.00  0.00    +0.000 A 
ATOM      9  C   UNL     1       1.490   7.728  20.759  0.00  0.00    +0.000 A 
ATOM     10  C   UNL     1       1.913   8.098  19.472  0.00  0.00    +0.000 A 
ATOM     11  C   UNL     1       1.337   9.225  18.861  0.00  0.00    +0.000 A 
ATOM     12  C   UNL     1       0.348   9.954  19.521  0.00  0.00    +0.000 A 
ENDBRANCH   2  10
ENDBRANCH   1   5
BRANCH   1  13
ATOM     13  N   UNL     1       5.084   3.587  17.740  0.00  0.00    +0.000 NA
ATOM     14  H   UNL     1       5.956   3.079  17.594  0.00  0.00    +0.000 HD
BRANCH  13  15
ATOM     15  C   UNL     1       3.992   2.681  18.147  0.00  0.00    +0.000 C 
ATOM     16  C   UNL     1       2.588   3.243  17.804  0.00  0.00    +0.000 C 
ATOM     17  C   UNL     1       1.500   2.334  18.383  0.00  0.00    +0.000 C 
ATOM     18  C   UNL     1       1.648   2.405  19.848  0.00  0.00    +0.000 A 
ATOM     19  N   UNL     1       0.768   2.734  20.762  0.00  0.00    +0.000 NA
ATOM     20  C   UNL     1       1.551   2.967  21.860  0.00  0.00    +0.000 A 
ATOM     21  N   UNL     1       2.861   2.758  21.688  0.00  0.00    +0.000 NA
ATOM     22  N   UNL     1       2.898   2.385  20.399  0.00  0.00    +0.000 N 
ATOM     23  C   UNL     1       4.133   2.268  19.648  0.00  0.00    +0.000 C 
ENDBRANCH  13  15
ENDBRANCH   1  13
TORSDOF 4
ENDMDL
MODEL 4
REMARK VINA RESULT:      -7.5      2.243      4.215
REMARK  Name = 
REMARK  4 active torsions:
REMARK  status: ('A' for Active; 'I' for Inactive)
REMARK    1  A    between atoms: C_4  and  N_5
REMARK    2  A    between atoms: C_8  and  C_9
REMARK    3  A    between atoms: C_9  and  N_10
REMARK    4  A    between atoms: N_10  and  C_11
REMARK                            x       y       z     vdW  Elec       q    Type
REMARK                         _______ _______ _______ _____ _____    ______ ____
ROOT
ATOM      1  C   UNL     1       4.009   5.975  18.350  0.00  0.00    +0.000 C 
ENDROOT
BRANCH   1   5
ATOM      2  N   UNL     1       1.715   8.528  19.415  0.00  0.00    +0.000 N 
ATOM      3  C   UNL     1       1.819   8.910  18.093  0.00  0.00    +0.000 A 
ATOM      4  C   UNL     1       2.655   8.014  17.476  0.00  0.00    +0.000 A 
ATOM      5  C   UNL     1       3.038   7.112  18.492  0.00  0.00    +0.000 A 
ATOM      6  N   UNL     1       2.488   7.437  19.669  0.00  0.00    +0.000 NA
BRANCH   2  10
ATOM      7  C   UNL     1      -0.545  10.353  22.481  0.00  0.00    +0.000 A 
ATOM      8  C   UNL     1      -0.657  10.815  21.170  0.00  0.00    +0.000 A 
ATOM      9  C   UNL     1       0.087  10.222  20.153  0.00  0.00    +0.000 A 
ATOM     10  C   UNL     1       0.951   9.152  20.438  0.00  0.00    +0.000 A 
ATOM     11  C   UNL     1       1.049   8.686  21.760  0.00  0.00    +0.000 A 
ATOM     12  C   UNL     1       0.309   9.291  22.775  0.00  0.00    +0.000 A 
ENDBRANCH   2  10
ENDBRANCH   1   5
BRANCH   1  13
ATOM     13  N   UNL     1       3.643   5.083  17.241  0.00  0.00    +0.000 NA
ATOM     14  H   UNL     1       4.472   4.879  16.681  0.00  0.00    +0.000 HD
BRANCH  13  15
ATOM     15  C   UNL     1       2.975   3.846  17.689  0.00  0.00    +0.000 C 
ATOM     16  C   UNL     1       1.477   4.060  18.024  0.00  0.00    +0.000 C 
ATOM     17  C   UNL     1       0.881   2.783  18.623  0.00  0.00    +0.000 C 
ATOM     18  C   UNL     1       1.583   2.568  19.901  0.00  0.00    +0.000 A 
ATOM     19  N   UNL     1       1.095   2.433  21.111  0.00  0.00    +0.000 NA
ATOM     20  C   UNL     1       2.196   2.625  21.900  0.00  0.00    +0.000 A 
ATOM     21  N   UNL     1       3.345   2.828  21.246  0.00  0.00    +0.000 NA
ATOM     22  N   UNL     1       2.932   2.773  19.971  0.00  0.00    +0.000 N 
ATOM     23  C   UNL     1       3.768   3.167  18.853  0.00  0.00    +0.000 C 
ENDBRANCH  13  15
ENDBRANCH   1  13
TORSDOF 4
ENDMDL
MODEL 5
REMARK VINA RESULT:      -7.5      4.866      6.891
REMARK  Name = 
REMARK  4 active torsions:
REMARK  status: ('A' for Active; 'I' for Inactive)
REMARK    1  A    between atoms: C_4  and  N_5
REMARK    2  A    between atoms: C_8  and  C_9
REMARK    3  A    between atoms: C_9  and  N_10
REMARK    4  A    between atoms: N_10  and  C_11
REMARK                            x       y       z     vdW  Elec       q    Type
REMARK                         _______ _______ _______ _____ _____    ______ ____
ROOT
ATOM      1  C   UNL     1       7.786   5.599  18.915  0.00  0.00    +0.000 C 
ENDROOT
BRANCH   1   5
ATOM      2  N   UNL     1       8.599   9.077  18.512  0.00  0.00    +0.000 N 
ATOM      3  C   UNL     1       7.732   8.963  17.445  0.00  0.00    +0.000 A 
ATOM      4  C   UNL     1       7.266   7.673  17.437  0.00  0.00    +0.000 A 
ATOM      5  C   UNL     1       7.905   7.046  18.528  0.00  0.00    +0.000 A 
ATOM      6  N   UNL     1       8.728   7.889  19.164  0.00  0.00    +0.000 NA
BRANCH   2  10
ATOM      7  C   UNL     1      10.752  12.514  19.694  0.00  0.00    +0.000 A 
ATOM      8  C   UNL     1      10.155  11.705  20.660  0.00  0.00    +0.000 A 
ATOM      9  C   UNL     1       9.439  10.571  20.280  0.00  0.00    +0.000 A 
ATOM     10  C   UNL     1       9.319  10.231  18.923  0.00  0.00    +0.000 A 
ATOM     11  C   UNL     1       9.934  11.045  17.957  0.00  0.00    +0.000 A 
ATOM     12  C   UNL     1      10.640  12.185  18.343  0.00  0.00    +0.000 A 
ENDBRANCH   2  10
ENDBRANCH   1   5
BRANCH   1  13
ATOM     13  N   UNL     1       6.446   5.281  19.426  0.00  0.00    +0.000 NA
ATOM     14  H   UNL     1       5.914   6.143  19.544  0.00  0.00    +0.000 HD
BRANCH  13  15
ATOM     15  C   UNL     1       5.721   4.309  18.585  0.00  0.00    +0.000 C 
ATOM     16  C   UNL     1       5.041   4.968  17.358  0.00  0.00    +0.000 C 
ATOM     17  C   UNL     1       4.185   3.940  16.613  0.00  0.00    +0.000 C 
ATOM     18  C   UNL     1       3.111   3.552  17.546  0.00  0.00    +0.000 A 
ATOM     19  N   UNL     1       1.810   3.596  17.387  0.00  0.00    +0.000 NA
ATOM     20  C   UNL     1       1.349   3.467  18.669  0.00  0.00    +0.000 A 
ATOM     21  N   UNL     1       2.290   3.304  19.606  0.00  0.00    +0.000 NA
ATOM     22  N   UNL     1       3.407   3.347  18.864  0.00  0.00    +0.000 N 
ATOM     23  C   UNL     1       4.734   3.450  19.440  0.00  0.00    +0.000 C 
ENDBRANCH  13  15
ENDBRANCH   1  13
TORSDOF 4
ENDMDL
MODEL 6
REMARK VINA RESULT:      -7.4      3.252      8.125
REMARK  Name = 
REMARK  4 active torsions:
REMARK  status: ('A' for Active; 'I' for Inactive)
REMARK    1  A    between atoms: C_4  and  N_5
REMARK    2  A    between atoms: C_8  and  C_9
REMARK    3  A    between atoms: C_9  and  N_10
REMARK    4  A    between atoms: N_10  and  C_11
REMARK                            x       y       z     vdW  Elec       q    Type
REMARK                         _______ _______ _______ _____ _____    ______ ____
ROOT
ATOM      1  C   UNL     1       4.753   6.379  18.607  0.00  0.00    +0.000 C 
ENDROOT
BRANCH   1   5
ATOM      2  N   UNL     1       6.553   4.885  15.879  0.00  0.00    +0.000 N 
ATOM      3  C   UNL     1       7.421   4.530  16.892  0.00  0.00    +0.000 A 
ATOM      4  C   UNL     1       6.884   4.993  18.066  0.00  0.00    +0.000 A 
ATOM      5  C   UNL     1       5.686   5.639  17.692  0.00  0.00    +0.000 A 
ATOM      6  N   UNL     1       5.498   5.593  16.366  0.00  0.00    +0.000 NA
BRANCH   2  10
ATOM      7  C   UNL     1       6.976   4.106  11.749  0.00  0.00    +0.000 A 
ATOM      8  C   UNL     1       6.024   3.408  12.491  0.00  0.00    +0.000 A 
ATOM      9  C   UNL     1       5.880   3.656  13.854  0.00  0.00    +0.000 A 
ATOM     10  C   UNL     1       6.687   4.613  14.491  0.00  0.00    +0.000 A 
ATOM     11  C   UNL     1       7.636   5.319  13.733  0.00  0.00    +0.000 A 
ATOM     12  C   UNL     1       7.782   5.060  12.370  0.00  0.00    +0.000 A 
ENDBRANCH   2  10
ENDBRANCH   1   5
BRANCH   1  13
ATOM     13  N   UNL     1       3.494   6.729  17.933  0.00  0.00    +0.000 NA
ATOM     14  H   UNL     1       3.571   6.516  16.938  0.00  0.00    +0.000 HD
BRANCH  13  15
ATOM     15  C   UNL     1       2.315   6.078  18.536  0.00  0.00    +0.000 C 
ATOM     16  C   UNL     1       2.493   5.797  20.051  0.00  0.00    +0.000 C 
ATOM     17  C   UNL     1       1.305   4.990  20.582  0.00  0.00    +0.000 C 
ATOM     18  C   UNL     1       1.357   3.688  19.892  0.00  0.00    +0.000 A 
ATOM     19  N   UNL     1       1.405   2.478  20.394  0.00  0.00    +0.000 NA
ATOM     20  C   UNL     1       1.796   1.725  19.320  0.00  0.00    +0.000 A 
ATOM     21  N   UNL     1       1.952   2.395  18.173  0.00  0.00    +0.000 NA
ATOM     22  N   UNL     1       1.652   3.645  18.559  0.00  0.00    +0.000 N 
ATOM     23  C   UNL     1       1.898   4.807  17.727  0.00  0.00    +0.000 C 
ENDBRANCH  13  15
ENDBRANCH   1  13
TORSDOF 4
ENDMDL
MODEL 7
REMARK VINA RESULT:      -7.3      3.440      7.963
REMARK  Name = 
REMARK  4 active torsions:
REMARK  status: ('A' for Active; 'I' for Inactive)
REMARK    1  A    between atoms: C_4  and  N_5
REMARK    2  A    between atoms: C_8  and  C_9
REMARK    3  A    between atoms: C_9  and  N_10
REMARK    4  A    between atoms: N_10  and  C_11
REMARK                            x       y       z     vdW  Elec       q    Type
REMARK                         _______ _______ _______ _____ _____    ______ ____
ROOT
ATOM      1  C   UNL     1       3.720   6.446  18.229  0.00  0.00    +0.000 C 
ENDROOT
BRANCH   1   5
ATOM      2  N   UNL     1       6.022   5.013  15.870  0.00  0.00    +0.000 N 
ATOM      3  C   UNL     1       6.749   4.764  17.016  0.00  0.00    +0.000 A 
ATOM      4  C   UNL     1       6.007   5.221  18.075  0.00  0.00    +0.000 A 
ATOM      5  C   UNL     1       4.834   5.754  17.497  0.00  0.00    +0.000 A 
ATOM      6  N   UNL     1       4.854   5.648  16.162  0.00  0.00    +0.000 NA
BRANCH   2  10
ATOM      7  C   UNL     1       7.076   4.069  11.890  0.00  0.00    +0.000 A 
ATOM      8  C   UNL     1       7.824   5.008  12.600  0.00  0.00    +0.000 A 
ATOM      9  C   UNL     1       7.481   5.329  13.912  0.00  0.00    +0.000 A 
ATOM     10  C   UNL     1       6.385   4.706  14.531  0.00  0.00    +0.000 A 
ATOM     11  C   UNL     1       5.645   3.752  13.812  0.00  0.00    +0.000 A 
ATOM     12  C   UNL     1       5.987   3.443  12.495  0.00  0.00    +0.000 A 
ENDBRANCH   2  10
ENDBRANCH   1   5
BRANCH   1  13
ATOM     13  N   UNL     1       2.403   5.942  17.815  0.00  0.00    +0.000 NA
ATOM     14  H   UNL     1       2.433   5.681  16.829  0.00  0.00    +0.000 HD
BRANCH  13  15
ATOM     15  C   UNL     1       1.919   4.829  18.654  0.00  0.00    +0.000 C 
ATOM     16  C   UNL     1       1.973   5.152  20.170  0.00  0.00    +0.000 C 
ATOM     17  C   UNL     1       1.603   3.912  20.988  0.00  0.00    +0.000 C 
ATOM     18  C   UNL     1       2.660   2.919  20.721  0.00  0.00    +0.000 A 
ATOM     19  N   UNL     1       3.441   2.283  21.561  0.00  0.00    +0.000 NA
ATOM     20  C   UNL     1       4.423   1.796  20.742  0.00  0.00    +0.000 A 
ATOM     21  N   UNL     1       4.271   2.058  19.439  0.00  0.00    +0.000 NA
ATOM     22  N   UNL     1       3.130   2.764  19.448  0.00  0.00    +0.000 N 
ATOM     23  C   UNL     1       2.646   3.493  18.291  0.00  0.00    +0.000 C 
ENDBRANCH  13  15
ENDBRANCH   1  13
TORSDOF 4
ENDMDL
MODEL 8
REMARK VINA RESULT:      -7.3      3.813      8.208
REMARK  Name = 
REMARK  4 active torsions:
REMARK  status: ('A' for Active; 'I' for Inactive)
REMARK    1  A    between atoms: C_4  and  N_5
REMARK    2  A    between atoms: C_8  and  C_9
REMARK    3  A    between atoms: C_9  and  N_10
REMARK    4  A    between atoms: N_10  and  C_11
REMARK                            x       y       z     vdW  Elec       q    Type
REMARK                         _______ _______ _______ _____ _____    ______ ____
ROOT
ATOM      1  C   UNL     1       4.354   7.310  17.879  0.00  0.00    +0.000 C 
ENDROOT
BRANCH   1   5
ATOM      2  N   UNL     1       6.323   5.381  15.573  0.00  0.00    +0.000 N 
ATOM      3  C   UNL     1       7.168   5.292  16.660  0.00  0.00    +0.000 A 
ATOM      4  C   UNL     1       6.567   5.960  17.697  0.00  0.00    +0.000 A 
ATOM      5  C   UNL     1       5.354   6.448  17.164  0.00  0.00    +0.000 A 
ATOM      6  N   UNL     1       5.218   6.117  15.874  0.00  0.00    +0.000 NA
BRANCH   2  10
ATOM      7  C   UNL     1       6.937   3.781  11.713  0.00  0.00    +0.000 A 
ATOM      8  C   UNL     1       5.901   3.292  12.507  0.00  0.00    +0.000 A 
ATOM      9  C   UNL     1       5.693   3.811  13.783  0.00  0.00    +0.000 A 
ATOM     10  C   UNL     1       6.521   4.833  14.277  0.00  0.00    +0.000 A 
ATOM     11  C   UNL     1       7.555   5.327  13.464  0.00  0.00    +0.000 A 
ATOM     12  C   UNL     1       7.764   4.796  12.192  0.00  0.00    +0.000 A 
ENDBRANCH   2  10
ENDBRANCH   1   5
BRANCH   1  13
ATOM     13  N   UNL     1       3.033   6.671  17.945  0.00  0.00    +0.000 NA
ATOM     14  H   UNL     1       2.506   6.892  17.100  0.00  0.00    +0.000 HD
BRANCH  13  15
ATOM     15  C   UNL     1       3.106   5.214  18.171  0.00  0.00    +0.000 C 
ATOM     16  C   UNL     1       1.824   4.471  17.714  0.00  0.00    +0.000 C 
ATOM     17  C   UNL     1       1.899   2.994  18.111  0.00  0.00    +0.000 C 
ATOM     18  C   UNL     1       1.909   2.970  19.585  0.00  0.00    +0.000 A 
ATOM     19  N   UNL     1       1.108   2.349  20.416  0.00  0.00    +0.000 NA
ATOM     20  C   UNL     1       1.371   2.972  21.605  0.00  0.00    +0.000 A 
ATOM     21  N   UNL     1       2.321   3.913  21.565  0.00  0.00    +0.000 NA
ATOM     22  N   UNL     1       2.660   3.884  20.267  0.00  0.00    +0.000 N 
ATOM     23  C   UNL     1       3.501   4.893  19.650  0.00  0.00    +0.000 C 
ENDBRANCH  13  15
ENDBRANCH   1  13
TORSDOF 4
ENDMDL
MODEL 9
REMARK VINA RESULT:      -7.3      1.215      1.610
REMARK  Name = 
REMARK  4 active torsions:
REMARK  status: ('A' for Active; 'I' for Inactive)
REMARK    1  A    between atoms: C_4  and  N_5
REMARK    2  A    between atoms: C_8  and  C_9
REMARK    3  A    between atoms: C_9  and  N_10
REMARK    4  A    between atoms: N_10  and  C_11
REMARK                            x       y       z     vdW  Elec       q    Type
REMARK                         _______ _______ _______ _____ _____    ______ ____
ROOT
ATOM      1  C   UNL     1       3.070   6.146  19.452  0.00  0.00    +0.000 C 
ENDROOT
BRANCH   1   5
ATOM      2  N   UNL     1       1.302   9.257  19.125  0.00  0.00    +0.000 N 
ATOM      3  C   UNL     1       1.922   9.265  17.893  0.00  0.00    +0.000 A 
ATOM      4  C   UNL     1       2.649   8.105  17.797  0.00  0.00    +0.000 A 
ATOM      5  C   UNL     1       2.436   7.438  19.023  0.00  0.00    +0.000 A 
ATOM      6  N   UNL     1       1.640   8.146  19.834  0.00  0.00    +0.000 NA
BRANCH   2  10
ATOM      7  C   UNL     1      -1.242  12.205  20.762  0.00  0.00    +0.000 A 
ATOM      8  C   UNL     1      -1.607  11.552  19.585  0.00  0.00    +0.000 A 
ATOM      9  C   UNL     1      -0.772  10.581  19.036  0.00  0.00    +0.000 A 
ATOM     10  C   UNL     1       0.439  10.249  19.665  0.00  0.00    +0.000 A 
ATOM     11  C   UNL     1       0.792  10.903  20.856  0.00  0.00    +0.000 A 
ATOM     12  C   UNL     1      -0.043  11.882  21.396  0.00  0.00    +0.000 A 
ENDBRANCH   2  10
ENDBRANCH   1   5
BRANCH   1  13
ATOM     13  N   UNL     1       3.101   5.165  18.359  0.00  0.00    +0.000 NA
ATOM     14  H   UNL     1       2.760   5.602  17.502  0.00  0.00    +0.000 HD
BRANCH  13  15
ATOM     15  C   UNL     1       4.431   4.556  18.164  0.00  0.00    +0.000 C 
ATOM     16  C   UNL     1       5.588   5.574  18.338  0.00  0.00    +0.000 C 
ATOM     17  C   UNL     1       6.925   4.921  17.977  0.00  0.00    +0.000 C 
ATOM     18  C   UNL     1       6.845   4.600  16.540  0.00  0.00    +0.000 A 
ATOM     19  N   UNL     1       7.641   4.954  15.560  0.00  0.00    +0.000 NA
ATOM     20  C   UNL     1       6.887   4.679  14.451  0.00  0.00    +0.000 A 
ATOM     21  N   UNL     1       5.688   4.136  14.690  0.00  0.00    +0.000 NA
ATOM     22  N   UNL     1       5.689   4.082  16.030  0.00  0.00    +0.000 N 
ATOM     23  C   UNL     1       4.502   3.781  16.808  0.00  0.00    +0.000 C 
ENDBRANCH  13  15
ENDBRANCH   1  13
TORSDOF 4
ENDMDL
