MODEL 1
REMARK VINA RESULT:      -8.3      0.000      0.000
REMARK  Name = 
REMARK  2 active torsions:
REMARK  status: ('A' for Active; 'I' for Inactive)
REMARK    1  A    between atoms: C_2  and  C_3
REMARK    2  A    between atoms: C_7  and  N_8
REMARK                            x       y       z     vdW  Elec       q    Type
REMARK                         _______ _______ _______ _____ _____    ______ ____
ROOT
ATOM      1  C   UNL     1       5.967   4.894  17.159  0.00  0.00    +0.000 A 
ATOM      2  C   UNL     1       5.517   4.025  16.238  0.00  0.00    +0.000 A 
ATOM      3  C   UNL     1       6.023   4.048  14.881  0.00  0.00    +0.000 A 
ATOM      4  C   UNL     1       5.461   3.253  13.882  0.00  0.00    +0.000 A 
ATOM      5  C   UNL     1       5.936   3.364  12.568  0.00  0.00    +0.000 A 
ATOM      6  C   UNL     1       6.968   4.264  12.252  0.00  0.00    +0.000 A 
ATOM      7  C   UNL     1       7.530   5.051  13.261  0.00  0.00    +0.000 A 
ATOM      8  C   UNL     1       7.048   4.932  14.562  0.00  0.00    +0.000 A 
ATOM      9  O   UNL     1       7.615   5.747  15.560  0.00  0.00    +0.000 OA
ATOM     10  C   UNL     1       7.131   5.764  16.871  0.00  0.00    +0.000 A 
ATOM     11  O   UNL     1       7.651   6.474  17.720  0.00  0.00    +0.000 OA
ENDROOT
BRANCH   1  13
ATOM     12  O   UNL     1       5.663   4.168  19.428  0.00  0.00    +0.000 OA
ATOM     13  C   UNL     1       5.340   4.903  18.505  0.00  0.00    +0.000 C 
ATOM     14  N   UNL     1       4.246   5.784  18.683  0.00  0.00    +0.000 N 
ATOM     15  C   UNL     1       3.337   5.783  19.723  0.00  0.00    +0.000 A 
ATOM     16  C   UNL     1       2.369   6.709  19.421  0.00  0.00    +0.000 A 
ATOM     17  C   UNL     1       2.792   7.279  18.212  0.00  0.00    +0.000 A 
ATOM     18  N   UNL     1       3.933   6.751  17.766  0.00  0.00    +0.000 NA
ENDBRANCH   1  13
BRANCH   5  19
ATOM     19  N   UNL     1       5.333   2.541  11.516  0.00  0.00    +0.000 N 
ATOM     20  O   UNL     1       4.229   2.893  11.071  0.00  0.00    +0.000 OA
ATOM     21  O   UNL     1       5.957   1.543  11.136  0.00  0.00    +0.000 OA
ENDBRANCH   5  19
TORSDOF 2
ENDMDL
MODEL 2
REMARK VINA RESULT:      -8.0      2.803      6.747
REMARK  Name = 
REMARK  2 active torsions:
REMARK  status: ('A' for Active; 'I' for Inactive)
REMARK    1  A    between atoms: C_2  and  C_3
REMARK    2  A    between atoms: C_7  and  N_8
REMARK                            x       y       z     vdW  Elec       q    Type
REMARK                         _______ _______ _______ _____ _____    ______ ____
ROOT
ATOM      1  C   UNL     1       5.534   4.904  16.526  0.00  0.00    +0.000 A 
ATOM      2  C   UNL     1       5.032   3.995  17.379  0.00  0.00    +0.000 A 
ATOM      3  C   UNL     1       3.993   4.353  18.323  0.00  0.00    +0.000 A 
ATOM      4  C   UNL     1       3.568   3.462  19.309  0.00  0.00    +0.000 A 
ATOM      5  C   UNL     1       2.613   3.880  20.246  0.00  0.00    +0.000 A 
ATOM      6  C   UNL     1       2.083   5.180  20.198  0.00  0.00    +0.000 A 
ATOM      7  C   UNL     1       2.508   6.063  19.202  0.00  0.00    +0.000 A 
ATOM      8  C   UNL     1       3.460   5.636  18.279  0.00  0.00    +0.000 A 
ATOM      9  O   UNL     1       3.888   6.546  17.295  0.00  0.00    +0.000 OA
ATOM     10  C   UNL     1       4.906   6.238  16.388  0.00  0.00    +0.000 A 
ATOM     11  O   UNL     1       5.250   7.045  15.536  0.00  0.00    +0.000 OA
ENDROOT
BRANCH   1  13
ATOM     12  O   UNL     1       7.850   4.577  15.981  0.00  0.00    +0.000 OA
ATOM     13  C   UNL     1       6.673   4.518  15.654  0.00  0.00    +0.000 C 
ATOM     14  N   UNL     1       6.348   4.125  14.334  0.00  0.00    +0.000 N 
ATOM     15  C   UNL     1       7.217   3.990  13.267  0.00  0.00    +0.000 A 
ATOM     16  C   UNL     1       6.458   3.732  12.152  0.00  0.00    +0.000 A 
ATOM     17  C   UNL     1       5.142   3.660  12.630  0.00  0.00    +0.000 A 
ATOM     18  N   UNL     1       5.061   3.871  13.944  0.00  0.00    +0.000 NA
ENDBRANCH   1  13
BRANCH   5  19
ATOM     19  N   UNL     1       2.181   2.949  21.292  0.00  0.00    +0.000 N 
ATOM     20  O   UNL     1       3.061   2.376  21.953  0.00  0.00    +0.000 OA
ATOM     21  O   UNL     1       0.965   2.786  21.453  0.00  0.00    +0.000 OA
ENDBRANCH   5  19
TORSDOF 2
ENDMDL
MODEL 3
REMARK VINA RESULT:      -7.6      1.347      1.752
REMARK  Name = 
REMARK  2 active torsions:
REMARK  status: ('A' for Active; 'I' for Inactive)
REMARK    1  A    between atoms: C_2  and  C_3
REMARK    2  A    between atoms: C_7  and  N_8
REMARK                            x       y       z     vdW  Elec       q    Type
REMARK                         _______ _______ _______ _____ _____    ______ ____
ROOT
ATOM      1  C   UNL     1       5.136   4.077  18.421  0.00  0.00    +0.000 A 
ATOM      2  C   UNL     1       4.901   3.522  17.220  0.00  0.00    +0.000 A 
ATOM      3  C   UNL     1       5.695   3.884  16.064  0.00  0.00    +0.000 A 
ATOM      4  C   UNL     1       5.369   3.429  14.786  0.00  0.00    +0.000 A 
ATOM      5  C   UNL     1       6.123   3.865  13.689  0.00  0.00    +0.000 A 
ATOM      6  C   UNL     1       7.199   4.751  13.864  0.00  0.00    +0.000 A 
ATOM      7  C   UNL     1       7.524   5.195  15.149  0.00  0.00    +0.000 A 
ATOM      8  C   UNL     1       6.765   4.756  16.231  0.00  0.00    +0.000 A 
ATOM      9  O   UNL     1       7.097   5.230  17.514  0.00  0.00    +0.000 OA
ATOM     10  C   UNL     1       6.335   4.918  18.643  0.00  0.00    +0.000 A 
ATOM     11  O   UNL     1       6.654   5.336  19.747  0.00  0.00    +0.000 OA
ENDROOT
BRANCH   1  13
ATOM     12  O   UNL     1       4.194   2.682  20.134  0.00  0.00    +0.000 OA
ATOM     13  C   UNL     1       4.226   3.757  19.551  0.00  0.00    +0.000 C 
ATOM     14  N   UNL     1       3.293   4.758  19.909  0.00  0.00    +0.000 N 
ATOM     15  C   UNL     1       2.182   4.610  20.717  0.00  0.00    +0.000 A 
ATOM     16  C   UNL     1       1.487   5.795  20.678  0.00  0.00    +0.000 A 
ATOM     17  C   UNL     1       2.272   6.637  19.877  0.00  0.00    +0.000 A 
ATOM     18  N   UNL     1       3.374   6.036  19.426  0.00  0.00    +0.000 NA
ENDBRANCH   1  13
BRANCH   5  19
ATOM     19  N   UNL     1       5.768   3.400  12.345  0.00  0.00    +0.000 N 
ATOM     20  O   UNL     1       4.603   3.587  11.960  0.00  0.00    +0.000 OA
ATOM     21  O   UNL     1       6.648   2.845  11.675  0.00  0.00    +0.000 OA
ENDBRANCH   5  19
TORSDOF 2
ENDMDL
MODEL 4
REMARK VINA RESULT:      -7.5      2.796      6.429
REMARK  Name = 
REMARK  2 active torsions:
REMARK  status: ('A' for Active; 'I' for Inactive)
REMARK    1  A    between atoms: C_2  and  C_3
REMARK    2  A    between atoms: C_7  and  N_8
REMARK                            x       y       z     vdW  Elec       q    Type
REMARK                         _______ _______ _______ _____ _____    ______ ____
ROOT
ATOM      1  C   UNL     1       5.571   4.975  16.432  0.00  0.00    +0.000 A 
ATOM      2  C   UNL     1       4.666   4.077  16.857  0.00  0.00    +0.000 A 
ATOM      3  C   UNL     1       3.624   4.454  17.790  0.00  0.00    +0.000 A 
ATOM      4  C   UNL     1       2.771   3.503  18.350  0.00  0.00    +0.000 A 
ATOM      5  C   UNL     1       1.826   3.906  19.304  0.00  0.00    +0.000 A 
ATOM      6  C   UNL     1       1.731   5.251  19.696  0.00  0.00    +0.000 A 
ATOM      7  C   UNL     1       2.585   6.198  19.124  0.00  0.00    +0.000 A 
ATOM      8  C   UNL     1       3.521   5.785  18.179  0.00  0.00    +0.000 A 
ATOM      9  O   UNL     1       4.382   6.751  17.628  0.00  0.00    +0.000 OA
ATOM     10  C   UNL     1       5.413   6.414  16.745  0.00  0.00    +0.000 A 
ATOM     11  O   UNL     1       6.140   7.276  16.274  0.00  0.00    +0.000 OA
ENDROOT
BRANCH   1  13
ATOM     12  O   UNL     1       7.864   4.514  15.887  0.00  0.00    +0.000 OA
ATOM     13  C   UNL     1       6.684   4.516  15.563  0.00  0.00    +0.000 C 
ATOM     14  N   UNL     1       6.335   4.126  14.248  0.00  0.00    +0.000 N 
ATOM     15  C   UNL     1       7.193   3.929  13.182  0.00  0.00    +0.000 A 
ATOM     16  C   UNL     1       6.418   3.700  12.071  0.00  0.00    +0.000 A 
ATOM     17  C   UNL     1       5.101   3.707  12.553  0.00  0.00    +0.000 A 
ATOM     18  N   UNL     1       5.035   3.938  13.865  0.00  0.00    +0.000 NA
ENDBRANCH   1  13
BRANCH   5  19
ATOM     19  N   UNL     1       0.943   2.902  19.905  0.00  0.00    +0.000 N 
ATOM     20  O   UNL     1       0.196   2.264  19.147  0.00  0.00    +0.000 OA
ATOM     21  O   UNL     1       0.990   2.754  21.133  0.00  0.00    +0.000 OA
ENDBRANCH   5  19
TORSDOF 2
ENDMDL
MODEL 5
REMARK VINA RESULT:      -7.4      3.689      5.683
REMARK  Name = 
REMARK  2 active torsions:
REMARK  status: ('A' for Active; 'I' for Inactive)
REMARK    1  A    between atoms: C_2  and  C_3
REMARK    2  A    between atoms: C_7  and  N_8
REMARK                            x       y       z     vdW  Elec       q    Type
REMARK                         _______ _______ _______ _____ _____    ______ ____
ROOT
ATOM      1  C   UNL     1       6.715   5.087  18.357  0.00  0.00    +0.000 A 
ATOM      2  C   UNL     1       5.647   4.867  19.143  0.00  0.00    +0.000 A 
ATOM      3  C   UNL     1       4.462   4.214  18.624  0.00  0.00    +0.000 A 
ATOM      4  C   UNL     1       3.296   4.112  19.384  0.00  0.00    +0.000 A 
ATOM      5  C   UNL     1       2.153   3.538  18.812  0.00  0.00    +0.000 A 
ATOM      6  C   UNL     1       2.172   3.065  17.490  0.00  0.00    +0.000 A 
ATOM      7  C   UNL     1       3.347   3.165  16.739  0.00  0.00    +0.000 A 
ATOM      8  C   UNL     1       4.475   3.740  17.317  0.00  0.00    +0.000 A 
ATOM      9  O   UNL     1       5.642   3.846  16.538  0.00  0.00    +0.000 OA
ATOM     10  C   UNL     1       6.791   4.493  17.003  0.00  0.00    +0.000 A 
ATOM     11  O   UNL     1       7.795   4.561  16.307  0.00  0.00    +0.000 OA
ENDROOT
BRANCH   1  13
ATOM     12  O   UNL     1       8.645   5.435  19.744  0.00  0.00    +0.000 OA
ATOM     13  C   UNL     1       7.862   5.857  18.904  0.00  0.00    +0.000 C 
ATOM     14  N   UNL     1       7.991   7.193  18.457  0.00  0.00    +0.000 N 
ATOM     15  C   UNL     1       8.784   8.182  19.008  0.00  0.00    +0.000 A 
ATOM     16  C   UNL     1       8.494   9.352  18.349  0.00  0.00    +0.000 A 
ATOM     17  C   UNL     1       7.563   8.983  17.368  0.00  0.00    +0.000 A 
ATOM     18  N   UNL     1       7.268   7.683  17.404  0.00  0.00    +0.000 NA
ENDBRANCH   1  13
BRANCH   5  19
ATOM     19  N   UNL     1       0.924   3.447  19.606  0.00  0.00    +0.000 N 
ATOM     20  O   UNL     1       0.751   4.291  20.498  0.00  0.00    +0.000 OA
ATOM     21  O   UNL     1       0.133   2.533  19.342  0.00  0.00    +0.000 OA
ENDBRANCH   5  19
TORSDOF 2
ENDMDL
MODEL 6
REMARK VINA RESULT:      -7.3      2.467      3.209
REMARK  Name = 
REMARK  2 active torsions:
REMARK  status: ('A' for Active; 'I' for Inactive)
REMARK    1  A    between atoms: C_2  and  C_3
REMARK    2  A    between atoms: C_7  and  N_8
REMARK                            x       y       z     vdW  Elec       q    Type
REMARK                         _______ _______ _______ _____ _____    ______ ____
ROOT
ATOM      1  C   UNL     1       3.526   4.519  17.828  0.00  0.00    +0.000 A 
ATOM      2  C   UNL     1       3.771   3.964  16.629  0.00  0.00    +0.000 A 
ATOM      3  C   UNL     1       4.995   4.254  15.911  0.00  0.00    +0.000 A 
ATOM      4  C   UNL     1       5.196   3.803  14.605  0.00  0.00    +0.000 A 
ATOM      5  C   UNL     1       6.365   4.170  13.925  0.00  0.00    +0.000 A 
ATOM      6  C   UNL     1       7.330   4.981  14.544  0.00  0.00    +0.000 A 
ATOM      7  C   UNL     1       7.124   5.421  15.855  0.00  0.00    +0.000 A 
ATOM      8  C   UNL     1       5.957   5.052  16.519  0.00  0.00    +0.000 A 
ATOM      9  O   UNL     1       5.761   5.520  17.831  0.00  0.00    +0.000 OA
ATOM     10  C   UNL     1       4.579   5.279  18.539  0.00  0.00    +0.000 A 
ATOM     11  O   UNL     1       4.441   5.689  19.682  0.00  0.00    +0.000 OA
ENDROOT
BRANCH   1  13
ATOM     12  O   UNL     1       1.149   4.747  18.086  0.00  0.00    +0.000 OA
ATOM     13  C   UNL     1       2.210   4.279  18.475  0.00  0.00    +0.000 C 
ATOM     14  N   UNL     1       2.225   3.511  19.663  0.00  0.00    +0.000 N 
ATOM     15  C   UNL     1       1.202   3.382  20.584  0.00  0.00    +0.000 A 
ATOM     16  C   UNL     1       1.696   2.663  21.645  0.00  0.00    +0.000 A 
ATOM     17  C   UNL     1       3.006   2.334  21.268  0.00  0.00    +0.000 A 
ATOM     18  N   UNL     1       3.332   2.817  20.068  0.00  0.00    +0.000 NA
ENDBRANCH   1  13
BRANCH   5  19
ATOM     19  N   UNL     1       6.567   3.711  12.548  0.00  0.00    +0.000 N 
ATOM     20  O   UNL     1       7.405   4.311  11.858  0.00  0.00    +0.000 OA
ATOM     21  O   UNL     1       5.886   2.756  12.153  0.00  0.00    +0.000 OA
ENDBRANCH   5  19
TORSDOF 2
ENDMDL
MODEL 7
REMARK VINA RESULT:      -7.1      4.951      8.677
REMARK  Name = 
REMARK  2 active torsions:
REMARK  status: ('A' for Active; 'I' for Inactive)
REMARK    1  A    between atoms: C_2  and  C_3
REMARK    2  A    between atoms: C_7  and  N_8
REMARK                            x       y       z     vdW  Elec       q    Type
REMARK                         _______ _______ _______ _____ _____    ______ ____
ROOT
ATOM      1  C   UNL     1       2.971   6.500  19.346  0.00  0.00    +0.000 A 
ATOM      2  C   UNL     1       2.206   6.876  20.384  0.00  0.00    +0.000 A 
ATOM      3  C   UNL     1       1.515   8.150  20.378  0.00  0.00    +0.000 A 
ATOM      4  C   UNL     1       0.839   8.616  21.505  0.00  0.00    +0.000 A 
ATOM      5  C   UNL     1       0.248   9.887  21.474  0.00  0.00    +0.000 A 
ATOM      6  C   UNL     1       0.331  10.688  20.324  0.00  0.00    +0.000 A 
ATOM      7  C   UNL     1       1.004  10.209  19.196  0.00  0.00    +0.000 A 
ATOM      8  C   UNL     1       1.588   8.946  19.240  0.00  0.00    +0.000 A 
ATOM      9  O   UNL     1       2.276   8.490  18.101  0.00  0.00    +0.000 OA
ATOM     10  C   UNL     1       2.973   7.278  18.087  0.00  0.00    +0.000 A 
ATOM     11  O   UNL     1       3.553   6.903  17.078  0.00  0.00    +0.000 OA
ENDROOT
BRANCH   1  13
ATOM     12  O   UNL     1       4.922   5.166  19.776  0.00  0.00    +0.000 OA
ATOM     13  C   UNL     1       3.746   5.236  19.447  0.00  0.00    +0.000 C 
ATOM     14  N   UNL     1       3.072   4.053  19.059  0.00  0.00    +0.000 N 
ATOM     15  C   UNL     1       3.638   2.819  18.801  0.00  0.00    +0.000 A 
ATOM     16  C   UNL     1       2.641   2.005  18.322  0.00  0.00    +0.000 A 
ATOM     17  C   UNL     1       1.483   2.794  18.379  0.00  0.00    +0.000 A 
ATOM     18  N   UNL     1       1.721   4.022  18.843  0.00  0.00    +0.000 NA
ENDBRANCH   1  13
BRANCH   5  19
ATOM     19  N   UNL     1      -0.447  10.383  22.666  0.00  0.00    +0.000 N 
ATOM     20  O   UNL     1      -1.365  11.200  22.498  0.00  0.00    +0.000 OA
ATOM     21  O   UNL     1      -0.075   9.961  23.768  0.00  0.00    +0.000 OA
ENDBRANCH   5  19
TORSDOF 2
ENDMDL
MODEL 8
REMARK VINA RESULT:      -7.0      4.455      6.954
REMARK  Name = 
REMARK  2 active torsions:
REMARK  status: ('A' for Active; 'I' for Inactive)
REMARK    1  A    between atoms: C_2  and  C_3
REMARK    2  A    between atoms: C_7  and  N_8
REMARK                            x       y       z     vdW  Elec       q    Type
REMARK                         _______ _______ _______ _____ _____    ______ ____
ROOT
ATOM      1  C   UNL     1       1.307   9.538  19.070  0.00  0.00    +0.000 A 
ATOM      2  C   UNL     1       1.999   9.017  18.044  0.00  0.00    +0.000 A 
ATOM      3  C   UNL     1       2.693   7.752  18.179  0.00  0.00    +0.000 A 
ATOM      4  C   UNL     1       3.534   7.273  17.174  0.00  0.00    +0.000 A 
ATOM      5  C   UNL     1       4.241   6.081  17.381  0.00  0.00    +0.000 A 
ATOM      6  C   UNL     1       4.109   5.368  18.584  0.00  0.00    +0.000 A 
ATOM      7  C   UNL     1       3.258   5.852  19.583  0.00  0.00    +0.000 A 
ATOM      8  C   UNL     1       2.563   7.039  19.365  0.00  0.00    +0.000 A 
ATOM      9  O   UNL     1       1.726   7.518  20.390  0.00  0.00    +0.000 OA
ATOM     10  C   UNL     1       1.065   8.747  20.298  0.00  0.00    +0.000 A 
ATOM     11  O   UNL     1       0.335   9.132  21.200  0.00  0.00    +0.000 OA
ENDROOT
BRANCH   1  13
ATOM     12  O   UNL     1       1.217  11.926  19.315  0.00  0.00    +0.000 OA
ATOM     13  C   UNL     1       0.705  10.888  18.919  0.00  0.00    +0.000 C 
ATOM     14  N   UNL     1      -0.584  10.939  18.336  0.00  0.00    +0.000 N 
ATOM     15  C   UNL     1      -1.456  12.012  18.336  0.00  0.00    +0.000 A 
ATOM     16  C   UNL     1      -2.637  11.577  17.788  0.00  0.00    +0.000 A 
ATOM     17  C   UNL     1      -2.387  10.248  17.417  0.00  0.00    +0.000 A 
ATOM     18  N   UNL     1      -1.148   9.856  17.719  0.00  0.00    +0.000 NA
ENDBRANCH   1  13
BRANCH   5  19
ATOM     19  N   UNL     1       5.137   5.588  16.332  0.00  0.00    +0.000 N 
ATOM     20  O   UNL     1       5.412   4.378  16.330  0.00  0.00    +0.000 OA
ATOM     21  O   UNL     1       5.571   6.407  15.512  0.00  0.00    +0.000 OA
ENDBRANCH   5  19
TORSDOF 2
ENDMDL
MODEL 9
REMARK VINA RESULT:      -7.0      1.405      1.910
REMARK  Name = 
REMARK  2 active torsions:
REMARK  status: ('A' for Active; 'I' for Inactive)
REMARK    1  A    between atoms: C_2  and  C_3
REMARK    2  A    between atoms: C_7  and  N_8
REMARK                            x       y       z     vdW  Elec       q    Type
REMARK                         _______ _______ _______ _____ _____    ______ ____
ROOT
ATOM      1  C   UNL     1       5.072   5.613  16.781  0.00  0.00    +0.000 A 
ATOM      2  C   UNL     1       4.698   4.698  15.871  0.00  0.00    +0.000 A 
ATOM      3  C   UNL     1       5.531   4.406  14.722  0.00  0.00    +0.000 A 
ATOM      4  C   UNL     1       5.089   3.569  13.696  0.00  0.00    +0.000 A 
ATOM      5  C   UNL     1       5.900   3.376  12.570  0.00  0.00    +0.000 A 
ATOM      6  C   UNL     1       7.148   4.013  12.468  0.00  0.00    +0.000 A 
ATOM      7  C   UNL     1       7.587   4.843  13.503  0.00  0.00    +0.000 A 
ATOM      8  C   UNL     1       6.770   5.029  14.616  0.00  0.00    +0.000 A 
ATOM      9  O   UNL     1       7.222   5.882  15.639  0.00  0.00    +0.000 OA
ATOM     10  C   UNL     1       6.430   6.202  16.746  0.00  0.00    +0.000 A 
ATOM     11  O   UNL     1       6.853   6.939  17.625  0.00  0.00    +0.000 OA
ENDROOT
BRANCH   1  13
ATOM     12  O   UNL     1       3.699   7.078  18.098  0.00  0.00    +0.000 OA
ATOM     13  C   UNL     1       4.134   5.956  17.881  0.00  0.00    +0.000 C 
ATOM     14  N   UNL     1       3.795   4.906  18.767  0.00  0.00    +0.000 N 
ATOM     15  C   UNL     1       3.181   5.023  20.000  0.00  0.00    +0.000 A 
ATOM     16  C   UNL     1       3.174   3.775  20.573  0.00  0.00    +0.000 A 
ATOM     17  C   UNL     1       3.743   2.938  19.602  0.00  0.00    +0.000 A 
ATOM     18  N   UNL     1       4.100   3.599  18.500  0.00  0.00    +0.000 NA
ENDBRANCH   1  13
BRANCH   5  19
ATOM     19  N   UNL     1       5.427   2.511  11.486  0.00  0.00    +0.000 N 
ATOM     20  O   UNL     1       6.160   1.573  11.136  0.00  0.00    +0.000 OA
ATOM     21  O   UNL     1       4.327   2.769  10.981  0.00  0.00    +0.000 OA
ENDBRANCH   5  19
TORSDOF 2
ENDMDL
