MODEL 1
REMARK VINA RESULT:      -6.9      0.000      0.000
REMARK  Name = 
REMARK  10 active torsions:
REMARK  status: ('A' for Active; 'I' for Inactive)
REMARK    1  A    between atoms: C_1  and  C_2
REMARK    2  A    between atoms: C_5  and  C_6
REMARK    3  A    between atoms: C_6  and  C_7
REMARK    4  A    between atoms: C_7  and  N_8
REMARK    5  A    between atoms: N_8  and  C_9
REMARK    6  A    between atoms: N_8  and  C_10
REMARK    7  A    between atoms: C_10  and  C_11
REMARK    8  A    between atoms: C_11  and  O_12
REMARK    9  A    between atoms: O_12  and  C_13
REMARK   10  A    between atoms: C_16  and  C_17
REMARK                            x       y       z     vdW  Elec       q    Type
REMARK                         _______ _______ _______ _____ _____    ______ ____
ROOT
ATOM      1  N   UNL     1       2.140   2.504  19.654  0.00  0.00    +0.000 NA
ATOM      2  C   UNL     1       0.711   2.824  19.615  0.00  0.00    +0.000 C 
ENDROOT
BRANCH   1   3
ATOM      3  C   UNL     1       2.929   3.604  20.257  0.00  0.00    +0.000 C 
BRANCH   3   4
ATOM      4  C   UNL     1       2.098   4.686  20.967  0.00  0.00    +0.000 C 
BRANCH   4   9
ATOM      5  C   UNL     1       2.016   9.661  17.925  0.00  0.00    +0.000 C 
ATOM      6  C   UNL     1       2.013   8.377  18.702  0.00  0.00    +0.000 A 
ATOM      7  C   UNL     1       1.559   8.339  20.025  0.00  0.00    +0.000 A 
ATOM      8  C   UNL     1       1.586   7.147  20.750  0.00  0.00    +0.000 A 
ATOM      9  C   UNL     1       2.071   5.971  20.168  0.00  0.00    +0.000 A 
ATOM     10  C   UNL     1       2.506   6.002  18.837  0.00  0.00    +0.000 A 
ATOM     11  C   UNL     1       2.479   7.197  18.112  0.00  0.00    +0.000 A 
ENDBRANCH   4   9
ENDBRANCH   3   4
ENDBRANCH   1   3
BRANCH   1  12
ATOM     12  C   UNL     1       2.606   2.193  18.278  0.00  0.00    +0.000 C 
BRANCH  12  13
ATOM     13  C   UNL     1       4.086   2.533  18.053  0.00  0.00    +0.000 C 
BRANCH  13  14
ATOM     14  O   UNL     1       4.250   3.428  16.949  0.00  0.00    +0.000 OA
BRANCH  14  15
ATOM     15  C   UNL     1       5.115   4.471  17.189  0.00  0.00    +0.000 A 
ATOM     16  C   UNL     1       5.953   4.586  18.302  0.00  0.00    +0.000 A 
ATOM     17  C   UNL     1       6.796   5.689  18.447  0.00  0.00    +0.000 A 
ATOM     18  C   UNL     1       6.819   6.695  17.479  0.00  0.00    +0.000 A 
ATOM     19  C   UNL     1       7.734   7.872  17.627  0.00  0.00    +0.000 C 
ATOM     20  C   UNL     1       5.979   6.581  16.364  0.00  0.00    +0.000 A 
ATOM     21  C   UNL     1       5.133   5.476  16.222  0.00  0.00    +0.000 A 
ENDBRANCH  14  15
ENDBRANCH  13  14
ENDBRANCH  12  13
ENDBRANCH   1  12
TORSDOF 7
ENDMDL
MODEL 2
REMARK VINA RESULT:      -6.7      3.116      5.256
REMARK  Name = 
REMARK  10 active torsions:
REMARK  status: ('A' for Active; 'I' for Inactive)
REMARK    1  A    between atoms: C_1  and  C_2
REMARK    2  A    between atoms: C_5  and  C_6
REMARK    3  A    between atoms: C_6  and  C_7
REMARK    4  A    between atoms: C_7  and  N_8
REMARK    5  A    between atoms: N_8  and  C_9
REMARK    6  A    between atoms: N_8  and  C_10
REMARK    7  A    between atoms: C_10  and  C_11
REMARK    8  A    between atoms: C_11  and  O_12
REMARK    9  A    between atoms: O_12  and  C_13
REMARK   10  A    between atoms: C_16  and  C_17
REMARK                            x       y       z     vdW  Elec       q    Type
REMARK                         _______ _______ _______ _____ _____    ______ ____
ROOT
ATOM      1  N   UNL     1       6.871   7.057  17.201  0.00  0.00    +0.000 NA
ATOM      2  C   UNL     1       7.806   8.108  17.614  0.00  0.00    +0.000 C 
ENDROOT
BRANCH   1   3
ATOM      3  C   UNL     1       5.497   7.331  17.682  0.00  0.00    +0.000 C 
BRANCH   3   4
ATOM      4  C   UNL     1       4.379   6.629  16.892  0.00  0.00    +0.000 C 
BRANCH   4   9
ATOM      5  C   UNL     1       0.926   3.523  20.418  0.00  0.00    +0.000 C 
ATOM      6  C   UNL     1       1.834   4.312  19.522  0.00  0.00    +0.000 A 
ATOM      7  C   UNL     1       2.384   5.527  19.946  0.00  0.00    +0.000 A 
ATOM      8  C   UNL     1       3.205   6.268  19.096  0.00  0.00    +0.000 A 
ATOM      9  C   UNL     1       3.490   5.812  17.804  0.00  0.00    +0.000 A 
ATOM     10  C   UNL     1       2.958   4.587  17.385  0.00  0.00    +0.000 A 
ATOM     11  C   UNL     1       2.134   3.845  18.237  0.00  0.00    +0.000 A 
ENDBRANCH   4   9
ENDBRANCH   3   4
ENDBRANCH   1   3
BRANCH   1  12
ATOM     12  C   UNL     1       7.367   5.745  17.692  0.00  0.00    +0.000 C 
BRANCH  12  13
ATOM     13  C   UNL     1       7.400   4.668  16.600  0.00  0.00    +0.000 C 
BRANCH  13  14
ATOM     14  O   UNL     1       7.694   5.235  15.320  0.00  0.00    +0.000 OA
BRANCH  14  15
ATOM     15  C   UNL     1       6.980   4.687  14.280  0.00  0.00    +0.000 A 
ATOM     16  C   UNL     1       7.420   4.598  12.956  0.00  0.00    +0.000 A 
ATOM     17  C   UNL     1       6.615   4.019  11.974  0.00  0.00    +0.000 A 
ATOM     18  C   UNL     1       5.355   3.514  12.301  0.00  0.00    +0.000 A 
ATOM     19  C   UNL     1       4.495   2.880  11.250  0.00  0.00    +0.000 C 
ATOM     20  C   UNL     1       4.912   3.603  13.626  0.00  0.00    +0.000 A 
ATOM     21  C   UNL     1       5.720   4.187  14.607  0.00  0.00    +0.000 A 
ENDBRANCH  14  15
ENDBRANCH  13  14
ENDBRANCH  12  13
ENDBRANCH   1  12
TORSDOF 7
ENDMDL
MODEL 3
REMARK VINA RESULT:      -6.7      1.036      1.841
REMARK  Name = 
REMARK  10 active torsions:
REMARK  status: ('A' for Active; 'I' for Inactive)
REMARK    1  A    between atoms: C_1  and  C_2
REMARK    2  A    between atoms: C_5  and  C_6
REMARK    3  A    between atoms: C_6  and  C_7
REMARK    4  A    between atoms: C_7  and  N_8
REMARK    5  A    between atoms: N_8  and  C_9
REMARK    6  A    between atoms: N_8  and  C_10
REMARK    7  A    between atoms: C_10  and  C_11
REMARK    8  A    between atoms: C_11  and  O_12
REMARK    9  A    between atoms: O_12  and  C_13
REMARK   10  A    between atoms: C_16  and  C_17
REMARK                            x       y       z     vdW  Elec       q    Type
REMARK                         _______ _______ _______ _____ _____    ______ ____
ROOT
ATOM      1  N   UNL     1       2.663   3.965  20.412  0.00  0.00    +0.000 NA
ATOM      2  C   UNL     1       1.751   3.127  21.196  0.00  0.00    +0.000 C 
ENDROOT
BRANCH   1   3
ATOM      3  C   UNL     1       2.285   5.396  20.483  0.00  0.00    +0.000 C 
BRANCH   3   4
ATOM      4  C   UNL     1       3.000   6.308  19.471  0.00  0.00    +0.000 C 
BRANCH   4   9
ATOM      5  C   UNL     1       0.160  11.358  18.809  0.00  0.00    +0.000 C 
ATOM      6  C   UNL     1       0.869  10.046  18.975  0.00  0.00    +0.000 A 
ATOM      7  C   UNL     1       0.832   9.358  20.193  0.00  0.00    +0.000 A 
ATOM      8  C   UNL     1       1.517   8.153  20.347  0.00  0.00    +0.000 A 
ATOM      9  C   UNL     1       2.258   7.614  19.288  0.00  0.00    +0.000 A 
ATOM     10  C   UNL     1       2.279   8.290  18.062  0.00  0.00    +0.000 A 
ATOM     11  C   UNL     1       1.592   9.498  17.909  0.00  0.00    +0.000 A 
ENDBRANCH   4   9
ENDBRANCH   3   4
ENDBRANCH   1   3
BRANCH   1  12
ATOM     12  C   UNL     1       2.685   3.478  19.009  0.00  0.00    +0.000 C 
BRANCH  12  13
ATOM     13  C   UNL     1       4.045   2.903  18.592  0.00  0.00    +0.000 C 
BRANCH  13  14
ATOM     14  O   UNL     1       4.427   3.364  17.293  0.00  0.00    +0.000 OA
BRANCH  14  15
ATOM     15  C   UNL     1       5.182   4.515  17.298  0.00  0.00    +0.000 A 
ATOM     16  C   UNL     1       4.949   5.638  16.498  0.00  0.00    +0.000 A 
ATOM     17  C   UNL     1       5.778   6.757  16.584  0.00  0.00    +0.000 A 
ATOM     18  C   UNL     1       6.852   6.776  17.476  0.00  0.00    +0.000 A 
ATOM     19  C   UNL     1       7.733   7.983  17.579  0.00  0.00    +0.000 C 
ATOM     20  C   UNL     1       7.085   5.652  18.278  0.00  0.00    +0.000 A 
ATOM     21  C   UNL     1       6.256   4.530  18.187  0.00  0.00    +0.000 A 
ENDBRANCH  14  15
ENDBRANCH  13  14
ENDBRANCH  12  13
ENDBRANCH   1  12
TORSDOF 7
ENDMDL
MODEL 4
REMARK VINA RESULT:      -6.7      1.382      5.025
REMARK  Name = 
REMARK  10 active torsions:
REMARK  status: ('A' for Active; 'I' for Inactive)
REMARK    1  A    between atoms: C_1  and  C_2
REMARK    2  A    between atoms: C_5  and  C_6
REMARK    3  A    between atoms: C_6  and  C_7
REMARK    4  A    between atoms: C_7  and  N_8
REMARK    5  A    between atoms: N_8  and  C_9
REMARK    6  A    between atoms: N_8  and  C_10
REMARK    7  A    between atoms: C_10  and  C_11
REMARK    8  A    between atoms: C_11  and  O_12
REMARK    9  A    between atoms: O_12  and  C_13
REMARK   10  A    between atoms: C_16  and  C_17
REMARK                            x       y       z     vdW  Elec       q    Type
REMARK                         _______ _______ _______ _____ _____    ______ ____
ROOT
ATOM      1  N   UNL     1       2.406   2.934  18.231  0.00  0.00    +0.000 NA
ATOM      2  C   UNL     1       1.989   2.188  19.422  0.00  0.00    +0.000 C 
ENDROOT
BRANCH   1   3
ATOM      3  C   UNL     1       3.881   2.966  18.097  0.00  0.00    +0.000 C 
BRANCH   3   4
ATOM      4  C   UNL     1       4.402   3.593  16.793  0.00  0.00    +0.000 C 
BRANCH   4   9
ATOM      5  C   UNL     1       8.012   8.046  17.861  0.00  0.00    +0.000 C 
ATOM      6  C   UNL     1       7.073   6.904  17.609  0.00  0.00    +0.000 A 
ATOM      7  C   UNL     1       7.355   5.621  18.093  0.00  0.00    +0.000 A 
ATOM      8  C   UNL     1       6.490   4.559  17.830  0.00  0.00    +0.000 A 
ATOM      9  C   UNL     1       5.329   4.756  17.074  0.00  0.00    +0.000 A 
ATOM     10  C   UNL     1       5.034   6.042  16.606  0.00  0.00    +0.000 A 
ATOM     11  C   UNL     1       5.902   7.107  16.870  0.00  0.00    +0.000 A 
ENDBRANCH   4   9
ENDBRANCH   3   4
ENDBRANCH   1   3
BRANCH   1  12
ATOM     12  C   UNL     1       1.837   4.306  18.294  0.00  0.00    +0.000 C 
BRANCH  12  13
ATOM     13  C   UNL     1       2.154   5.028  19.610  0.00  0.00    +0.000 C 
BRANCH  13  14
ATOM     14  O   UNL     1       2.980   6.175  19.386  0.00  0.00    +0.000 OA
BRANCH  14  15
ATOM     15  C   UNL     1       2.293   7.365  19.325  0.00  0.00    +0.000 A 
ATOM     16  C   UNL     1       1.622   7.967  20.394  0.00  0.00    +0.000 A 
ATOM     17  C   UNL     1       0.956   9.182  20.224  0.00  0.00    +0.000 A 
ATOM     18  C   UNL     1       0.952   9.819  18.981  0.00  0.00    +0.000 A 
ATOM     19  C   UNL     1       0.248  11.129  18.802  0.00  0.00    +0.000 C 
ATOM     20  C   UNL     1       1.623   9.217  17.909  0.00  0.00    +0.000 A 
ATOM     21  C   UNL     1       2.287   7.998  18.082  0.00  0.00    +0.000 A 
ENDBRANCH  14  15
ENDBRANCH  13  14
ENDBRANCH  12  13
ENDBRANCH   1  12
TORSDOF 7
ENDMDL
MODEL 5
REMARK VINA RESULT:      -6.5      2.977      5.035
REMARK  Name = 
REMARK  10 active torsions:
REMARK  status: ('A' for Active; 'I' for Inactive)
REMARK    1  A    between atoms: C_1  and  C_2
REMARK    2  A    between atoms: C_5  and  C_6
REMARK    3  A    between atoms: C_6  and  C_7
REMARK    4  A    between atoms: C_7  and  N_8
REMARK    5  A    between atoms: N_8  and  C_9
REMARK    6  A    between atoms: N_8  and  C_10
REMARK    7  A    between atoms: C_10  and  C_11
REMARK    8  A    between atoms: C_11  and  O_12
REMARK    9  A    between atoms: O_12  and  C_13
REMARK   10  A    between atoms: C_16  and  C_17
REMARK                            x       y       z     vdW  Elec       q    Type
REMARK                         _______ _______ _______ _____ _____    ______ ____
ROOT
ATOM      1  N   UNL     1       5.684   6.306  17.857  0.00  0.00    +0.000 NA
ATOM      2  C   UNL     1       5.688   4.886  18.224  0.00  0.00    +0.000 C 
ENDROOT
BRANCH   1   3
ATOM      3  C   UNL     1       4.529   6.641  16.992  0.00  0.00    +0.000 C 
BRANCH   3   4
ATOM      4  C   UNL     1       3.289   7.166  17.736  0.00  0.00    +0.000 C 
BRANCH   4   9
ATOM      5  C   UNL     1       0.756   2.902  20.804  0.00  0.00    +0.000 C 
ATOM      6  C   UNL     1       1.385   4.008  20.010  0.00  0.00    +0.000 A 
ATOM      7  C   UNL     1       1.506   3.915  18.619  0.00  0.00    +0.000 A 
ATOM      8  C   UNL     1       2.117   4.936  17.890  0.00  0.00    +0.000 A 
ATOM      9  C   UNL     1       2.624   6.068  18.539  0.00  0.00    +0.000 A 
ATOM     10  C   UNL     1       2.486   6.173  19.928  0.00  0.00    +0.000 A 
ATOM     11  C   UNL     1       1.873   5.149  20.657  0.00  0.00    +0.000 A 
ENDBRANCH   4   9
ENDBRANCH   3   4
ENDBRANCH   1   3
BRANCH   1  12
ATOM     12  C   UNL     1       6.972   6.641  17.197  0.00  0.00    +0.000 C 
BRANCH  12  13
ATOM     13  C   UNL     1       7.581   5.458  16.432  0.00  0.00    +0.000 C 
BRANCH  13  14
ATOM     14  O   UNL     1       7.752   5.769  15.046  0.00  0.00    +0.000 OA
BRANCH  14  15
ATOM     15  C   UNL     1       7.043   4.958  14.191  0.00  0.00    +0.000 A 
ATOM     16  C   UNL     1       5.846   4.305  14.503  0.00  0.00    +0.000 A 
ATOM     17  C   UNL     1       5.205   3.503  13.557  0.00  0.00    +0.000 A 
ATOM     18  C   UNL     1       5.747   3.345  12.280  0.00  0.00    +0.000 A 
ATOM     19  C   UNL     1       5.051   2.496  11.260  0.00  0.00    +0.000 C 
ATOM     20  C   UNL     1       6.945   3.998  11.966  0.00  0.00    +0.000 A 
ATOM     21  C   UNL     1       7.588   4.798  12.918  0.00  0.00    +0.000 A 
ENDBRANCH  14  15
ENDBRANCH  13  14
ENDBRANCH  12  13
ENDBRANCH   1  12
TORSDOF 7
ENDMDL
MODEL 6
REMARK VINA RESULT:      -6.5      1.152      2.079
REMARK  Name = 
REMARK  10 active torsions:
REMARK  status: ('A' for Active; 'I' for Inactive)
REMARK    1  A    between atoms: C_1  and  C_2
REMARK    2  A    between atoms: C_5  and  C_6
REMARK    3  A    between atoms: C_6  and  C_7
REMARK    4  A    between atoms: C_7  and  N_8
REMARK    5  A    between atoms: N_8  and  C_9
REMARK    6  A    between atoms: N_8  and  C_10
REMARK    7  A    between atoms: C_10  and  C_11
REMARK    8  A    between atoms: C_11  and  O_12
REMARK    9  A    between atoms: O_12  and  C_13
REMARK   10  A    between atoms: C_16  and  C_17
REMARK                            x       y       z     vdW  Elec       q    Type
REMARK                         _______ _______ _______ _____ _____    ______ ____
ROOT
ATOM      1  N   UNL     1       2.390   3.713  20.242  0.00  0.00    +0.000 NA
ATOM      2  C   UNL     1       1.832   2.910  21.333  0.00  0.00    +0.000 C 
ENDROOT
BRANCH   1   3
ATOM      3  C   UNL     1       1.800   5.071  20.208  0.00  0.00    +0.000 C 
BRANCH   3   4
ATOM      4  C   UNL     1       2.805   6.212  19.973  0.00  0.00    +0.000 C 
BRANCH   4   9
ATOM      5  C   UNL     1       0.059  11.191  18.679  0.00  0.00    +0.000 C 
ATOM      6  C   UNL     1       0.787   9.922  19.014  0.00  0.00    +0.000 A 
ATOM      7  C   UNL     1       1.489   9.216  18.032  0.00  0.00    +0.000 A 
ATOM      8  C   UNL     1       2.140   8.023  18.346  0.00  0.00    +0.000 A 
ATOM      9  C   UNL     1       2.098   7.509  19.648  0.00  0.00    +0.000 A 
ATOM     10  C   UNL     1       1.412   8.226  20.637  0.00  0.00    +0.000 A 
ATOM     11  C   UNL     1       0.760   9.421  20.321  0.00  0.00    +0.000 A 
ENDBRANCH   4   9
ENDBRANCH   3   4
ENDBRANCH   1   3
BRANCH   1  12
ATOM     12  C   UNL     1       2.180   2.998  18.956  0.00  0.00    +0.000 C 
BRANCH  12  13
ATOM     13  C   UNL     1       3.240   3.337  17.899  0.00  0.00    +0.000 C 
BRANCH  13  14
ATOM     14  O   UNL     1       4.549   3.387  18.475  0.00  0.00    +0.000 OA
BRANCH  14  15
ATOM     15  C   UNL     1       5.261   4.522  18.165  0.00  0.00    +0.000 A 
ATOM     16  C   UNL     1       4.900   5.464  17.197  0.00  0.00    +0.000 A 
ATOM     17  C   UNL     1       5.697   6.586  16.963  0.00  0.00    +0.000 A 
ATOM     18  C   UNL     1       6.867   6.789  17.698  0.00  0.00    +0.000 A 
ATOM     19  C   UNL     1       7.715   8.001  17.457  0.00  0.00    +0.000 C 
ATOM     20  C   UNL     1       7.230   5.846  18.668  0.00  0.00    +0.000 A 
ATOM     21  C   UNL     1       6.432   4.721  18.897  0.00  0.00    +0.000 A 
ENDBRANCH  14  15
ENDBRANCH  13  14
ENDBRANCH  12  13
ENDBRANCH   1  12
TORSDOF 7
ENDMDL
MODEL 7
REMARK VINA RESULT:      -6.4      0.874      1.398
REMARK  Name = 
REMARK  10 active torsions:
REMARK  status: ('A' for Active; 'I' for Inactive)
REMARK    1  A    between atoms: C_1  and  C_2
REMARK    2  A    between atoms: C_5  and  C_6
REMARK    3  A    between atoms: C_6  and  C_7
REMARK    4  A    between atoms: C_7  and  N_8
REMARK    5  A    between atoms: N_8  and  C_9
REMARK    6  A    between atoms: N_8  and  C_10
REMARK    7  A    between atoms: C_10  and  C_11
REMARK    8  A    between atoms: C_11  and  O_12
REMARK    9  A    between atoms: O_12  and  C_13
REMARK   10  A    between atoms: C_16  and  C_17
REMARK                            x       y       z     vdW  Elec       q    Type
REMARK                         _______ _______ _______ _____ _____    ______ ____
ROOT
ATOM      1  N   UNL     1       3.075   3.119  19.843  0.00  0.00    +0.000 NA
ATOM      2  C   UNL     1       2.127   2.563  20.813  0.00  0.00    +0.000 C 
ENDROOT
BRANCH   1   3
ATOM      3  C   UNL     1       3.236   4.582  20.016  0.00  0.00    +0.000 C 
BRANCH   3   4
ATOM      4  C   UNL     1       2.036   5.297  20.661  0.00  0.00    +0.000 C 
BRANCH   4   9
ATOM      5  C   UNL     1       1.400  10.686  18.526  0.00  0.00    +0.000 C 
ATOM      6  C   UNL     1       1.587   9.305  19.082  0.00  0.00    +0.000 A 
ATOM      7  C   UNL     1       2.246   8.316  18.344  0.00  0.00    +0.000 A 
ATOM      8  C   UNL     1       2.391   7.027  18.858  0.00  0.00    +0.000 A 
ATOM      9  C   UNL     1       1.875   6.700  20.118  0.00  0.00    +0.000 A 
ATOM     10  C   UNL     1       1.233   7.694  20.867  0.00  0.00    +0.000 A 
ATOM     11  C   UNL     1       1.088   8.986  20.351  0.00  0.00    +0.000 A 
ENDBRANCH   4   9
ENDBRANCH   3   4
ENDBRANCH   1   3
BRANCH   1  12
ATOM     12  C   UNL     1       2.618   2.782  18.470  0.00  0.00    +0.000 C 
BRANCH  12  13
ATOM     13  C   UNL     1       3.155   3.746  17.404  0.00  0.00    +0.000 C 
BRANCH  13  14
ATOM     14  O   UNL     1       4.525   3.468  17.096  0.00  0.00    +0.000 OA
BRANCH  14  15
ATOM     15  C   UNL     1       5.371   4.542  17.253  0.00  0.00    +0.000 A 
ATOM     16  C   UNL     1       6.558   4.533  17.991  0.00  0.00    +0.000 A 
ATOM     17  C   UNL     1       7.347   5.681  18.084  0.00  0.00    +0.000 A 
ATOM     18  C   UNL     1       6.963   6.857  17.437  0.00  0.00    +0.000 A 
ATOM     19  C   UNL     1       7.816   8.086  17.525  0.00  0.00    +0.000 C 
ATOM     20  C   UNL     1       5.774   6.867  16.698  0.00  0.00    +0.000 A 
ATOM     21  C   UNL     1       4.983   5.716  16.609  0.00  0.00    +0.000 A 
ENDBRANCH  14  15
ENDBRANCH  13  14
ENDBRANCH  12  13
ENDBRANCH   1  12
TORSDOF 7
ENDMDL
MODEL 8
REMARK VINA RESULT:      -6.4      0.964      1.856
REMARK  Name = 
REMARK  10 active torsions:
REMARK  status: ('A' for Active; 'I' for Inactive)
REMARK    1  A    between atoms: C_1  and  C_2
REMARK    2  A    between atoms: C_5  and  C_6
REMARK    3  A    between atoms: C_6  and  C_7
REMARK    4  A    between atoms: C_7  and  N_8
REMARK    5  A    between atoms: N_8  and  C_9
REMARK    6  A    between atoms: N_8  and  C_10
REMARK    7  A    between atoms: C_10  and  C_11
REMARK    8  A    between atoms: C_11  and  O_12
REMARK    9  A    between atoms: O_12  and  C_13
REMARK   10  A    between atoms: C_16  and  C_17
REMARK                            x       y       z     vdW  Elec       q    Type
REMARK                         _______ _______ _______ _____ _____    ______ ____
ROOT
ATOM      1  N   UNL     1       3.553   3.356  19.294  0.00  0.00    +0.000 NA
ATOM      2  C   UNL     1       3.864   2.409  20.369  0.00  0.00    +0.000 C 
ENDROOT
BRANCH   1   3
ATOM      3  C   UNL     1       2.263   4.045  19.531  0.00  0.00    +0.000 C 
BRANCH   3   4
ATOM      4  C   UNL     1       2.314   5.180  20.568  0.00  0.00    +0.000 C 
BRANCH   4   9
ATOM      5  C   UNL     1       1.804  10.379  17.975  0.00  0.00    +0.000 C 
ATOM      6  C   UNL     1       1.958   9.048  18.650  0.00  0.00    +0.000 A 
ATOM      7  C   UNL     1       2.643   8.000  18.025  0.00  0.00    +0.000 A 
ATOM      8  C   UNL     1       2.757   6.757  18.648  0.00  0.00    +0.000 A 
ATOM      9  C   UNL     1       2.185   6.535  19.906  0.00  0.00    +0.000 A 
ATOM     10  C   UNL     1       1.517   7.589  20.542  0.00  0.00    +0.000 A 
ATOM     11  C   UNL     1       1.403   8.834  19.917  0.00  0.00    +0.000 A 
ENDBRANCH   4   9
ENDBRANCH   3   4
ENDBRANCH   1   3
BRANCH   1  12
ATOM     12  C   UNL     1       3.552   2.633  17.996  0.00  0.00    +0.000 C 
BRANCH  12  13
ATOM     13  C   UNL     1       3.911   3.534  16.806  0.00  0.00    +0.000 C 
BRANCH  13  14
ATOM     14  O   UNL     1       5.325   3.562  16.587  0.00  0.00    +0.000 OA
BRANCH  14  15
ATOM     15  C   UNL     1       5.915   4.777  16.850  0.00  0.00    +0.000 A 
ATOM     16  C   UNL     1       5.487   6.010  16.345  0.00  0.00    +0.000 A 
ATOM     17  C   UNL     1       6.159   7.187  16.678  0.00  0.00    +0.000 A 
ATOM     18  C   UNL     1       7.268   7.153  17.526  0.00  0.00    +0.000 A 
ATOM     19  C   UNL     1       7.980   8.419  17.895  0.00  0.00    +0.000 C 
ATOM     20  C   UNL     1       7.697   5.920  18.032  0.00  0.00    +0.000 A 
ATOM     21  C   UNL     1       7.024   4.741  17.694  0.00  0.00    +0.000 A 
ENDBRANCH  14  15
ENDBRANCH  13  14
ENDBRANCH  12  13
ENDBRANCH   1  12
TORSDOF 7
ENDMDL
MODEL 9
REMARK VINA RESULT:      -6.4      1.338      4.964
REMARK  Name = 
REMARK  10 active torsions:
REMARK  status: ('A' for Active; 'I' for Inactive)
REMARK    1  A    between atoms: C_1  and  C_2
REMARK    2  A    between atoms: C_5  and  C_6
REMARK    3  A    between atoms: C_6  and  C_7
REMARK    4  A    between atoms: C_7  and  N_8
REMARK    5  A    between atoms: N_8  and  C_9
REMARK    6  A    between atoms: N_8  and  C_10
REMARK    7  A    between atoms: C_10  and  C_11
REMARK    8  A    between atoms: C_11  and  O_12
REMARK    9  A    between atoms: O_12  and  C_13
REMARK   10  A    between atoms: C_16  and  C_17
REMARK                            x       y       z     vdW  Elec       q    Type
REMARK                         _______ _______ _______ _____ _____    ______ ____
ROOT
ATOM      1  N   UNL     1       2.164   3.211  19.230  0.00  0.00    +0.000 NA
ATOM      2  C   UNL     1       3.198   2.786  20.178  0.00  0.00    +0.000 C 
ENDROOT
BRANCH   1   3
ATOM      3  C   UNL     1       2.756   3.721  17.972  0.00  0.00    +0.000 C 
BRANCH   3   4
ATOM      4  C   UNL     1       4.227   3.335  17.741  0.00  0.00    +0.000 C 
BRANCH   4   9
ATOM      5  C   UNL     1       7.604   8.083  17.500  0.00  0.00    +0.000 C 
ATOM      6  C   UNL     1       6.748   6.851  17.543  0.00  0.00    +0.000 A 
ATOM      7  C   UNL     1       5.672   6.693  16.663  0.00  0.00    +0.000 A 
ATOM      8  C   UNL     1       4.865   5.557  16.728  0.00  0.00    +0.000 A 
ATOM      9  C   UNL     1       5.114   4.559  17.678  0.00  0.00    +0.000 A 
ATOM     10  C   UNL     1       6.203   4.706  18.546  0.00  0.00    +0.000 A 
ATOM     11  C   UNL     1       7.012   5.845  18.480  0.00  0.00    +0.000 A 
ENDBRANCH   4   9
ENDBRANCH   3   4
ENDBRANCH   1   3
BRANCH   1  12
ATOM     12  C   UNL     1       1.303   4.234  19.878  0.00  0.00    +0.000 C 
BRANCH  12  13
ATOM     13  C   UNL     1       2.101   5.279  20.669  0.00  0.00    +0.000 C 
BRANCH  13  14
ATOM     14  O   UNL     1       2.811   6.160  19.794  0.00  0.00    +0.000 OA
BRANCH  14  15
ATOM     15  C   UNL     1       2.208   7.384  19.612  0.00  0.00    +0.000 A 
ATOM     16  C   UNL     1       1.485   8.082  20.584  0.00  0.00    +0.000 A 
ATOM     17  C   UNL     1       0.914   9.322  20.293  0.00  0.00    +0.000 A 
ATOM     18  C   UNL     1       1.061   9.888  19.025  0.00  0.00    +0.000 A 
ATOM     19  C   UNL     1       0.460  11.226  18.717  0.00  0.00    +0.000 C 
ATOM     20  C   UNL     1       1.785   9.190  18.051  0.00  0.00    +0.000 A 
ATOM     21  C   UNL     1       2.353   7.946  18.344  0.00  0.00    +0.000 A 
ENDBRANCH  14  15
ENDBRANCH  13  14
ENDBRANCH  12  13
ENDBRANCH   1  12
TORSDOF 7
ENDMDL
