MODEL 1
REMARK VINA RESULT:      -6.8      0.000      0.000
REMARK  Name = 
REMARK  18 active torsions:
REMARK  status: ('A' for Active; 'I' for Inactive)
REMARK    1  A    between atoms: C_1  and  S_2
REMARK    2  A    between atoms: S_2  and  N_5
REMARK    3  A    between atoms: N_5  and  C_6
REMARK    4  A    between atoms: N_5  and  C_15
REMARK    5  A    between atoms: C_6  and  C_7
REMARK    6  A    between atoms: C_7  and  C_8
REMARK    7  A    between atoms: C_8  and  C_9
REMARK    8  A    between atoms: C_9  and  C_10
REMARK    9  A    between atoms: C_10  and  C_11
REMARK   10  A    between atoms: C_11  and  C_12
REMARK   11  A    between atoms: C_12  and  O_14
REMARK   12  A    between atoms: C_15  and  C_16
REMARK   13  A    between atoms: C_16  and  C_17
REMARK   14  A    between atoms: C_17  and  C_18
REMARK   15  A    between atoms: C_18  and  O_19
REMARK   16  A    between atoms: C_18  and  C_20
REMARK   17  A    between atoms: C_20  and  O_21
REMARK   18  A    between atoms: O_21  and  C_22
REMARK                            x       y       z     vdW  Elec       q    Type
REMARK                         _______ _______ _______ _____ _____    ______ ____
ROOT
ATOM      1  N   UNL     1       2.605   4.154  17.818  0.00  0.00    +0.000 NA
ENDROOT
BRANCH   1   3
ATOM      2  C   UNL     1       2.253   3.091  20.341  0.00  0.00    +0.000 C 
ATOM      3  S   UNL     1       2.095   2.691  18.615  0.00  0.00    +0.000 S 
ATOM      4  O   UNL     1       3.077   1.659  18.353  0.00  0.00    +0.000 OA
ATOM      5  O   UNL     1       0.697   2.485  18.308  0.00  0.00    +0.000 OA
ENDBRANCH   1   3
BRANCH   1   6
ATOM      6  C   UNL     1       4.041   4.168  17.363  0.00  0.00    +0.000 C 
BRANCH   6   7
ATOM      7  C   UNL     1       5.071   4.282  18.475  0.00  0.00    +0.000 C 
BRANCH   7   8
ATOM      8  C   UNL     1       5.866   5.601  18.450  0.00  0.00    +0.000 C 
BRANCH   8   9
ATOM      9  C   UNL     1       7.307   5.425  17.933  0.00  0.00    +0.000 C 
BRANCH   9  10
ATOM     10  O   UNL     1       8.075   4.777  18.950  0.00  0.00    +0.000 OA
ATOM     11  H   UNL     1       7.886   5.210  19.798  0.00  0.00    +0.000 HD
ENDBRANCH   9  10
BRANCH   9  12
ATOM     12  C   UNL     1       7.340   4.649  16.603  0.00  0.00    +0.000 C 
BRANCH  12  13
ATOM     13  O   UNL     1       7.529   5.506  15.474  0.00  0.00    +0.000 OA
BRANCH  13  14
ATOM     14  C   UNL     1       7.172   4.946  14.268  0.00  0.00    +0.000 A 
ATOM     15  C   UNL     1       6.064   4.099  14.340  0.00  0.00    +0.000 A 
ATOM     16  C   UNL     1       5.590   3.441  13.202  0.00  0.00    +0.000 A 
ATOM     17  C   UNL     1       6.223   3.621  11.974  0.00  0.00    +0.000 A 
ATOM     18  C   UNL     1       7.326   4.468  11.883  0.00  0.00    +0.000 A 
ATOM     19  C   UNL     1       7.795   5.122  13.022  0.00  0.00    +0.000 A 
ATOM     20  F   UNL     1       8.862   5.917  12.869  0.00  0.00    +0.000 F 
ENDBRANCH  13  14
ENDBRANCH  12  13
ENDBRANCH   9  12
ENDBRANCH   8   9
ENDBRANCH   7   8
ENDBRANCH   6   7
ENDBRANCH   1   6
BRANCH   1  21
ATOM     21  C   UNL     1       2.290   5.353  18.685  0.00  0.00    +0.000 C 
BRANCH  21  22
ATOM     22  C   UNL     1       2.414   6.710  17.987  0.00  0.00    +0.000 C 
BRANCH  22  23
ATOM     23  C   UNL     1       2.277   7.900  18.936  0.00  0.00    +0.000 C 
BRANCH  23  24
ATOM     24  C   UNL     1       1.409   8.996  18.310  0.00  0.00    +0.000 C 
BRANCH  24  25
ATOM     25  C   UNL     1       1.031  10.055  19.343  0.00  0.00    +0.000 C 
BRANCH  25  26
ATOM     26  C   UNL     1       0.725   9.434  20.705  0.00  0.00    +0.000 C 
BRANCH  26  27
ATOM     27  C   UNL     1       0.558  10.492  21.772  0.00  0.00    +0.000 C 
ATOM     28  O   UNL     1       0.159  10.294  22.907  0.00  0.00    +0.000 OA
BRANCH  27  29
ATOM     29  O   UNL     1       0.905  11.724  21.332  0.00  0.00    +0.000 OA
ATOM     30  H   UNL     1       0.683  11.885  20.395  0.00  0.00    +0.000 HD
ENDBRANCH  27  29
ENDBRANCH  26  27
ENDBRANCH  25  26
ENDBRANCH  24  25
ENDBRANCH  23  24
ENDBRANCH  22  23
ENDBRANCH  21  22
ENDBRANCH   1  21
TORSDOF 17
ENDMDL
MODEL 2
REMARK VINA RESULT:      -6.6      3.466      8.579
REMARK  Name = 
REMARK  18 active torsions:
REMARK  status: ('A' for Active; 'I' for Inactive)
REMARK    1  A    between atoms: C_1  and  S_2
REMARK    2  A    between atoms: S_2  and  N_5
REMARK    3  A    between atoms: N_5  and  C_6
REMARK    4  A    between atoms: N_5  and  C_15
REMARK    5  A    between atoms: C_6  and  C_7
REMARK    6  A    between atoms: C_7  and  C_8
REMARK    7  A    between atoms: C_8  and  C_9
REMARK    8  A    between atoms: C_9  and  C_10
REMARK    9  A    between atoms: C_10  and  C_11
REMARK   10  A    between atoms: C_11  and  C_12
REMARK   11  A    between atoms: C_12  and  O_14
REMARK   12  A    between atoms: C_15  and  C_16
REMARK   13  A    between atoms: C_16  and  C_17
REMARK   14  A    between atoms: C_17  and  C_18
REMARK   15  A    between atoms: C_18  and  O_19
REMARK   16  A    between atoms: C_18  and  C_20
REMARK   17  A    between atoms: C_20  and  O_21
REMARK   18  A    between atoms: O_21  and  C_22
REMARK                            x       y       z     vdW  Elec       q    Type
REMARK                         _______ _______ _______ _____ _____    ______ ____
ROOT
ATOM      1  N   UNL     1       3.985   4.119  19.179  0.00  0.00    +0.000 NA
ENDROOT
BRANCH   1   3
ATOM      2  C   UNL     1       3.322   1.554  18.402  0.00  0.00    +0.000 C 
ATOM      3  S   UNL     1       3.732   2.524  19.836  0.00  0.00    +0.000 S 
ATOM      4  O   UNL     1       2.538   2.550  20.655  0.00  0.00    +0.000 OA
ATOM      5  O   UNL     1       4.993   2.062  20.371  0.00  0.00    +0.000 OA
ENDBRANCH   1   3
BRANCH   1   6
ATOM      6  C   UNL     1       2.730   4.897  18.883  0.00  0.00    +0.000 C 
BRANCH   6   7
ATOM      7  C   UNL     1       2.809   6.387  19.171  0.00  0.00    +0.000 C 
BRANCH   7   8
ATOM      8  C   UNL     1       2.080   7.258  18.130  0.00  0.00    +0.000 C 
BRANCH   8   9
ATOM      9  C   UNL     1       2.221   8.768  18.406  0.00  0.00    +0.000 C 
BRANCH   9  10
ATOM     10  O   UNL     1       2.438   9.435  17.161  0.00  0.00    +0.000 OA
ATOM     11  H   UNL     1       3.306   9.870  17.194  0.00  0.00    +0.000 HD
ENDBRANCH   9  10
BRANCH   9  12
ATOM     12  C   UNL     1       0.993   9.322  19.152  0.00  0.00    +0.000 C 
BRANCH  12  13
ATOM     13  O   UNL     1       1.326  10.410  20.020  0.00  0.00    +0.000 OA
BRANCH  13  14
ATOM     14  C   UNL     1       0.431  10.614  21.046  0.00  0.00    +0.000 A 
ATOM     15  C   UNL     1       0.526   9.676  22.077  0.00  0.00    +0.000 A 
ATOM     16  C   UNL     1      -0.327   9.738  23.182  0.00  0.00    +0.000 A 
ATOM     17  C   UNL     1      -1.291  10.740  23.268  0.00  0.00    +0.000 A 
ATOM     18  C   UNL     1      -1.396  11.687  22.251  0.00  0.00    +0.000 A 
ATOM     19  C   UNL     1      -0.542  11.620  21.150  0.00  0.00    +0.000 A 
ATOM     20  F   UNL     1      -0.697  12.556  20.204  0.00  0.00    +0.000 F 
ENDBRANCH  13  14
ENDBRANCH  12  13
ENDBRANCH   9  12
ENDBRANCH   8   9
ENDBRANCH   7   8
ENDBRANCH   6   7
ENDBRANCH   1   6
BRANCH   1  21
ATOM     21  C   UNL     1       4.885   4.042  17.966  0.00  0.00    +0.000 C 
BRANCH  21  22
ATOM     22  C   UNL     1       4.317   4.680  16.695  0.00  0.00    +0.000 C 
BRANCH  22  23
ATOM     23  C   UNL     1       5.346   5.489  15.906  0.00  0.00    +0.000 C 
BRANCH  23  24
ATOM     24  C   UNL     1       5.795   6.719  16.703  0.00  0.00    +0.000 C 
BRANCH  24  25
ATOM     25  C   UNL     1       7.299   6.686  16.964  0.00  0.00    +0.000 C 
BRANCH  25  26
ATOM     26  C   UNL     1       7.617   6.802  18.454  0.00  0.00    +0.000 C 
BRANCH  26  27
ATOM     27  C   UNL     1       7.960   5.457  19.055  0.00  0.00    +0.000 C 
ATOM     28  O   UNL     1       8.132   4.426  18.426  0.00  0.00    +0.000 OA
BRANCH  27  29
ATOM     29  O   UNL     1       8.060   5.507  20.403  0.00  0.00    +0.000 OA
ATOM     30  H   UNL     1       8.847   5.990  20.721  0.00  0.00    +0.000 HD
ENDBRANCH  27  29
ENDBRANCH  26  27
ENDBRANCH  25  26
ENDBRANCH  24  25
ENDBRANCH  23  24
ENDBRANCH  22  23
ENDBRANCH  21  22
ENDBRANCH   1  21
TORSDOF 17
ENDMDL
MODEL 3
REMARK VINA RESULT:      -6.6      3.477      8.830
REMARK  Name = 
REMARK  18 active torsions:
REMARK  status: ('A' for Active; 'I' for Inactive)
REMARK    1  A    between atoms: C_1  and  S_2
REMARK    2  A    between atoms: S_2  and  N_5
REMARK    3  A    between atoms: N_5  and  C_6
REMARK    4  A    between atoms: N_5  and  C_15
REMARK    5  A    between atoms: C_6  and  C_7
REMARK    6  A    between atoms: C_7  and  C_8
REMARK    7  A    between atoms: C_8  and  C_9
REMARK    8  A    between atoms: C_9  and  C_10
REMARK    9  A    between atoms: C_10  and  C_11
REMARK   10  A    between atoms: C_11  and  C_12
REMARK   11  A    between atoms: C_12  and  O_14
REMARK   12  A    between atoms: C_15  and  C_16
REMARK   13  A    between atoms: C_16  and  C_17
REMARK   14  A    between atoms: C_17  and  C_18
REMARK   15  A    between atoms: C_18  and  O_19
REMARK   16  A    between atoms: C_18  and  C_20
REMARK   17  A    between atoms: C_20  and  O_21
REMARK   18  A    between atoms: O_21  and  C_22
REMARK                            x       y       z     vdW  Elec       q    Type
REMARK                         _______ _______ _______ _____ _____    ______ ____
ROOT
ATOM      1  N   UNL     1       5.574   5.084  17.433  0.00  0.00    +0.000 NA
ENDROOT
BRANCH   1   3
ATOM      2  C   UNL     1       7.637   6.877  17.815  0.00  0.00    +0.000 C 
ATOM      3  S   UNL     1       7.156   5.198  18.155  0.00  0.00    +0.000 S 
ATOM      4  O   UNL     1       8.066   4.361  17.400  0.00  0.00    +0.000 OA
ATOM      5  O   UNL     1       7.003   5.035  19.583  0.00  0.00    +0.000 OA
ENDBRANCH   1   3
BRANCH   1   6
ATOM      6  C   UNL     1       5.081   3.681  17.190  0.00  0.00    +0.000 C 
BRANCH   6   7
ATOM      7  C   UNL     1       4.057   3.172  18.191  0.00  0.00    +0.000 C 
BRANCH   7   8
ATOM      8  C   UNL     1       3.693   4.198  19.281  0.00  0.00    +0.000 C 
BRANCH   8   9
ATOM      9  C   UNL     1       2.423   3.817  20.066  0.00  0.00    +0.000 C 
BRANCH   9  10
ATOM     10  O   UNL     1       2.817   3.128  21.254  0.00  0.00    +0.000 OA
ATOM     11  H   UNL     1       3.314   2.334  20.997  0.00  0.00    +0.000 HD
ENDBRANCH   9  10
BRANCH   9  12
ATOM     12  C   UNL     1       1.558   5.053  20.375  0.00  0.00    +0.000 C 
BRANCH  12  13
ATOM     13  O   UNL     1       2.345   6.210  20.677  0.00  0.00    +0.000 OA
BRANCH  13  14
ATOM     14  C   UNL     1       1.966   7.348  20.002  0.00  0.00    +0.000 A 
ATOM     15  C   UNL     1       2.368   7.377  18.665  0.00  0.00    +0.000 A 
ATOM     16  C   UNL     1       2.073   8.474  17.852  0.00  0.00    +0.000 A 
ATOM     17  C   UNL     1       1.373   9.562  18.369  0.00  0.00    +0.000 A 
ATOM     18  C   UNL     1       0.959   9.547  19.700  0.00  0.00    +0.000 A 
ATOM     19  C   UNL     1       1.256   8.449  20.507  0.00  0.00    +0.000 A 
ATOM     20  F   UNL     1       0.836   8.499  21.778  0.00  0.00    +0.000 F 
ENDBRANCH  13  14
ENDBRANCH  12  13
ENDBRANCH   9  12
ENDBRANCH   8   9
ENDBRANCH   7   8
ENDBRANCH   6   7
ENDBRANCH   1   6
BRANCH   1  21
ATOM     21  C   UNL     1       5.519   5.914  16.171  0.00  0.00    +0.000 C 
BRANCH  21  22
ATOM     22  C   UNL     1       5.298   5.120  14.880  0.00  0.00    +0.000 C 
BRANCH  22  23
ATOM     23  C   UNL     1       6.596   4.718  14.181  0.00  0.00    +0.000 C 
BRANCH  23  24
ATOM     24  C   UNL     1       6.385   3.464  13.326  0.00  0.00    +0.000 C 
BRANCH  24  25
ATOM     25  C   UNL     1       5.377   3.723  12.209  0.00  0.00    +0.000 C 
BRANCH  25  26
ATOM     26  C   UNL     1       5.154   2.481  11.348  0.00  0.00    +0.000 C 
BRANCH  26  27
ATOM     27  C   UNL     1       6.401   1.630  11.269  0.00  0.00    +0.000 C 
ATOM     28  O   UNL     1       7.514   2.033  10.974  0.00  0.00    +0.000 OA
BRANCH  27  29
ATOM     29  O   UNL     1       6.158   0.333  11.565  0.00  0.00    +0.000 OA
ATOM     30  H   UNL     1       6.801  -0.288  11.173  0.00  0.00    +0.000 HD
ENDBRANCH  27  29
ENDBRANCH  26  27
ENDBRANCH  25  26
ENDBRANCH  24  25
ENDBRANCH  23  24
ENDBRANCH  22  23
ENDBRANCH  21  22
ENDBRANCH   1  21
TORSDOF 17
ENDMDL
MODEL 4
REMARK VINA RESULT:      -6.6      3.891      8.799
REMARK  Name = 
REMARK  18 active torsions:
REMARK  status: ('A' for Active; 'I' for Inactive)
REMARK    1  A    between atoms: C_1  and  S_2
REMARK    2  A    between atoms: S_2  and  N_5
REMARK    3  A    between atoms: N_5  and  C_6
REMARK    4  A    between atoms: N_5  and  C_15
REMARK    5  A    between atoms: C_6  and  C_7
REMARK    6  A    between atoms: C_7  and  C_8
REMARK    7  A    between atoms: C_8  and  C_9
REMARK    8  A    between atoms: C_9  and  C_10
REMARK    9  A    between atoms: C_10  and  C_11
REMARK   10  A    between atoms: C_11  and  C_12
REMARK   11  A    between atoms: C_12  and  O_14
REMARK   12  A    between atoms: C_15  and  C_16
REMARK   13  A    between atoms: C_16  and  C_17
REMARK   14  A    between atoms: C_17  and  C_18
REMARK   15  A    between atoms: C_18  and  O_19
REMARK   16  A    between atoms: C_18  and  C_20
REMARK   17  A    between atoms: C_20  and  O_21
REMARK   18  A    between atoms: O_21  and  C_22
REMARK                            x       y       z     vdW  Elec       q    Type
REMARK                         _______ _______ _______ _____ _____    ______ ____
ROOT
ATOM      1  N   UNL     1       5.273   5.636  16.605  0.00  0.00    +0.000 NA
ENDROOT
BRANCH   1   3
ATOM      2  C   UNL     1       7.610   4.701  17.739  0.00  0.00    +0.000 C 
ATOM      3  S   UNL     1       7.004   5.807  16.484  0.00  0.00    +0.000 S 
ATOM      4  O   UNL     1       7.365   7.140  16.919  0.00  0.00    +0.000 OA
ATOM      5  O   UNL     1       7.407   5.311  15.187  0.00  0.00    +0.000 OA
ENDBRANCH   1   3
BRANCH   1   6
ATOM      6  C   UNL     1       4.621   6.468  17.678  0.00  0.00    +0.000 C 
BRANCH   6   7
ATOM      7  C   UNL     1       3.606   7.485  17.182  0.00  0.00    +0.000 C 
BRANCH   7   8
ATOM      8  C   UNL     1       2.386   7.646  18.108  0.00  0.00    +0.000 C 
BRANCH   8   9
ATOM      9  C   UNL     1       2.152   9.104  18.546  0.00  0.00    +0.000 C 
BRANCH   9  10
ATOM     10  O   UNL     1       1.618   9.828  17.436  0.00  0.00    +0.000 OA
ATOM     11  H   UNL     1       1.988   9.454  16.619  0.00  0.00    +0.000 HD
ENDBRANCH   9  10
BRANCH   9  12
ATOM     12  C   UNL     1       1.236   9.183  19.781  0.00  0.00    +0.000 C 
BRANCH  12  13
ATOM     13  O   UNL     1       0.044   9.934  19.531  0.00  0.00    +0.000 OA
BRANCH  13  14
ATOM     14  C   UNL     1      -0.509  10.514  20.650  0.00  0.00    +0.000 A 
ATOM     15  C   UNL     1      -0.296   9.793  21.828  0.00  0.00    +0.000 A 
ATOM     16  C   UNL     1      -0.810  10.244  23.046  0.00  0.00    +0.000 A 
ATOM     17  C   UNL     1      -1.549  11.424  23.101  0.00  0.00    +0.000 A 
ATOM     18  C   UNL     1      -1.766  12.159  21.937  0.00  0.00    +0.000 A 
ATOM     19  C   UNL     1      -1.250  11.704  20.723  0.00  0.00    +0.000 A 
ATOM     20  F   UNL     1      -1.498  12.452  19.640  0.00  0.00    +0.000 F 
ENDBRANCH  13  14
ENDBRANCH  12  13
ENDBRANCH   9  12
ENDBRANCH   8   9
ENDBRANCH   7   8
ENDBRANCH   6   7
ENDBRANCH   1   6
BRANCH   1  21
ATOM     21  C   UNL     1       4.905   4.175  16.739  0.00  0.00    +0.000 C 
BRANCH  21  22
ATOM     22  C   UNL     1       3.402   3.884  16.759  0.00  0.00    +0.000 C 
BRANCH  22  23
ATOM     23  C   UNL     1       2.958   3.047  17.957  0.00  0.00    +0.000 C 
BRANCH  23  24
ATOM     24  C   UNL     1       4.038   3.040  19.044  0.00  0.00    +0.000 C 
BRANCH  24  25
ATOM     25  C   UNL     1       3.812   4.163  20.053  0.00  0.00    +0.000 C 
BRANCH  25  26
ATOM     26  C   UNL     1       2.325   4.391  20.321  0.00  0.00    +0.000 C 
BRANCH  26  27
ATOM     27  C   UNL     1       1.786   3.404  21.331  0.00  0.00    +0.000 C 
ATOM     28  O   UNL     1       2.328   3.100  22.381  0.00  0.00    +0.000 OA
BRANCH  27  29
ATOM     29  O   UNL     1       0.605   2.868  20.945  0.00  0.00    +0.000 OA
ATOM     30  H   UNL     1       0.001   2.673  21.686  0.00  0.00    +0.000 HD
ENDBRANCH  27  29
ENDBRANCH  26  27
ENDBRANCH  25  26
ENDBRANCH  24  25
ENDBRANCH  23  24
ENDBRANCH  22  23
ENDBRANCH  21  22
ENDBRANCH   1  21
TORSDOF 17
ENDMDL
MODEL 5
REMARK VINA RESULT:      -6.5      4.442      6.872
REMARK  Name = 
REMARK  18 active torsions:
REMARK  status: ('A' for Active; 'I' for Inactive)
REMARK    1  A    between atoms: C_1  and  S_2
REMARK    2  A    between atoms: S_2  and  N_5
REMARK    3  A    between atoms: N_5  and  C_6
REMARK    4  A    between atoms: N_5  and  C_15
REMARK    5  A    between atoms: C_6  and  C_7
REMARK    6  A    between atoms: C_7  and  C_8
REMARK    7  A    between atoms: C_8  and  C_9
REMARK    8  A    between atoms: C_9  and  C_10
REMARK    9  A    between atoms: C_10  and  C_11
REMARK   10  A    between atoms: C_11  and  C_12
REMARK   11  A    between atoms: C_12  and  O_14
REMARK   12  A    between atoms: C_15  and  C_16
REMARK   13  A    between atoms: C_16  and  C_17
REMARK   14  A    between atoms: C_17  and  C_18
REMARK   15  A    between atoms: C_18  and  O_19
REMARK   16  A    between atoms: C_18  and  C_20
REMARK   17  A    between atoms: C_20  and  O_21
REMARK   18  A    between atoms: O_21  and  C_22
REMARK                            x       y       z     vdW  Elec       q    Type
REMARK                         _______ _______ _______ _____ _____    ______ ____
ROOT
ATOM      1  N   UNL     1       4.706   5.113  18.463  0.00  0.00    +0.000 NA
ENDROOT
BRANCH   1   3
ATOM      2  C   UNL     1       2.365   6.357  17.694  0.00  0.00    +0.000 C 
ATOM      3  S   UNL     1       4.133   6.468  17.528  0.00  0.00    +0.000 S 
ATOM      4  O   UNL     1       4.420   6.215  16.131  0.00  0.00    +0.000 OA
ATOM      5  O   UNL     1       4.590   7.677  18.177  0.00  0.00    +0.000 OA
ENDBRANCH   1   3
BRANCH   1   6
ATOM      6  C   UNL     1       5.994   5.349  19.209  0.00  0.00    +0.000 C 
BRANCH   6   7
ATOM      7  C   UNL     1       7.218   5.562  18.334  0.00  0.00    +0.000 C 
BRANCH   7   8
ATOM      8  C   UNL     1       8.054   6.795  18.727  0.00  0.00    +0.000 C 
BRANCH   8   9
ATOM      9  C   UNL     1       8.129   7.852  17.608  0.00  0.00    +0.000 C 
BRANCH   9  10
ATOM     10  O   UNL     1       6.992   7.691  16.758  0.00  0.00    +0.000 OA
ATOM     11  H   UNL     1       6.912   8.481  16.199  0.00  0.00    +0.000 HD
ENDBRANCH   9  10
BRANCH   9  12
ATOM     12  C   UNL     1       8.222   9.277  18.183  0.00  0.00    +0.000 C 
BRANCH  12  13
ATOM     13  O   UNL     1       9.220   9.393  19.201  0.00  0.00    +0.000 OA
BRANCH  13  14
ATOM     14  C   UNL     1       9.632  10.683  19.451  0.00  0.00    +0.000 A 
ATOM     15  C   UNL     1       9.333  11.136  20.738  0.00  0.00    +0.000 A 
ATOM     16  C   UNL     1       9.672  12.431  21.138  0.00  0.00    +0.000 A 
ATOM     17  C   UNL     1      10.313  13.293  20.251  0.00  0.00    +0.000 A 
ATOM     18  C   UNL     1      10.624  12.855  18.965  0.00  0.00    +0.000 A 
ATOM     19  C   UNL     1      10.284  11.561  18.571  0.00  0.00    +0.000 A 
ATOM     20  F   UNL     1      10.604  11.203  17.321  0.00  0.00    +0.000 F 
ENDBRANCH  13  14
ENDBRANCH  12  13
ENDBRANCH   9  12
ENDBRANCH   8   9
ENDBRANCH   7   8
ENDBRANCH   6   7
ENDBRANCH   1   6
BRANCH   1  21
ATOM     21  C   UNL     1       4.791   3.881  17.591  0.00  0.00    +0.000 C 
BRANCH  21  22
ATOM     22  C   UNL     1       3.474   3.121  17.410  0.00  0.00    +0.000 C 
BRANCH  22  23
ATOM     23  C   UNL     1       3.345   1.897  18.315  0.00  0.00    +0.000 C 
BRANCH  23  24
ATOM     24  C   UNL     1       1.971   1.867  18.993  0.00  0.00    +0.000 C 
BRANCH  24  25
ATOM     25  C   UNL     1       1.293   3.233  18.924  0.00  0.00    +0.000 C 
BRANCH  25  26
ATOM     26  C   UNL     1       0.855   3.718  20.305  0.00  0.00    +0.000 C 
BRANCH  26  27
ATOM     27  C   UNL     1       2.038   3.902  21.229  0.00  0.00    +0.000 C 
ATOM     28  O   UNL     1       2.276   3.224  22.214  0.00  0.00    +0.000 OA
BRANCH  27  29
ATOM     29  O   UNL     1       2.833   4.927  20.847  0.00  0.00    +0.000 OA
ATOM     30  H   UNL     1       2.357   5.770  20.722  0.00  0.00    +0.000 HD
ENDBRANCH  27  29
ENDBRANCH  26  27
ENDBRANCH  25  26
ENDBRANCH  24  25
ENDBRANCH  23  24
ENDBRANCH  22  23
ENDBRANCH  21  22
ENDBRANCH   1  21
TORSDOF 17
ENDMDL
MODEL 6
REMARK VINA RESULT:      -6.5      3.332      7.897
REMARK  Name = 
REMARK  18 active torsions:
REMARK  status: ('A' for Active; 'I' for Inactive)
REMARK    1  A    between atoms: C_1  and  S_2
REMARK    2  A    between atoms: S_2  and  N_5
REMARK    3  A    between atoms: N_5  and  C_6
REMARK    4  A    between atoms: N_5  and  C_15
REMARK    5  A    between atoms: C_6  and  C_7
REMARK    6  A    between atoms: C_7  and  C_8
REMARK    7  A    between atoms: C_8  and  C_9
REMARK    8  A    between atoms: C_9  and  C_10
REMARK    9  A    between atoms: C_10  and  C_11
REMARK   10  A    between atoms: C_11  and  C_12
REMARK   11  A    between atoms: C_12  and  O_14
REMARK   12  A    between atoms: C_15  and  C_16
REMARK   13  A    between atoms: C_16  and  C_17
REMARK   14  A    between atoms: C_17  and  C_18
REMARK   15  A    between atoms: C_18  and  O_19
REMARK   16  A    between atoms: C_18  and  C_20
REMARK   17  A    between atoms: C_20  and  O_21
REMARK   18  A    between atoms: O_21  and  C_22
REMARK                            x       y       z     vdW  Elec       q    Type
REMARK                         _______ _______ _______ _____ _____    ______ ____
ROOT
ATOM      1  N   UNL     1       3.626   3.921  18.286  0.00  0.00    +0.000 NA
ENDROOT
BRANCH   1   3
ATOM      2  C   UNL     1       3.799   1.171  18.456  0.00  0.00    +0.000 C 
ATOM      3  S   UNL     1       3.129   2.589  19.295  0.00  0.00    +0.000 S 
ATOM      4  O   UNL     1       1.689   2.460  19.209  0.00  0.00    +0.000 OA
ATOM      5  O   UNL     1       3.790   2.734  20.573  0.00  0.00    +0.000 OA
ENDBRANCH   1   3
BRANCH   1   6
ATOM      6  C   UNL     1       2.505   4.656  17.599  0.00  0.00    +0.000 C 
BRANCH   6   7
ATOM      7  C   UNL     1       2.351   6.116  17.995  0.00  0.00    +0.000 C 
BRANCH   7   8
ATOM      8  C   UNL     1       2.828   6.423  19.426  0.00  0.00    +0.000 C 
BRANCH   8   9
ATOM      9  C   UNL     1       1.789   6.046  20.500  0.00  0.00    +0.000 C 
BRANCH   9  10
ATOM     10  O   UNL     1       2.428   5.217  21.474  0.00  0.00    +0.000 OA
ATOM     11  H   UNL     1       2.263   5.595  22.353  0.00  0.00    +0.000 HD
ENDBRANCH   9  10
BRANCH   9  12
ATOM     12  C   UNL     1       1.154   7.297  21.135  0.00  0.00    +0.000 C 
BRANCH  12  13
ATOM     13  O   UNL     1       1.701   8.512  20.616  0.00  0.00    +0.000 OA
BRANCH  13  14
ATOM     14  C   UNL     1       0.770   9.495  20.367  0.00  0.00    +0.000 A 
ATOM     15  C   UNL     1       0.528   9.719  19.010  0.00  0.00    +0.000 A 
ATOM     16  C   UNL     1      -0.380  10.698  18.596  0.00  0.00    +0.000 A 
ATOM     17  C   UNL     1      -1.056  11.469  19.538  0.00  0.00    +0.000 A 
ATOM     18  C   UNL     1      -0.831  11.255  20.897  0.00  0.00    +0.000 A 
ATOM     19  C   UNL     1       0.076  10.277  21.304  0.00  0.00    +0.000 A 
ATOM     20  F   UNL     1       0.252  10.124  22.623  0.00  0.00    +0.000 F 
ENDBRANCH  13  14
ENDBRANCH  12  13
ENDBRANCH   9  12
ENDBRANCH   8   9
ENDBRANCH   7   8
ENDBRANCH   6   7
ENDBRANCH   1   6
BRANCH   1  21
ATOM     21  C   UNL     1       4.671   3.458  17.295  0.00  0.00    +0.000 C 
BRANCH  21  22
ATOM     22  C   UNL     1       4.620   4.147  15.929  0.00  0.00    +0.000 C 
BRANCH  22  23
ATOM     23  C   UNL     1       5.810   5.070  15.667  0.00  0.00    +0.000 C 
BRANCH  23  24
ATOM     24  C   UNL     1       5.567   6.455  16.277  0.00  0.00    +0.000 C 
BRANCH  24  25
ATOM     25  C   UNL     1       6.684   6.832  17.246  0.00  0.00    +0.000 C 
BRANCH  25  26
ATOM     26  C   UNL     1       6.456   6.235  18.634  0.00  0.00    +0.000 C 
BRANCH  26  27
ATOM     27  C   UNL     1       7.571   5.290  19.021  0.00  0.00    +0.000 C 
ATOM     28  O   UNL     1       8.067   4.447  18.292  0.00  0.00    +0.000 OA
BRANCH  27  29
ATOM     29  O   UNL     1       7.979   5.473  20.297  0.00  0.00    +0.000 OA
ATOM     30  H   UNL     1       8.867   5.113  20.482  0.00  0.00    +0.000 HD
ENDBRANCH  27  29
ENDBRANCH  26  27
ENDBRANCH  25  26
ENDBRANCH  24  25
ENDBRANCH  23  24
ENDBRANCH  22  23
ENDBRANCH  21  22
ENDBRANCH   1  21
TORSDOF 17
ENDMDL
MODEL 7
REMARK VINA RESULT:      -6.5      2.881      5.405
REMARK  Name = 
REMARK  18 active torsions:
REMARK  status: ('A' for Active; 'I' for Inactive)
REMARK    1  A    between atoms: C_1  and  S_2
REMARK    2  A    between atoms: S_2  and  N_5
REMARK    3  A    between atoms: N_5  and  C_6
REMARK    4  A    between atoms: N_5  and  C_15
REMARK    5  A    between atoms: C_6  and  C_7
REMARK    6  A    between atoms: C_7  and  C_8
REMARK    7  A    between atoms: C_8  and  C_9
REMARK    8  A    between atoms: C_9  and  C_10
REMARK    9  A    between atoms: C_10  and  C_11
REMARK   10  A    between atoms: C_11  and  C_12
REMARK   11  A    between atoms: C_12  and  O_14
REMARK   12  A    between atoms: C_15  and  C_16
REMARK   13  A    between atoms: C_16  and  C_17
REMARK   14  A    between atoms: C_17  and  C_18
REMARK   15  A    between atoms: C_18  and  O_19
REMARK   16  A    between atoms: C_18  and  C_20
REMARK   17  A    between atoms: C_20  and  O_21
REMARK   18  A    between atoms: O_21  and  C_22
REMARK                            x       y       z     vdW  Elec       q    Type
REMARK                         _______ _______ _______ _____ _____    ______ ____
ROOT
ATOM      1  N   UNL     1       5.880   5.751  18.175  0.00  0.00    +0.000 NA
ENDROOT
BRANCH   1   3
ATOM      2  C   UNL     1       8.219   7.149  18.618  0.00  0.00    +0.000 C 
ATOM      3  S   UNL     1       7.456   5.566  18.896  0.00  0.00    +0.000 S 
ATOM      4  O   UNL     1       8.213   4.615  18.108  0.00  0.00    +0.000 OA
ATOM      5  O   UNL     1       7.271   5.378  20.318  0.00  0.00    +0.000 OA
ENDBRANCH   1   3
BRANCH   1   6
ATOM      6  C   UNL     1       5.800   6.764  17.062  0.00  0.00    +0.000 C 
BRANCH   6   7
ATOM      7  C   UNL     1       4.900   6.378  15.900  0.00  0.00    +0.000 C 
BRANCH   7   8
ATOM      8  C   UNL     1       5.453   5.222  15.046  0.00  0.00    +0.000 C 
BRANCH   8   9
ATOM      9  C   UNL     1       5.157   3.835  15.648  0.00  0.00    +0.000 C 
BRANCH   9  10
ATOM     10  O   UNL     1       6.324   3.386  16.340  0.00  0.00    +0.000 OA
ATOM     11  H   UNL     1       6.162   3.462  17.295  0.00  0.00    +0.000 HD
ENDBRANCH   9  10
BRANCH   9  12
ATOM     12  C   UNL     1       3.920   3.869  16.564  0.00  0.00    +0.000 C 
BRANCH  12  13
ATOM     13  O   UNL     1       3.673   2.609  17.196  0.00  0.00    +0.000 OA
BRANCH  13  14
ATOM     14  C   UNL     1       3.005   2.696  18.397  0.00  0.00    +0.000 A 
ATOM     15  C   UNL     1       1.614   2.724  18.273  0.00  0.00    +0.000 A 
ATOM     16  C   UNL     1       0.797   2.828  19.402  0.00  0.00    +0.000 A 
ATOM     17  C   UNL     1       1.363   2.909  20.672  0.00  0.00    +0.000 A 
ATOM     18  C   UNL     1       2.749   2.877  20.814  0.00  0.00    +0.000 A 
ATOM     19  C   UNL     1       3.560   2.773  19.684  0.00  0.00    +0.000 A 
ATOM     20  F   UNL     1       4.884   2.753  19.887  0.00  0.00    +0.000 F 
ENDBRANCH  13  14
ENDBRANCH  12  13
ENDBRANCH   9  12
ENDBRANCH   8   9
ENDBRANCH   7   8
ENDBRANCH   6   7
ENDBRANCH   1   6
BRANCH   1  21
ATOM     21  C   UNL     1       4.849   6.027  19.247  0.00  0.00    +0.000 C 
BRANCH  21  22
ATOM     22  C   UNL     1       3.637   6.842  18.788  0.00  0.00    +0.000 C 
BRANCH  22  23
ATOM     23  C   UNL     1       2.299   6.236  19.209  0.00  0.00    +0.000 C 
BRANCH  23  24
ATOM     24  C   UNL     1       1.924   6.683  20.627  0.00  0.00    +0.000 C 
BRANCH  24  25
ATOM     25  C   UNL     1       1.459   8.137  20.640  0.00  0.00    +0.000 C 
BRANCH  25  26
ATOM     26  C   UNL     1       0.820   8.515  21.976  0.00  0.00    +0.000 C 
BRANCH  26  27
ATOM     27  C   UNL     1       0.689  10.014  22.123  0.00  0.00    +0.000 C 
ATOM     28  O   UNL     1       1.193  10.843  21.385  0.00  0.00    +0.000 OA
BRANCH  27  29
ATOM     29  O   UNL     1      -0.066  10.360  23.191  0.00  0.00    +0.000 OA
ATOM     30  H   UNL     1      -0.188  11.324  23.291  0.00  0.00    +0.000 HD
ENDBRANCH  27  29
ENDBRANCH  26  27
ENDBRANCH  25  26
ENDBRANCH  24  25
ENDBRANCH  23  24
ENDBRANCH  22  23
ENDBRANCH  21  22
ENDBRANCH   1  21
TORSDOF 17
ENDMDL
MODEL 8
REMARK VINA RESULT:      -6.4      3.815      8.297
REMARK  Name = 
REMARK  18 active torsions:
REMARK  status: ('A' for Active; 'I' for Inactive)
REMARK    1  A    between atoms: C_1  and  S_2
REMARK    2  A    between atoms: S_2  and  N_5
REMARK    3  A    between atoms: N_5  and  C_6
REMARK    4  A    between atoms: N_5  and  C_15
REMARK    5  A    between atoms: C_6  and  C_7
REMARK    6  A    between atoms: C_7  and  C_8
REMARK    7  A    between atoms: C_8  and  C_9
REMARK    8  A    between atoms: C_9  and  C_10
REMARK    9  A    between atoms: C_10  and  C_11
REMARK   10  A    between atoms: C_11  and  C_12
REMARK   11  A    between atoms: C_12  and  O_14
REMARK   12  A    between atoms: C_15  and  C_16
REMARK   13  A    between atoms: C_16  and  C_17
REMARK   14  A    between atoms: C_17  and  C_18
REMARK   15  A    between atoms: C_18  and  O_19
REMARK   16  A    between atoms: C_18  and  C_20
REMARK   17  A    between atoms: C_20  and  O_21
REMARK   18  A    between atoms: O_21  and  C_22
REMARK                            x       y       z     vdW  Elec       q    Type
REMARK                         _______ _______ _______ _____ _____    ______ ____
ROOT
ATOM      1  N   UNL     1       5.342   5.651  16.823  0.00  0.00    +0.000 NA
ENDROOT
BRANCH   1   3
ATOM      2  C   UNL     1       7.555   7.065  17.674  0.00  0.00    +0.000 C 
ATOM      3  S   UNL     1       7.076   5.518  16.937  0.00  0.00    +0.000 S 
ATOM      4  O   UNL     1       7.627   5.526  15.598  0.00  0.00    +0.000 OA
ATOM      5  O   UNL     1       7.376   4.446  17.861  0.00  0.00    +0.000 OA
ENDBRANCH   1   3
BRANCH   1   6
ATOM      6  C   UNL     1       4.666   6.267  18.020  0.00  0.00    +0.000 C 
BRANCH   6   7
ATOM      7  C   UNL     1       3.645   7.346  17.702  0.00  0.00    +0.000 C 
BRANCH   7   8
ATOM      8  C   UNL     1       2.201   6.962  18.076  0.00  0.00    +0.000 C 
BRANCH   8   9
ATOM      9  C   UNL     1       1.553   7.951  19.064  0.00  0.00    +0.000 C 
BRANCH   9  10
ATOM     10  O   UNL     1       2.158   7.769  20.346  0.00  0.00    +0.000 OA
ATOM     11  H   UNL     1       1.528   7.300  20.918  0.00  0.00    +0.000 HD
ENDBRANCH   9  10
BRANCH   9  12
ATOM     12  C   UNL     1       1.674   9.404  18.570  0.00  0.00    +0.000 C 
BRANCH  12  13
ATOM     13  O   UNL     1       1.665  10.350  19.644  0.00  0.00    +0.000 OA
BRANCH  13  14
ATOM     14  C   UNL     1       0.521  11.112  19.723  0.00  0.00    +0.000 A 
ATOM     15  C   UNL     1       0.474  12.163  18.804  0.00  0.00    +0.000 A 
ATOM     16  C   UNL     1      -0.616  13.037  18.772  0.00  0.00    +0.000 A 
ATOM     17  C   UNL     1      -1.675  12.871  19.663  0.00  0.00    +0.000 A 
ATOM     18  C   UNL     1      -1.646  11.823  20.581  0.00  0.00    +0.000 A 
ATOM     19  C   UNL     1      -0.555  10.954  20.609  0.00  0.00    +0.000 A 
ATOM     20  F   UNL     1      -0.586   9.971  21.520  0.00  0.00    +0.000 F 
ENDBRANCH  13  14
ENDBRANCH  12  13
ENDBRANCH   9  12
ENDBRANCH   8   9
ENDBRANCH   7   8
ENDBRANCH   6   7
ENDBRANCH   1   6
BRANCH   1  21
ATOM     21  C   UNL     1       4.741   4.305  16.483  0.00  0.00    +0.000 C 
BRANCH  21  22
ATOM     22  C   UNL     1       4.109   3.559  17.662  0.00  0.00    +0.000 C 
BRANCH  22  23
ATOM     23  C   UNL     1       2.610   3.314  17.497  0.00  0.00    +0.000 C 
BRANCH  23  24
ATOM     24  C   UNL     1       2.170   2.087  18.302  0.00  0.00    +0.000 C 
BRANCH  24  25
ATOM     25  C   UNL     1       0.996   2.423  19.218  0.00  0.00    +0.000 C 
BRANCH  25  26
ATOM     26  C   UNL     1       1.086   3.851  19.754  0.00  0.00    +0.000 C 
BRANCH  26  27
ATOM     27  C   UNL     1       1.816   3.902  21.077  0.00  0.00    +0.000 C 
ATOM     28  O   UNL     1       1.863   2.997  21.893  0.00  0.00    +0.000 OA
BRANCH  27  29
ATOM     29  O   UNL     1       2.433   5.089  21.277  0.00  0.00    +0.000 OA
ATOM     30  H   UNL     1       3.081   5.078  22.008  0.00  0.00    +0.000 HD
ENDBRANCH  27  29
ENDBRANCH  26  27
ENDBRANCH  25  26
ENDBRANCH  24  25
ENDBRANCH  23  24
ENDBRANCH  22  23
ENDBRANCH  21  22
ENDBRANCH   1  21
TORSDOF 17
ENDMDL
MODEL 9
REMARK VINA RESULT:      -6.4      4.063      8.515
REMARK  Name = 
REMARK  18 active torsions:
REMARK  status: ('A' for Active; 'I' for Inactive)
REMARK    1  A    between atoms: C_1  and  S_2
REMARK    2  A    between atoms: S_2  and  N_5
REMARK    3  A    between atoms: N_5  and  C_6
REMARK    4  A    between atoms: N_5  and  C_15
REMARK    5  A    between atoms: C_6  and  C_7
REMARK    6  A    between atoms: C_7  and  C_8
REMARK    7  A    between atoms: C_8  and  C_9
REMARK    8  A    between atoms: C_9  and  C_10
REMARK    9  A    between atoms: C_10  and  C_11
REMARK   10  A    between atoms: C_11  and  C_12
REMARK   11  A    between atoms: C_12  and  O_14
REMARK   12  A    between atoms: C_15  and  C_16
REMARK   13  A    between atoms: C_16  and  C_17
REMARK   14  A    between atoms: C_17  and  C_18
REMARK   15  A    between atoms: C_18  and  O_19
REMARK   16  A    between atoms: C_18  and  C_20
REMARK   17  A    between atoms: C_20  and  O_21
REMARK   18  A    between atoms: O_21  and  C_22
REMARK                            x       y       z     vdW  Elec       q    Type
REMARK                         _______ _______ _______ _____ _____    ______ ____
ROOT
ATOM      1  N   UNL     1       5.120   6.039  16.736  0.00  0.00    +0.000 NA
ENDROOT
BRANCH   1   3
ATOM      2  C   UNL     1       7.183   7.738  17.426  0.00  0.00    +0.000 C 
ATOM      3  S   UNL     1       6.844   6.047  16.991  0.00  0.00    +0.000 S 
ATOM      4  O   UNL     1       7.498   5.823  15.718  0.00  0.00    +0.000 OA
ATOM      5  O   UNL     1       7.125   5.204  18.132  0.00  0.00    +0.000 OA
ENDBRANCH   1   3
BRANCH   1   6
ATOM      6  C   UNL     1       4.304   6.633  17.854  0.00  0.00    +0.000 C 
BRANCH   6   7
ATOM      7  C   UNL     1       3.387   7.775  17.450  0.00  0.00    +0.000 C 
BRANCH   7   8
ATOM      8  C   UNL     1       2.219   8.007  18.427  0.00  0.00    +0.000 C 
BRANCH   8   9
ATOM      9  C   UNL     1       1.863   9.497  18.596  0.00  0.00    +0.000 C 
BRANCH   9  10
ATOM     10  O   UNL     1       2.061  10.152  17.341  0.00  0.00    +0.000 OA
ATOM     11  H   UNL     1       1.839   9.527  16.631  0.00  0.00    +0.000 HD
ENDBRANCH   9  10
BRANCH   9  12
ATOM     12  C   UNL     1       0.428   9.679  19.122  0.00  0.00    +0.000 C 
BRANCH  12  13
ATOM     13  O   UNL     1      -0.124  10.953  18.777  0.00  0.00    +0.000 OA
BRANCH  13  14
ATOM     14  C   UNL     1      -1.433  10.910  18.351  0.00  0.00    +0.000 A 
ATOM     15  C   UNL     1      -1.663  10.004  17.313  0.00  0.00    +0.000 A 
ATOM     16  C   UNL     1      -2.937   9.857  16.759  0.00  0.00    +0.000 A 
ATOM     17  C   UNL     1      -4.000  10.621  17.237  0.00  0.00    +0.000 A 
ATOM     18  C   UNL     1      -3.790  11.525  18.276  0.00  0.00    +0.000 A 
ATOM     19  C   UNL     1      -2.515  11.667  18.825  0.00  0.00    +0.000 A 
ATOM     20  F   UNL     1      -2.377  12.557  19.816  0.00  0.00    +0.000 F 
ENDBRANCH  13  14
ENDBRANCH  12  13
ENDBRANCH   9  12
ENDBRANCH   8   9
ENDBRANCH   7   8
ENDBRANCH   6   7
ENDBRANCH   1   6
BRANCH   1  21
ATOM     21  C   UNL     1       4.654   4.641  16.394  0.00  0.00    +0.000 C 
BRANCH  21  22
ATOM     22  C   UNL     1       4.848   3.603  17.503  0.00  0.00    +0.000 C 
BRANCH  22  23
ATOM     23  C   UNL     1       3.563   2.871  17.887  0.00  0.00    +0.000 C 
BRANCH  23  24
ATOM     24  C   UNL     1       2.332   3.704  17.513  0.00  0.00    +0.000 C 
BRANCH  24  25
ATOM     25  C   UNL     1       1.150   3.379  18.423  0.00  0.00    +0.000 C 
BRANCH  25  26
ATOM     26  C   UNL     1       1.566   2.492  19.596  0.00  0.00    +0.000 C 
BRANCH  26  27
ATOM     27  C   UNL     1       1.354   3.189  20.920  0.00  0.00    +0.000 C 
ATOM     28  O   UNL     1       1.444   2.663  22.017  0.00  0.00    +0.000 OA
BRANCH  27  29
ATOM     29  O   UNL     1       1.042   4.497  20.769  0.00  0.00    +0.000 OA
ATOM     30  H   UNL     1       0.929   4.769  19.838  0.00  0.00    +0.000 HD
ENDBRANCH  27  29
ENDBRANCH  26  27
ENDBRANCH  25  26
ENDBRANCH  24  25
ENDBRANCH  23  24
ENDBRANCH  22  23
ENDBRANCH  21  22
ENDBRANCH   1  21
TORSDOF 17
ENDMDL
