MODEL 1
REMARK VINA RESULT:      -8.5      0.000      0.000
REMARK  Name = 
REMARK  11 active torsions:
REMARK  status: ('A' for Active; 'I' for Inactive)
REMARK    1  A    between atoms: C_1  and  C_2
REMARK    2  A    between atoms: C_2  and  C_3
REMARK    3  A    between atoms: C_7  and  C_8
REMARK    4  A    between atoms: C_8  and  C_9
REMARK    5  A    between atoms: C_10  and  C_11
REMARK    6  A    between atoms: C_13  and  O_14
REMARK    7  A    between atoms: O_14  and  C_15
REMARK    8  A    between atoms: C_22  and  N_23
REMARK    9  A    between atoms: N_23  and  C_24
REMARK   10  A    between atoms: C_26  and  C_27
REMARK   11  A    between atoms: C_33  and  C_34
REMARK                            x       y       z     vdW  Elec       q    Type
REMARK                         _______ _______ _______ _____ _____    ______ ____
ROOT
ATOM      1  C   UNL     1       2.163   7.156  19.205  0.00  0.00    +0.000 A 
ATOM      2  C   UNL     1       1.869   7.434  20.530  0.00  0.00    +0.000 A 
ATOM      3  C   UNL     1       1.386   8.690  20.917  0.00  0.00    +0.000 A 
ATOM      4  C   UNL     1       1.337   9.735  19.984  0.00  0.00    +0.000 A 
ATOM      5  C   UNL     1       1.805   9.415  18.704  0.00  0.00    +0.000 A 
ATOM      6  N   UNL     1       2.120   8.157  18.311  0.00  0.00    +0.000 NA
ATOM      7  C   UNL     1       2.033  10.453  17.638  0.00  0.00    +0.000 C 
ATOM      8  C   UNL     1       2.214  11.837  18.236  0.00  0.00    +0.000 C 
ATOM      9  C   UNL     1       1.008  12.142  19.106  0.00  0.00    +0.000 C 
ATOM     10  C   UNL     1       0.878  11.148  20.282  0.00  0.00    +0.000 C 
ENDROOT
BRANCH   1  16
ATOM     11  C   UNL     1       1.943   4.611  19.183  0.00  0.00    +0.000 A 
ATOM     12  C   UNL     1       2.212   3.366  18.580  0.00  0.00    +0.000 A 
ATOM     13  C   UNL     1       3.120   3.257  17.543  0.00  0.00    +0.000 A 
ATOM     14  C   UNL     1       3.822   4.381  17.127  0.00  0.00    +0.000 A 
ATOM     15  C   UNL     1       3.610   5.645  17.716  0.00  0.00    +0.000 A 
ATOM     16  C   UNL     1       2.580   5.805  18.707  0.00  0.00    +0.000 A 
BRANCH  11  18
ATOM     17  C   UNL     1       1.236   3.237  21.152  0.00  0.00    +0.000 C 
ATOM     18  C   UNL     1       1.035   4.553  20.402  0.00  0.00    +0.000 C 
ENDBRANCH  11  18
BRANCH  15  19
ATOM     19  C   UNL     1       4.476   6.805  17.231  0.00  0.00    +0.000 C 
ATOM     20  C   UNL     1       5.216   6.638  15.906  0.00  0.00    +0.000 C 
ENDBRANCH  15  19
ENDBRANCH   1  16
BRANCH   3  21
ATOM     21  O   UNL     1       0.908   8.654  22.199  0.00  0.00    +0.000 OA
ATOM     22  C   UNL     1      -0.483   8.525  22.420  0.00  0.00    +0.000 C 
ENDBRANCH   3  21
BRANCH  10  23
ATOM     23  N   UNL     1      -0.521  11.129  20.699  0.00  0.00    +0.000 N 
ATOM     24  H   UNL     1      -0.686  10.733  21.618  0.00  0.00    +0.000 HD
BRANCH  23  25
ATOM     25  C   UNL     1      -1.613  11.219  19.855  0.00  0.00    +0.000 A 
ATOM     26  C   UNL     1      -1.678  10.518  18.639  0.00  0.00    +0.000 A 
ATOM     27  C   UNL     1      -2.673  10.757  17.678  0.00  0.00    +0.000 A 
ATOM     28  C   UNL     1      -3.691  11.663  17.973  0.00  0.00    +0.000 A 
ATOM     29  C   UNL     1      -3.673  12.356  19.177  0.00  0.00    +0.000 A 
ATOM     30  C   UNL     1      -2.624  12.184  20.100  0.00  0.00    +0.000 A 
ATOM     31  C   UNL     1      -2.613  13.065  21.322  0.00  0.00    +0.000 C 
BRANCH  27  32
ATOM     32  C   UNL     1      -2.590  10.118  16.316  0.00  0.00    +0.000 C 
ATOM     33  F   UNL     1      -3.656   9.317  16.025  0.00  0.00    +0.000 F 
ATOM     34  F   UNL     1      -2.519  11.026  15.306  0.00  0.00    +0.000 F 
ATOM     35  F   UNL     1      -1.492   9.321  16.185  0.00  0.00    +0.000 F 
ENDBRANCH  27  32
ENDBRANCH  23  25
ENDBRANCH  10  23
TORSDOF 7
ENDMDL
MODEL 2
REMARK VINA RESULT:      -8.0      0.535      2.412
REMARK  Name = 
REMARK  11 active torsions:
REMARK  status: ('A' for Active; 'I' for Inactive)
REMARK    1  A    between atoms: C_1  and  C_2
REMARK    2  A    between atoms: C_2  and  C_3
REMARK    3  A    between atoms: C_7  and  C_8
REMARK    4  A    between atoms: C_8  and  C_9
REMARK    5  A    between atoms: C_10  and  C_11
REMARK    6  A    between atoms: C_13  and  O_14
REMARK    7  A    between atoms: O_14  and  C_15
REMARK    8  A    between atoms: C_22  and  N_23
REMARK    9  A    between atoms: N_23  and  C_24
REMARK   10  A    between atoms: C_26  and  C_27
REMARK   11  A    between atoms: C_33  and  C_34
REMARK                            x       y       z     vdW  Elec       q    Type
REMARK                         _______ _______ _______ _____ _____    ______ ____
ROOT
ATOM      1  C   UNL     1       2.330   7.049  19.141  0.00  0.00    +0.000 A 
ATOM      2  C   UNL     1       1.918   7.273  20.445  0.00  0.00    +0.000 A 
ATOM      3  C   UNL     1       1.308   8.477  20.816  0.00  0.00    +0.000 A 
ATOM      4  C   UNL     1       1.242   9.535  19.899  0.00  0.00    +0.000 A 
ATOM      5  C   UNL     1       1.826   9.283  18.652  0.00  0.00    +0.000 A 
ATOM      6  N   UNL     1       2.270   8.063  18.262  0.00  0.00    +0.000 NA
ATOM      7  C   UNL     1       2.045  10.359  17.623  0.00  0.00    +0.000 C 
ATOM      8  C   UNL     1       2.069  11.740  18.255  0.00  0.00    +0.000 C 
ATOM      9  C   UNL     1       0.782  11.928  19.038  0.00  0.00    +0.000 C 
ATOM     10  C   UNL     1       0.649  10.900  20.186  0.00  0.00    +0.000 C 
ENDROOT
BRANCH   1  16
ATOM     11  C   UNL     1       3.978   5.712  17.719  0.00  0.00    +0.000 A 
ATOM     12  C   UNL     1       4.617   4.496  17.407  0.00  0.00    +0.000 A 
ATOM     13  C   UNL     1       4.189   3.303  17.961  0.00  0.00    +0.000 A 
ATOM     14  C   UNL     1       3.077   3.295  18.792  0.00  0.00    +0.000 A 
ATOM     15  C   UNL     1       2.386   4.482  19.115  0.00  0.00    +0.000 A 
ATOM     16  C   UNL     1       2.890   5.747  18.653  0.00  0.00    +0.000 A 
BRANCH  11  18
ATOM     17  C   UNL     1       5.256   6.461  15.700  0.00  0.00    +0.000 C 
ATOM     18  C   UNL     1       4.464   6.916  16.926  0.00  0.00    +0.000 C 
ENDBRANCH  11  18
BRANCH  15  19
ATOM     19  C   UNL     1       1.138   4.359  19.986  0.00  0.00    +0.000 C 
ATOM     20  C   UNL     1       1.086   3.219  21.001  0.00  0.00    +0.000 C 
ENDBRANCH  15  19
ENDBRANCH   1  16
BRANCH   3  21
ATOM     21  O   UNL     1       0.743   8.374  22.057  0.00  0.00    +0.000 OA
ATOM     22  C   UNL     1       1.158   9.250  23.087  0.00  0.00    +0.000 C 
ENDBRANCH   3  21
BRANCH  10  23
ATOM     23  N   UNL     1      -0.770  10.760  20.497  0.00  0.00    +0.000 N 
ATOM     24  H   UNL     1      -0.973  10.209  21.324  0.00  0.00    +0.000 HD
BRANCH  23  25
ATOM     25  C   UNL     1      -1.812  10.951  19.607  0.00  0.00    +0.000 A 
ATOM     26  C   UNL     1      -1.865  10.295  18.366  0.00  0.00    +0.000 A 
ATOM     27  C   UNL     1      -2.793  10.632  17.368  0.00  0.00    +0.000 A 
ATOM     28  C   UNL     1      -3.762  11.596  17.647  0.00  0.00    +0.000 A 
ATOM     29  C   UNL     1      -3.755  12.247  18.875  0.00  0.00    +0.000 A 
ATOM     30  C   UNL     1      -2.766  11.975  19.839  0.00  0.00    +0.000 A 
ATOM     31  C   UNL     1      -2.755  12.815  21.090  0.00  0.00    +0.000 C 
BRANCH  27  32
ATOM     32  C   UNL     1      -2.688  10.031  15.991  0.00  0.00    +0.000 C 
ATOM     33  F   UNL     1      -3.748   9.237  15.660  0.00  0.00    +0.000 F 
ATOM     34  F   UNL     1      -2.602  10.968  15.008  0.00  0.00    +0.000 F 
ATOM     35  F   UNL     1      -1.587   9.240  15.855  0.00  0.00    +0.000 F 
ENDBRANCH  27  32
ENDBRANCH  23  25
ENDBRANCH  10  23
TORSDOF 7
ENDMDL
MODEL 3
REMARK VINA RESULT:      -8.0      2.894      3.514
REMARK  Name = 
REMARK  11 active torsions:
REMARK  status: ('A' for Active; 'I' for Inactive)
REMARK    1  A    between atoms: C_1  and  C_2
REMARK    2  A    between atoms: C_2  and  C_3
REMARK    3  A    between atoms: C_7  and  C_8
REMARK    4  A    between atoms: C_8  and  C_9
REMARK    5  A    between atoms: C_10  and  C_11
REMARK    6  A    between atoms: C_13  and  O_14
REMARK    7  A    between atoms: O_14  and  C_15
REMARK    8  A    between atoms: C_22  and  N_23
REMARK    9  A    between atoms: N_23  and  C_24
REMARK   10  A    between atoms: C_26  and  C_27
REMARK   11  A    between atoms: C_33  and  C_34
REMARK                            x       y       z     vdW  Elec       q    Type
REMARK                         _______ _______ _______ _____ _____    ______ ____
ROOT
ATOM      1  C   UNL     1       2.154   6.855  19.232  0.00  0.00    +0.000 A 
ATOM      2  C   UNL     1       1.683   7.138  20.503  0.00  0.00    +0.000 A 
ATOM      3  C   UNL     1       1.108   8.379  20.803  0.00  0.00    +0.000 A 
ATOM      4  C   UNL     1       1.140   9.409  19.853  0.00  0.00    +0.000 A 
ATOM      5  C   UNL     1       1.780   9.091  18.649  0.00  0.00    +0.000 A 
ATOM      6  N   UNL     1       2.189   7.842  18.321  0.00  0.00    +0.000 NA
ATOM      7  C   UNL     1       2.103  10.123  17.603  0.00  0.00    +0.000 C 
ATOM      8  C   UNL     1       2.155  11.521  18.194  0.00  0.00    +0.000 C 
ATOM      9  C   UNL     1       0.837  11.790  18.897  0.00  0.00    +0.000 C 
ATOM     10  C   UNL     1       0.595  10.806  20.065  0.00  0.00    +0.000 C 
ENDROOT
BRANCH   1  16
ATOM     11  C   UNL     1       2.055   4.302  19.255  0.00  0.00    +0.000 A 
ATOM     12  C   UNL     1       2.440   3.058  18.716  0.00  0.00    +0.000 A 
ATOM     13  C   UNL     1       3.454   2.971  17.780  0.00  0.00    +0.000 A 
ATOM     14  C   UNL     1       4.143   4.117  17.408  0.00  0.00    +0.000 A 
ATOM     15  C   UNL     1       3.814   5.383  17.938  0.00  0.00    +0.000 A 
ATOM     16  C   UNL     1       2.681   5.514  18.815  0.00  0.00    +0.000 A 
BRANCH  11  18
ATOM     17  C   UNL     1       1.261   2.977  21.226  0.00  0.00    +0.000 C 
ATOM     18  C   UNL     1       1.030   4.227  20.377  0.00  0.00    +0.000 C 
ENDBRANCH  11  18
BRANCH  15  19
ATOM     19  C   UNL     1       4.671   6.572  17.513  0.00  0.00    +0.000 C 
ATOM     20  C   UNL     1       5.165   6.616  16.069  0.00  0.00    +0.000 C 
ENDBRANCH  15  19
ENDBRANCH   1  16
BRANCH   3  21
ATOM     21  O   UNL     1       0.472   8.340  22.014  0.00  0.00    +0.000 OA
ATOM     22  C   UNL     1       0.815   9.282  23.012  0.00  0.00    +0.000 C 
ENDBRANCH   3  21
BRANCH  10  23
ATOM     23  N   UNL     1      -0.844  10.739  20.301  0.00  0.00    +0.000 N 
ATOM     24  H   UNL     1      -1.302   9.922  19.911  0.00  0.00    +0.000 HD
BRANCH  23  25
ATOM     25  C   UNL     1      -1.658  11.809  20.628  0.00  0.00    +0.000 A 
ATOM     26  C   UNL     1      -1.622  12.415  21.895  0.00  0.00    +0.000 A 
ATOM     27  C   UNL     1      -2.578  13.353  22.315  0.00  0.00    +0.000 A 
ATOM     28  C   UNL     1      -3.554  13.771  21.410  0.00  0.00    +0.000 A 
ATOM     29  C   UNL     1      -3.603  13.212  20.139  0.00  0.00    +0.000 A 
ATOM     30  C   UNL     1      -2.702  12.203  19.752  0.00  0.00    +0.000 A 
ATOM     31  C   UNL     1      -2.904  11.560  18.404  0.00  0.00    +0.000 C 
BRANCH  27  32
ATOM     32  C   UNL     1      -2.606  13.831  23.743  0.00  0.00    +0.000 C 
ATOM     33  F   UNL     1      -3.283  15.003  23.913  0.00  0.00    +0.000 F 
ATOM     34  F   UNL     1      -3.186  12.939  24.590  0.00  0.00    +0.000 F 
ATOM     35  F   UNL     1      -1.356  14.061  24.236  0.00  0.00    +0.000 F 
ENDBRANCH  27  32
ENDBRANCH  23  25
ENDBRANCH  10  23
TORSDOF 7
ENDMDL
MODEL 4
REMARK VINA RESULT:      -8.0      0.833      1.013
REMARK  Name = 
REMARK  11 active torsions:
REMARK  status: ('A' for Active; 'I' for Inactive)
REMARK    1  A    between atoms: C_1  and  C_2
REMARK    2  A    between atoms: C_2  and  C_3
REMARK    3  A    between atoms: C_7  and  C_8
REMARK    4  A    between atoms: C_8  and  C_9
REMARK    5  A    between atoms: C_10  and  C_11
REMARK    6  A    between atoms: C_13  and  O_14
REMARK    7  A    between atoms: O_14  and  C_15
REMARK    8  A    between atoms: C_22  and  N_23
REMARK    9  A    between atoms: N_23  and  C_24
REMARK   10  A    between atoms: C_26  and  C_27
REMARK   11  A    between atoms: C_33  and  C_34
REMARK                            x       y       z     vdW  Elec       q    Type
REMARK                         _______ _______ _______ _____ _____    ______ ____
ROOT
ATOM      1  C   UNL     1       2.535   7.030  18.800  0.00  0.00    +0.000 A 
ATOM      2  C   UNL     1       2.172   7.175  20.129  0.00  0.00    +0.000 A 
ATOM      3  C   UNL     1       1.520   8.329  20.581  0.00  0.00    +0.000 A 
ATOM      4  C   UNL     1       1.364   9.422  19.718  0.00  0.00    +0.000 A 
ATOM      5  C   UNL     1       1.903   9.255  18.437  0.00  0.00    +0.000 A 
ATOM      6  N   UNL     1       2.388   8.078  17.973  0.00  0.00    +0.000 NA
ATOM      7  C   UNL     1       2.025  10.385  17.451  0.00  0.00    +0.000 C 
ATOM      8  C   UNL     1       2.010  11.736  18.145  0.00  0.00    +0.000 C 
ATOM      9  C   UNL     1       0.751  11.824  18.989  0.00  0.00    +0.000 C 
ATOM     10  C   UNL     1       0.718  10.741  20.092  0.00  0.00    +0.000 C 
ENDROOT
BRANCH   1  16
ATOM     11  C   UNL     1       2.467   4.517  18.344  0.00  0.00    +0.000 A 
ATOM     12  C   UNL     1       2.944   3.387  17.651  0.00  0.00    +0.000 A 
ATOM     13  C   UNL     1       4.087   3.457  16.875  0.00  0.00    +0.000 A 
ATOM     14  C   UNL     1       4.808   4.642  16.824  0.00  0.00    +0.000 A 
ATOM     15  C   UNL     1       4.388   5.794  17.521  0.00  0.00    +0.000 A 
ATOM     16  C   UNL     1       3.136   5.780  18.229  0.00  0.00    +0.000 A 
BRANCH  11  18
ATOM     17  C   UNL     1       0.818   2.806  19.133  0.00  0.00    +0.000 C 
ATOM     18  C   UNL     1       1.288   4.254  19.269  0.00  0.00    +0.000 C 
ENDBRANCH  11  18
BRANCH  15  19
ATOM     19  C   UNL     1       5.283   7.029  17.450  0.00  0.00    +0.000 C 
ATOM     20  C   UNL     1       6.786   6.813  17.297  0.00  0.00    +0.000 C 
ENDBRANCH  15  19
ENDBRANCH   1  16
BRANCH   3  21
ATOM     21  O   UNL     1       1.016   8.143  21.839  0.00  0.00    +0.000 OA
ATOM     22  C   UNL     1       1.334   9.068  22.861  0.00  0.00    +0.000 C 
ENDBRANCH   3  21
BRANCH  10  23
ATOM     23  N   UNL     1      -0.677  10.517  20.456  0.00  0.00    +0.000 N 
ATOM     24  H   UNL     1      -0.826   9.785  21.142  0.00  0.00    +0.000 HD
BRANCH  23  25
ATOM     25  C   UNL     1      -1.776  10.899  19.707  0.00  0.00    +0.000 A 
ATOM     26  C   UNL     1      -2.020  10.386  18.422  0.00  0.00    +0.000 A 
ATOM     27  C   UNL     1      -3.001  10.914  17.568  0.00  0.00    +0.000 A 
ATOM     28  C   UNL     1      -3.830  11.931  18.041  0.00  0.00    +0.000 A 
ATOM     29  C   UNL     1      -3.634  12.445  19.317  0.00  0.00    +0.000 A 
ATOM     30  C   UNL     1      -2.589  11.979  20.137  0.00  0.00    +0.000 A 
ATOM     31  C   UNL     1      -2.365  12.677  21.454  0.00  0.00    +0.000 C 
BRANCH  27  32
ATOM     32  C   UNL     1      -3.097  10.455  16.136  0.00  0.00    +0.000 C 
ATOM     33  F   UNL     1      -2.675   9.172  15.945  0.00  0.00    +0.000 F 
ATOM     34  F   UNL     1      -4.364  10.509  15.644  0.00  0.00    +0.000 F 
ATOM     35  F   UNL     1      -2.335  11.215  15.298  0.00  0.00    +0.000 F 
ENDBRANCH  27  32
ENDBRANCH  23  25
ENDBRANCH  10  23
TORSDOF 7
ENDMDL
MODEL 5
REMARK VINA RESULT:      -7.8      2.878      4.187
REMARK  Name = 
REMARK  11 active torsions:
REMARK  status: ('A' for Active; 'I' for Inactive)
REMARK    1  A    between atoms: C_1  and  C_2
REMARK    2  A    between atoms: C_2  and  C_3
REMARK    3  A    between atoms: C_7  and  C_8
REMARK    4  A    between atoms: C_8  and  C_9
REMARK    5  A    between atoms: C_10  and  C_11
REMARK    6  A    between atoms: C_13  and  O_14
REMARK    7  A    between atoms: O_14  and  C_15
REMARK    8  A    between atoms: C_22  and  N_23
REMARK    9  A    between atoms: N_23  and  C_24
REMARK   10  A    between atoms: C_26  and  C_27
REMARK   11  A    between atoms: C_33  and  C_34
REMARK                            x       y       z     vdW  Elec       q    Type
REMARK                         _______ _______ _______ _____ _____    ______ ____
ROOT
ATOM      1  C   UNL     1       2.336   7.167  19.372  0.00  0.00    +0.000 A 
ATOM      2  C   UNL     1       1.704   7.405  20.582  0.00  0.00    +0.000 A 
ATOM      3  C   UNL     1       0.996   8.592  20.809  0.00  0.00    +0.000 A 
ATOM      4  C   UNL     1       1.046   9.624  19.863  0.00  0.00    +0.000 A 
ATOM      5  C   UNL     1       1.839   9.366  18.739  0.00  0.00    +0.000 A 
ATOM      6  N   UNL     1       2.387   8.157  18.465  0.00  0.00    +0.000 NA
ATOM      7  C   UNL     1       2.188  10.425  17.728  0.00  0.00    +0.000 C 
ATOM      8  C   UNL     1       2.055  11.821  18.313  0.00  0.00    +0.000 C 
ATOM      9  C   UNL     1       0.649  11.974  18.864  0.00  0.00    +0.000 C 
ATOM     10  C   UNL     1       0.363  10.969  20.004  0.00  0.00    +0.000 C 
ENDROOT
BRANCH   1  16
ATOM     11  C   UNL     1       4.146   5.853  18.139  0.00  0.00    +0.000 A 
ATOM     12  C   UNL     1       4.891   4.670  17.961  0.00  0.00    +0.000 A 
ATOM     13  C   UNL     1       4.534   3.499  18.604  0.00  0.00    +0.000 A 
ATOM     14  C   UNL     1       3.390   3.471  19.390  0.00  0.00    +0.000 A 
ATOM     15  C   UNL     1       2.594   4.621  19.579  0.00  0.00    +0.000 A 
ATOM     16  C   UNL     1       3.018   5.878  19.024  0.00  0.00    +0.000 A 
BRANCH  11  18
ATOM     17  C   UNL     1       5.115   6.508  15.925  0.00  0.00    +0.000 C 
ATOM     18  C   UNL     1       4.570   7.019  17.259  0.00  0.00    +0.000 C 
ENDBRANCH  11  18
BRANCH  15  19
ATOM     19  C   UNL     1       1.323   4.472  20.411  0.00  0.00    +0.000 C 
ATOM     20  C   UNL     1       1.180   3.224  21.279  0.00  0.00    +0.000 C 
ENDBRANCH  15  19
ENDBRANCH   1  16
BRANCH   3  21
ATOM     21  O   UNL     1       0.235   8.495  21.942  0.00  0.00    +0.000 OA
ATOM     22  C   UNL     1       0.432   9.419  22.995  0.00  0.00    +0.000 C 
ENDBRANCH   3  21
BRANCH  10  23
ATOM     23  N   UNL     1      -1.082  10.778  20.079  0.00  0.00    +0.000 N 
ATOM     24  H   UNL     1      -1.438  10.003  19.532  0.00  0.00    +0.000 HD
BRANCH  23  25
ATOM     25  C   UNL     1      -2.001  11.735  20.472  0.00  0.00    +0.000 A 
ATOM     26  C   UNL     1      -2.055  12.224  21.788  0.00  0.00    +0.000 A 
ATOM     27  C   UNL     1      -3.106  13.029  22.256  0.00  0.00    +0.000 A 
ATOM     28  C   UNL     1      -4.093  13.436  21.358  0.00  0.00    +0.000 A 
ATOM     29  C   UNL     1      -4.057  12.993  20.042  0.00  0.00    +0.000 A 
ATOM     30  C   UNL     1      -3.054  12.110  19.599  0.00  0.00    +0.000 A 
ATOM     31  C   UNL     1      -3.160  11.577  18.193  0.00  0.00    +0.000 C 
BRANCH  27  32
ATOM     32  C   UNL     1      -3.216  13.370  23.719  0.00  0.00    +0.000 C 
ATOM     33  F   UNL     1      -2.059  13.856  24.254  0.00  0.00    +0.000 F 
ATOM     34  F   UNL     1      -4.169  14.306  23.976  0.00  0.00    +0.000 F 
ATOM     35  F   UNL     1      -3.539  12.285  24.479  0.00  0.00    +0.000 F 
ENDBRANCH  27  32
ENDBRANCH  23  25
ENDBRANCH  10  23
TORSDOF 7
ENDMDL
MODEL 6
REMARK VINA RESULT:      -7.8      3.687      8.853
REMARK  Name = 
REMARK  11 active torsions:
REMARK  status: ('A' for Active; 'I' for Inactive)
REMARK    1  A    between atoms: C_1  and  C_2
REMARK    2  A    between atoms: C_2  and  C_3
REMARK    3  A    between atoms: C_7  and  C_8
REMARK    4  A    between atoms: C_8  and  C_9
REMARK    5  A    between atoms: C_10  and  C_11
REMARK    6  A    between atoms: C_13  and  O_14
REMARK    7  A    between atoms: O_14  and  C_15
REMARK    8  A    between atoms: C_22  and  N_23
REMARK    9  A    between atoms: N_23  and  C_24
REMARK   10  A    between atoms: C_26  and  C_27
REMARK   11  A    between atoms: C_33  and  C_34
REMARK                            x       y       z     vdW  Elec       q    Type
REMARK                         _______ _______ _______ _____ _____    ______ ____
ROOT
ATOM      1  C   UNL     1      -4.133  12.793  20.372  0.00  0.00    +0.000 A 
ATOM      2  C   UNL     1      -4.217  12.111  19.169  0.00  0.00    +0.000 A 
ATOM      3  C   UNL     1      -3.068  11.791  18.435  0.00  0.00    +0.000 A 
ATOM      4  C   UNL     1      -1.823  12.293  18.838  0.00  0.00    +0.000 A 
ATOM      5  C   UNL     1      -1.847  13.108  19.975  0.00  0.00    +0.000 A 
ATOM      6  N   UNL     1      -2.940  13.277  20.758  0.00  0.00    +0.000 NA
ATOM      7  C   UNL     1      -0.655  13.908  20.429  0.00  0.00    +0.000 C 
ATOM      8  C   UNL     1       0.324  14.145  19.292  0.00  0.00    +0.000 C 
ATOM      9  C   UNL     1       0.707  12.799  18.705  0.00  0.00    +0.000 C 
ATOM     10  C   UNL     1      -0.514  12.058  18.112  0.00  0.00    +0.000 C 
ENDROOT
BRANCH   1  16
ATOM     11  C   UNL     1      -6.556  13.526  20.715  0.00  0.00    +0.000 A 
ATOM     12  C   UNL     1      -7.704  13.610  21.527  0.00  0.00    +0.000 A 
ATOM     13  C   UNL     1      -7.650  13.297  22.873  0.00  0.00    +0.000 A 
ATOM     14  C   UNL     1      -6.435  12.948  23.446  0.00  0.00    +0.000 A 
ATOM     15  C   UNL     1      -5.251  12.875  22.683  0.00  0.00    +0.000 A 
ATOM     16  C   UNL     1      -5.309  13.073  21.259  0.00  0.00    +0.000 A 
BRANCH  11  18
ATOM     17  C   UNL     1      -7.772  13.200  18.551  0.00  0.00    +0.000 C 
ATOM     18  C   UNL     1      -6.733  14.040  19.295  0.00  0.00    +0.000 C 
ENDBRANCH  11  18
BRANCH  15  19
ATOM     19  C   UNL     1      -3.954  12.544  23.418  0.00  0.00    +0.000 C 
ATOM     20  C   UNL     1      -3.360  13.611  24.333  0.00  0.00    +0.000 C 
ENDBRANCH  15  19
ENDBRANCH   1  16
BRANCH   3  21
ATOM     21  O   UNL     1      -3.358  10.893  17.445  0.00  0.00    +0.000 OA
ATOM     22  C   UNL     1      -4.259  11.256  16.417  0.00  0.00    +0.000 C 
ENDBRANCH   3  21
BRANCH  10  23
ATOM     23  N   UNL     1      -0.209  10.631  18.103  0.00  0.00    +0.000 N 
ATOM     24  H   UNL     1      -0.594  10.118  17.317  0.00  0.00    +0.000 HD
BRANCH  23  25
ATOM     25  C   UNL     1       0.182   9.884  19.200  0.00  0.00    +0.000 A 
ATOM     26  C   UNL     1      -0.362  10.092  20.479  0.00  0.00    +0.000 A 
ATOM     27  C   UNL     1       0.168   9.498  21.635  0.00  0.00    +0.000 A 
ATOM     28  C   UNL     1       1.222   8.594  21.505  0.00  0.00    +0.000 A 
ATOM     29  C   UNL     1       1.769   8.345  20.252  0.00  0.00    +0.000 A 
ATOM     30  C   UNL     1       1.298   9.013  19.106  0.00  0.00    +0.000 A 
ATOM     31  C   UNL     1       2.028   8.781  17.809  0.00  0.00    +0.000 C 
BRANCH  27  32
ATOM     32  C   UNL     1      -0.331   9.899  22.999  0.00  0.00    +0.000 C 
ATOM     33  F   UNL     1      -1.534   9.343  23.324  0.00  0.00    +0.000 F 
ATOM     34  F   UNL     1       0.523   9.554  23.999  0.00  0.00    +0.000 F 
ATOM     35  F   UNL     1      -0.514  11.246  23.107  0.00  0.00    +0.000 F 
ENDBRANCH  27  32
ENDBRANCH  23  25
ENDBRANCH  10  23
TORSDOF 7
ENDMDL
MODEL 7
REMARK VINA RESULT:      -7.8      2.848      3.476
REMARK  Name = 
REMARK  11 active torsions:
REMARK  status: ('A' for Active; 'I' for Inactive)
REMARK    1  A    between atoms: C_1  and  C_2
REMARK    2  A    between atoms: C_2  and  C_3
REMARK    3  A    between atoms: C_7  and  C_8
REMARK    4  A    between atoms: C_8  and  C_9
REMARK    5  A    between atoms: C_10  and  C_11
REMARK    6  A    between atoms: C_13  and  O_14
REMARK    7  A    between atoms: O_14  and  C_15
REMARK    8  A    between atoms: C_22  and  N_23
REMARK    9  A    between atoms: N_23  and  C_24
REMARK   10  A    between atoms: C_26  and  C_27
REMARK   11  A    between atoms: C_33  and  C_34
REMARK                            x       y       z     vdW  Elec       q    Type
REMARK                         _______ _______ _______ _____ _____    ______ ____
ROOT
ATOM      1  C   UNL     1       2.682   7.214  18.539  0.00  0.00    +0.000 A 
ATOM      2  C   UNL     1       2.138   7.262  19.813  0.00  0.00    +0.000 A 
ATOM      3  C   UNL     1       1.438   8.389  20.261  0.00  0.00    +0.000 A 
ATOM      4  C   UNL     1       1.408   9.547  19.474  0.00  0.00    +0.000 A 
ATOM      5  C   UNL     1       2.119   9.471  18.270  0.00  0.00    +0.000 A 
ATOM      6  N   UNL     1       2.657   8.326  17.785  0.00  0.00    +0.000 NA
ATOM      7  C   UNL     1       2.382  10.673  17.403  0.00  0.00    +0.000 C 
ATOM      8  C   UNL     1       2.279  11.966  18.193  0.00  0.00    +0.000 C 
ATOM      9  C   UNL     1       0.916  12.009  18.860  0.00  0.00    +0.000 C 
ATOM     10  C   UNL     1       0.725  10.844  19.859  0.00  0.00    +0.000 C 
ENDROOT
BRANCH   1  16
ATOM     11  C   UNL     1       2.661   4.747  17.877  0.00  0.00    +0.000 A 
ATOM     12  C   UNL     1       3.224   3.667  17.168  0.00  0.00    +0.000 A 
ATOM     13  C   UNL     1       4.465   3.777  16.568  0.00  0.00    +0.000 A 
ATOM     14  C   UNL     1       5.193   4.950  16.714  0.00  0.00    +0.000 A 
ATOM     15  C   UNL     1       4.687   6.051  17.436  0.00  0.00    +0.000 A 
ATOM     16  C   UNL     1       3.348   6.004  17.959  0.00  0.00    +0.000 A 
BRANCH  11  18
ATOM     17  C   UNL     1       1.176   2.922  18.731  0.00  0.00    +0.000 C 
ATOM     18  C   UNL     1       1.363   4.433  18.604  0.00  0.00    +0.000 C 
ENDBRANCH  11  18
BRANCH  15  19
ATOM     19  C   UNL     1       5.591   7.271  17.591  0.00  0.00    +0.000 C 
ATOM     20  C   UNL     1       7.093   7.077  17.395  0.00  0.00    +0.000 C 
ENDBRANCH  15  19
ENDBRANCH   1  16
BRANCH   3  21
ATOM     21  O   UNL     1       0.764   8.113  21.419  0.00  0.00    +0.000 OA
ATOM     22  C   UNL     1       0.970   8.929  22.556  0.00  0.00    +0.000 C 
ENDBRANCH   3  21
BRANCH  10  23
ATOM     23  N   UNL     1      -0.709  10.615  20.009  0.00  0.00    +0.000 N 
ATOM     24  H   UNL     1      -1.058   9.783  19.546  0.00  0.00    +0.000 HD
BRANCH  23  25
ATOM     25  C   UNL     1      -1.646  11.574  20.353  0.00  0.00    +0.000 A 
ATOM     26  C   UNL     1      -1.763  12.068  21.663  0.00  0.00    +0.000 A 
ATOM     27  C   UNL     1      -2.835  12.875  22.076  0.00  0.00    +0.000 A 
ATOM     28  C   UNL     1      -3.777  13.279  21.130  0.00  0.00    +0.000 A 
ATOM     29  C   UNL     1      -3.678  12.830  19.819  0.00  0.00    +0.000 A 
ATOM     30  C   UNL     1      -2.656  11.945  19.428  0.00  0.00    +0.000 A 
ATOM     31  C   UNL     1      -2.694  11.406  18.022  0.00  0.00    +0.000 C 
BRANCH  27  32
ATOM     32  C   UNL     1      -3.015  13.223  23.530  0.00  0.00    +0.000 C 
ATOM     33  F   UNL     1      -1.876  13.682  24.126  0.00  0.00    +0.000 F 
ATOM     34  F   UNL     1      -3.957  14.182  23.735  0.00  0.00    +0.000 F 
ATOM     35  F   UNL     1      -3.404  12.148  24.274  0.00  0.00    +0.000 F 
ENDBRANCH  27  32
ENDBRANCH  23  25
ENDBRANCH  10  23
TORSDOF 7
ENDMDL
MODEL 8
REMARK VINA RESULT:      -7.6      3.769      8.865
REMARK  Name = 
REMARK  11 active torsions:
REMARK  status: ('A' for Active; 'I' for Inactive)
REMARK    1  A    between atoms: C_1  and  C_2
REMARK    2  A    between atoms: C_2  and  C_3
REMARK    3  A    between atoms: C_7  and  C_8
REMARK    4  A    between atoms: C_8  and  C_9
REMARK    5  A    between atoms: C_10  and  C_11
REMARK    6  A    between atoms: C_13  and  O_14
REMARK    7  A    between atoms: O_14  and  C_15
REMARK    8  A    between atoms: C_22  and  N_23
REMARK    9  A    between atoms: N_23  and  C_24
REMARK   10  A    between atoms: C_26  and  C_27
REMARK   11  A    between atoms: C_33  and  C_34
REMARK                            x       y       z     vdW  Elec       q    Type
REMARK                         _______ _______ _______ _____ _____    ______ ____
ROOT
ATOM      1  C   UNL     1      -4.399  12.599  20.593  0.00  0.00    +0.000 A 
ATOM      2  C   UNL     1      -4.497  11.905  19.398  0.00  0.00    +0.000 A 
ATOM      3  C   UNL     1      -3.369  11.665  18.604  0.00  0.00    +0.000 A 
ATOM      4  C   UNL     1      -2.145  12.260  18.937  0.00  0.00    +0.000 A 
ATOM      5  C   UNL     1      -2.168  13.079  20.072  0.00  0.00    +0.000 A 
ATOM      6  N   UNL     1      -3.227  13.172  20.912  0.00  0.00    +0.000 NA
ATOM      7  C   UNL     1      -1.015  13.967  20.458  0.00  0.00    +0.000 C 
ATOM      8  C   UNL     1      -0.119  14.268  19.270  0.00  0.00    +0.000 C 
ATOM      9  C   UNL     1       0.331  12.950  18.666  0.00  0.00    +0.000 C 
ATOM     10  C   UNL     1      -0.862  12.117  18.142  0.00  0.00    +0.000 C 
ENDROOT
BRANCH   1  16
ATOM     11  C   UNL     1      -5.322  12.926  22.952  0.00  0.00    +0.000 A 
ATOM     12  C   UNL     1      -6.376  13.293  23.813  0.00  0.00    +0.000 A 
ATOM     13  C   UNL     1      -7.654  13.501  23.327  0.00  0.00    +0.000 A 
ATOM     14  C   UNL     1      -7.917  13.289  21.980  0.00  0.00    +0.000 A 
ATOM     15  C   UNL     1      -6.903  12.895  21.081  0.00  0.00    +0.000 A 
ATOM     16  C   UNL     1      -5.543  12.797  21.541  0.00  0.00    +0.000 A 
BRANCH  11  18
ATOM     17  C   UNL     1      -3.536  13.776  24.487  0.00  0.00    +0.000 C 
ATOM     18  C   UNL     1      -4.011  12.590  23.647  0.00  0.00    +0.000 C 
ENDBRANCH  11  18
BRANCH  15  19
ATOM     19  C   UNL     1      -7.306  12.627  19.634  0.00  0.00    +0.000 C 
ATOM     20  C   UNL     1      -7.878  13.789  18.825  0.00  0.00    +0.000 C 
ENDBRANCH  15  19
ENDBRANCH   1  16
BRANCH   3  21
ATOM     21  O   UNL     1      -3.644  10.741  17.633  0.00  0.00    +0.000 OA
ATOM     22  C   UNL     1      -3.802  11.165  16.293  0.00  0.00    +0.000 C 
ENDBRANCH   3  21
BRANCH  10  23
ATOM     23  N   UNL     1      -0.454  10.716  18.121  0.00  0.00    +0.000 N 
ATOM     24  H   UNL     1      -0.807  10.181  17.335  0.00  0.00    +0.000 HD
BRANCH  23  25
ATOM     25  C   UNL     1       0.001   9.993  19.209  0.00  0.00    +0.000 A 
ATOM     26  C   UNL     1      -0.514  10.185  20.502  0.00  0.00    +0.000 A 
ATOM     27  C   UNL     1       0.075   9.621  21.645  0.00  0.00    +0.000 A 
ATOM     28  C   UNL     1       1.163   8.763  21.488  0.00  0.00    +0.000 A 
ATOM     29  C   UNL     1       1.683   8.530  20.221  0.00  0.00    +0.000 A 
ATOM     30  C   UNL     1       1.150   9.170  19.086  0.00  0.00    +0.000 A 
ATOM     31  C   UNL     1       1.851   8.963  17.769  0.00  0.00    +0.000 C 
BRANCH  27  32
ATOM     32  C   UNL     1      -0.401  10.008  23.021  0.00  0.00    +0.000 C 
ATOM     33  F   UNL     1      -1.617   9.481  23.346  0.00  0.00    +0.000 F 
ATOM     34  F   UNL     1       0.451   9.616  24.007  0.00  0.00    +0.000 F 
ATOM     35  F   UNL     1      -0.542  11.357  23.159  0.00  0.00    +0.000 F 
ENDBRANCH  27  32
ENDBRANCH  23  25
ENDBRANCH  10  23
TORSDOF 7
ENDMDL
MODEL 9
REMARK VINA RESULT:      -7.6      3.721      8.649
REMARK  Name = 
REMARK  11 active torsions:
REMARK  status: ('A' for Active; 'I' for Inactive)
REMARK    1  A    between atoms: C_1  and  C_2
REMARK    2  A    between atoms: C_2  and  C_3
REMARK    3  A    between atoms: C_7  and  C_8
REMARK    4  A    between atoms: C_8  and  C_9
REMARK    5  A    between atoms: C_10  and  C_11
REMARK    6  A    between atoms: C_13  and  O_14
REMARK    7  A    between atoms: O_14  and  C_15
REMARK    8  A    between atoms: C_22  and  N_23
REMARK    9  A    between atoms: N_23  and  C_24
REMARK   10  A    between atoms: C_26  and  C_27
REMARK   11  A    between atoms: C_33  and  C_34
REMARK                            x       y       z     vdW  Elec       q    Type
REMARK                         _______ _______ _______ _____ _____    ______ ____
ROOT
ATOM      1  C   UNL     1      -4.372  12.460  20.565  0.00  0.00    +0.000 A 
ATOM      2  C   UNL     1      -4.356  11.973  19.268  0.00  0.00    +0.000 A 
ATOM      3  C   UNL     1      -3.155  11.831  18.562  0.00  0.00    +0.000 A 
ATOM      4  C   UNL     1      -1.963  12.325  19.109  0.00  0.00    +0.000 A 
ATOM      5  C   UNL     1      -2.092  12.949  20.356  0.00  0.00    +0.000 A 
ATOM      6  N   UNL     1      -3.231  12.937  21.090  0.00  0.00    +0.000 NA
ATOM      7  C   UNL     1      -0.973  13.726  20.997  0.00  0.00    +0.000 C 
ATOM      8  C   UNL     1       0.046  14.188  19.970  0.00  0.00    +0.000 C 
ATOM      9  C   UNL     1       0.537  12.972  19.205  0.00  0.00    +0.000 C 
ATOM     10  C   UNL     1      -0.608  12.274  18.434  0.00  0.00    +0.000 C 
ENDROOT
BRANCH   1  16
ATOM     11  C   UNL     1      -6.822  11.891  21.013  0.00  0.00    +0.000 A 
ATOM     12  C   UNL     1      -7.917  11.812  21.897  0.00  0.00    +0.000 A 
ATOM     13  C   UNL     1      -7.861  12.387  23.154  0.00  0.00    +0.000 A 
ATOM     14  C   UNL     1      -6.732  13.101  23.530  0.00  0.00    +0.000 A 
ATOM     15  C   UNL     1      -5.619  13.233  22.672  0.00  0.00    +0.000 A 
ATOM     16  C   UNL     1      -5.605  12.537  21.414  0.00  0.00    +0.000 A 
BRANCH  11  18
ATOM     17  C   UNL     1      -7.129   9.814  19.648  0.00  0.00    +0.000 C 
ATOM     18  C   UNL     1      -7.080  11.342  19.619  0.00  0.00    +0.000 C 
ENDBRANCH  11  18
BRANCH  15  19
ATOM     19  C   UNL     1      -4.452  14.090  23.154  0.00  0.00    +0.000 C 
ATOM     20  C   UNL     1      -3.865  13.789  24.531  0.00  0.00    +0.000 C 
ENDBRANCH  15  19
ENDBRANCH   1  16
BRANCH   3  21
ATOM     21  O   UNL     1      -3.341  11.087  17.429  0.00  0.00    +0.000 OA
ATOM     22  C   UNL     1      -3.462   9.681  17.531  0.00  0.00    +0.000 C 
ENDBRANCH   3  21
BRANCH  10  23
ATOM     23  N   UNL     1      -0.219  10.883  18.222  0.00  0.00    +0.000 N 
ATOM     24  H   UNL     1      -0.558  10.473  17.359  0.00  0.00    +0.000 HD
BRANCH  23  25
ATOM     25  C   UNL     1       0.195  10.004  19.207  0.00  0.00    +0.000 A 
ATOM     26  C   UNL     1      -0.340  10.030  20.506  0.00  0.00    +0.000 A 
ATOM     27  C   UNL     1       0.211   9.297  21.568  0.00  0.00    +0.000 A 
ATOM     28  C   UNL     1       1.278   8.437  21.311  0.00  0.00    +0.000 A 
ATOM     29  C   UNL     1       1.816   8.366  20.032  0.00  0.00    +0.000 A 
ATOM     30  C   UNL     1       1.323   9.172  18.989  0.00  0.00    +0.000 A 
ATOM     31  C   UNL     1       2.044   9.128  17.666  0.00  0.00    +0.000 C 
BRANCH  27  32
ATOM     32  C   UNL     1      -0.281   9.504  22.977  0.00  0.00    +0.000 C 
ATOM     33  F   UNL     1       0.700   9.389  23.919  0.00  0.00    +0.000 F 
ATOM     34  F   UNL     1      -0.841  10.728  23.170  0.00  0.00    +0.000 F 
ATOM     35  F   UNL     1      -1.232   8.594  23.332  0.00  0.00    +0.000 F 
ENDBRANCH  27  32
ENDBRANCH  23  25
ENDBRANCH  10  23
TORSDOF 7
ENDMDL
