MODEL 1
REMARK VINA RESULT:      -7.4      0.000      0.000
REMARK  Name = 
REMARK  6 active torsions:
REMARK  status: ('A' for Active; 'I' for Inactive)
REMARK    1  A    between atoms: C_1  and  O_2
REMARK    2  A    between atoms: O_2  and  C_3
REMARK    3  A    between atoms: C_3  and  C_4
REMARK    4  A    between atoms: C_4  and  O_5
REMARK    5  A    between atoms: O_5  and  C_6
REMARK    6  A    between atoms: C_20  and  O_21
REMARK                            x       y       z     vdW  Elec       q    Type
REMARK                         _______ _______ _______ _____ _____    ______ ____
ROOT
ATOM      1  C   UNL     1       2.047   7.197  20.110  0.00  0.00    +0.000 C 
ATOM      2  C   UNL     1       1.222   6.088  20.833  0.00  0.00    +0.000 C 
ATOM      3  C   UNL     1       1.646   4.839  20.529  0.00  0.00    +0.000 C 
ATOM      4  C   UNL     1       1.063   3.463  20.382  0.00  0.00    +0.000 C 
ATOM      5  C   UNL     1       2.230   2.638  19.711  0.00  0.00    +0.000 C 
ATOM      6  N   UNL     1       3.433   3.430  19.961  0.00  0.00    +0.000 NA
ATOM      7  C   UNL     1       4.666   3.278  19.173  0.00  0.00    +0.000 C 
ATOM      8  C   UNL     1       5.207   4.596  18.557  0.00  0.00    +0.000 A 
ATOM      9  C   UNL     1       6.578   4.911  18.562  0.00  0.00    +0.000 A 
ATOM     10  C   UNL     1       6.970   6.166  18.115  0.00  0.00    +0.000 A 
ATOM     11  C   UNL     1       6.073   7.064  17.594  0.00  0.00    +0.000 A 
ATOM     12  C   UNL     1       4.737   6.787  17.518  0.00  0.00    +0.000 A 
ATOM     13  C   UNL     1       4.288   5.596  18.084  0.00  0.00    +0.000 A 
ATOM     14  C   UNL     1       2.839   5.425  18.468  0.00  0.00    +0.000 C 
ATOM     15  C   UNL     1       1.906   6.714  18.609  0.00  0.00    +0.000 C 
ATOM     16  C   UNL     1       2.977   4.792  19.895  0.00  0.00    +0.000 C 
ATOM     17  O   UNL     1       6.615   8.262  17.265  0.00  0.00    +0.000 OA
ATOM     18  C   UNL     1       7.996   7.999  17.566  0.00  0.00    +0.000 C 
ATOM     19  O   UNL     1       8.220   6.702  18.165  0.00  0.00    +0.000 OA
ENDROOT
BRANCH  15  20
ATOM     20  O   UNL     1       2.009   7.675  17.590  0.00  0.00    +0.000 OA
ATOM     21  H   UNL     1       2.833   7.512  17.102  0.00  0.00    +0.000 HD
ENDBRANCH  15  20
BRANCH   1  22
ATOM     22  O   UNL     1       1.645   8.518  20.389  0.00  0.00    +0.000 OA
BRANCH  22  23
ATOM     23  C   UNL     1       1.299   8.783  21.765  0.00  0.00    +0.000 C 
BRANCH  23  24
ATOM     24  C   UNL     1      -0.107   9.306  22.195  0.00  0.00    +0.000 C 
BRANCH  24  26
ATOM     25  C   UNL     1      -1.252  11.199  23.046  0.00  0.00    +0.000 C 
ATOM     26  O   UNL     1      -0.051  10.421  23.093  0.00  0.00    +0.000 OA
ENDBRANCH  24  26
ENDBRANCH  23  24
ENDBRANCH  22  23
ENDBRANCH   1  22
TORSDOF 5
ENDMDL
MODEL 2
REMARK VINA RESULT:      -7.4      1.312      1.445
REMARK  Name = 
REMARK  6 active torsions:
REMARK  status: ('A' for Active; 'I' for Inactive)
REMARK    1  A    between atoms: C_1  and  O_2
REMARK    2  A    between atoms: O_2  and  C_3
REMARK    3  A    between atoms: C_3  and  C_4
REMARK    4  A    between atoms: C_4  and  O_5
REMARK    5  A    between atoms: O_5  and  C_6
REMARK    6  A    between atoms: C_20  and  O_21
REMARK                            x       y       z     vdW  Elec       q    Type
REMARK                         _______ _______ _______ _____ _____    ______ ____
ROOT
ATOM      1  C   UNL     1       2.159   6.712  20.192  0.00  0.00    +0.000 C 
ATOM      2  C   UNL     1       1.256   5.543  20.692  0.00  0.00    +0.000 C 
ATOM      3  C   UNL     1       1.462   4.393  20.007  0.00  0.00    +0.000 C 
ATOM      4  C   UNL     1       0.673   3.192  19.573  0.00  0.00    +0.000 C 
ATOM      5  C   UNL     1       1.636   2.467  18.554  0.00  0.00    +0.000 C 
ATOM      6  N   UNL     1       2.960   3.014  18.844  0.00  0.00    +0.000 NA
ATOM      7  C   UNL     1       4.076   2.955  17.887  0.00  0.00    +0.000 C 
ATOM      8  C   UNL     1       4.740   4.325  17.583  0.00  0.00    +0.000 A 
ATOM      9  C   UNL     1       6.137   4.468  17.489  0.00  0.00    +0.000 A 
ATOM     10  C   UNL     1       6.662   5.747  17.350  0.00  0.00    +0.000 A 
ATOM     11  C   UNL     1       5.859   6.852  17.216  0.00  0.00    +0.000 A 
ATOM     12  C   UNL     1       4.496   6.760  17.249  0.00  0.00    +0.000 A 
ATOM     13  C   UNL     1       3.935   5.515  17.527  0.00  0.00    +0.000 A 
ATOM     14  C   UNL     1       2.521   5.406  18.040  0.00  0.00    +0.000 C 
ATOM     15  C   UNL     1       1.804   6.698  18.649  0.00  0.00    +0.000 C 
ATOM     16  C   UNL     1       2.703   4.380  19.211  0.00  0.00    +0.000 C 
ATOM     17  O   UNL     1       6.535   8.024  17.154  0.00  0.00    +0.000 OA
ATOM     18  C   UNL     1       7.886   7.533  17.184  0.00  0.00    +0.000 C 
ATOM     19  O   UNL     1       7.975   6.102  17.374  0.00  0.00    +0.000 OA
ENDROOT
BRANCH  15  20
ATOM     20  O   UNL     1       1.947   7.892  17.924  0.00  0.00    +0.000 OA
ATOM     21  H   UNL     1       1.791   8.635  18.530  0.00  0.00    +0.000 HD
ENDBRANCH  15  20
BRANCH   1  22
ATOM     22  O   UNL     1       1.983   7.935  20.869  0.00  0.00    +0.000 OA
BRANCH  22  23
ATOM     23  C   UNL     1       0.618   8.269  21.199  0.00  0.00    +0.000 C 
BRANCH  23  24
ATOM     24  C   UNL     1      -0.082   9.564  20.677  0.00  0.00    +0.000 C 
BRANCH  24  26
ATOM     25  C   UNL     1       0.627  11.216  19.134  0.00  0.00    +0.000 C 
ATOM     26  O   UNL     1       0.211   9.858  19.306  0.00  0.00    +0.000 OA
ENDBRANCH  24  26
ENDBRANCH  23  24
ENDBRANCH  22  23
ENDBRANCH   1  22
TORSDOF 5
ENDMDL
MODEL 3
REMARK VINA RESULT:      -6.5      4.215      7.383
REMARK  Name = 
REMARK  6 active torsions:
REMARK  status: ('A' for Active; 'I' for Inactive)
REMARK    1  A    between atoms: C_1  and  O_2
REMARK    2  A    between atoms: O_2  and  C_3
REMARK    3  A    between atoms: C_3  and  C_4
REMARK    4  A    between atoms: C_4  and  O_5
REMARK    5  A    between atoms: O_5  and  C_6
REMARK    6  A    between atoms: C_20  and  O_21
REMARK                            x       y       z     vdW  Elec       q    Type
REMARK                         _______ _______ _______ _____ _____    ______ ____
ROOT
ATOM      1  C   UNL     1       0.842  13.573  19.818  0.00  0.00    +0.000 C 
ATOM      2  C   UNL     1       0.288  14.216  21.127  0.00  0.00    +0.000 C 
ATOM      3  C   UNL     1      -0.293  13.311  21.949  0.00  0.00    +0.000 C 
ATOM      4  C   UNL     1      -1.410  13.263  22.952  0.00  0.00    +0.000 C 
ATOM      5  C   UNL     1      -1.594  11.719  23.226  0.00  0.00    +0.000 C 
ATOM      6  N   UNL     1      -0.349  11.111  22.761  0.00  0.00    +0.000 NA
ATOM      7  C   UNL     1      -0.234   9.682  22.428  0.00  0.00    +0.000 C 
ATOM      8  C   UNL     1       0.332   9.392  21.012  0.00  0.00    +0.000 A 
ATOM      9  C   UNL     1       1.276   8.373  20.784  0.00  0.00    +0.000 A 
ATOM     10  C   UNL     1       1.836   8.262  19.518  0.00  0.00    +0.000 A 
ATOM     11  C   UNL     1       1.434   9.056  18.474  0.00  0.00    +0.000 A 
ATOM     12  C   UNL     1       0.483  10.025  18.630  0.00  0.00    +0.000 A 
ATOM     13  C   UNL     1       0.000  10.260  19.915  0.00  0.00    +0.000 A 
ATOM     14  C   UNL     1      -0.662  11.571  20.260  0.00  0.00    +0.000 C 
ATOM     15  C   UNL     1      -0.458  12.832  19.301  0.00  0.00    +0.000 C 
ATOM     16  C   UNL     1       0.029  11.909  21.626  0.00  0.00    +0.000 C 
ATOM     17  O   UNL     1       2.128   8.857  17.327  0.00  0.00    +0.000 OA
ATOM     18  C   UNL     1       2.980   7.775  17.738  0.00  0.00    +0.000 C 
ATOM     19  O   UNL     1       2.849   7.438  19.138  0.00  0.00    +0.000 OA
ENDROOT
BRANCH  15  20
ATOM     20  O   UNL     1      -0.582  12.594  17.922  0.00  0.00    +0.000 OA
ATOM     21  H   UNL     1       0.119  11.977  17.656  0.00  0.00    +0.000 HD
ENDBRANCH  15  20
BRANCH   1  22
ATOM     22  O   UNL     1       1.454  14.472  18.924  0.00  0.00    +0.000 OA
BRANCH  22  23
ATOM     23  C   UNL     1       2.698  14.020  18.346  0.00  0.00    +0.000 C 
BRANCH  23  24
ATOM     24  C   UNL     1       4.085  14.589  18.783  0.00  0.00    +0.000 C 
BRANCH  24  26
ATOM     25  C   UNL     1       6.347  14.817  18.115  0.00  0.00    +0.000 C 
ATOM     26  O   UNL     1       4.981  14.810  17.688  0.00  0.00    +0.000 OA
ENDBRANCH  24  26
ENDBRANCH  23  24
ENDBRANCH  22  23
ENDBRANCH   1  22
TORSDOF 5
ENDMDL
MODEL 4
REMARK VINA RESULT:      -6.4      5.654      9.173
REMARK  Name = 
REMARK  6 active torsions:
REMARK  status: ('A' for Active; 'I' for Inactive)
REMARK    1  A    between atoms: C_1  and  O_2
REMARK    2  A    between atoms: O_2  and  C_3
REMARK    3  A    between atoms: C_3  and  C_4
REMARK    4  A    between atoms: C_4  and  O_5
REMARK    5  A    between atoms: O_5  and  C_6
REMARK    6  A    between atoms: C_20  and  O_21
REMARK                            x       y       z     vdW  Elec       q    Type
REMARK                         _______ _______ _______ _____ _____    ______ ____
ROOT
ATOM      1  C   UNL     1      -2.032  10.987  17.896  0.00  0.00    +0.000 C 
ATOM      2  C   UNL     1      -1.058   9.885  17.376  0.00  0.00    +0.000 C 
ATOM      3  C   UNL     1      -0.116   9.546  18.287  0.00  0.00    +0.000 C 
ATOM      4  C   UNL     1       1.309   9.074  18.302  0.00  0.00    +0.000 C 
ATOM      5  C   UNL     1       1.726   9.209  19.819  0.00  0.00    +0.000 C 
ATOM      6  N   UNL     1       0.459   9.280  20.545  0.00  0.00    +0.000 NA
ATOM      7  C   UNL     1       0.350   9.826  21.907  0.00  0.00    +0.000 C 
ATOM      8  C   UNL     1      -0.710  10.949  22.070  0.00  0.00    +0.000 A 
ATOM      9  C   UNL     1      -1.570  11.003  23.183  0.00  0.00    +0.000 A 
ATOM     10  C   UNL     1      -2.580  11.957  23.191  0.00  0.00    +0.000 A 
ATOM     11  C   UNL     1      -2.706  12.891  22.195  0.00  0.00    +0.000 A 
ATOM     12  C   UNL     1      -1.865  12.914  21.118  0.00  0.00    +0.000 A 
ATOM     13  C   UNL     1      -0.928  11.889  21.004  0.00  0.00    +0.000 A 
ATOM     14  C   UNL     1      -0.304  11.564  19.670  0.00  0.00    +0.000 C 
ATOM     15  C   UNL     1      -0.990  12.097  18.330  0.00  0.00    +0.000 C 
ATOM     16  C   UNL     1      -0.414  10.000  19.658  0.00  0.00    +0.000 C 
ATOM     17  O   UNL     1      -3.782  13.704  22.330  0.00  0.00    +0.000 OA
ATOM     18  C   UNL     1      -4.296  13.228  23.585  0.00  0.00    +0.000 C 
ATOM     19  O   UNL     1      -3.582  12.082  24.104  0.00  0.00    +0.000 OA
ENDROOT
BRANCH  15  20
ATOM     20  O   UNL     1      -1.410  13.437  18.333  0.00  0.00    +0.000 OA
ATOM     21  H   UNL     1      -1.065  13.865  17.533  0.00  0.00    +0.000 HD
ENDBRANCH  15  20
BRANCH   1  22
ATOM     22  O   UNL     1      -3.031  11.380  16.985  0.00  0.00    +0.000 OA
BRANCH  22  23
ATOM     23  C   UNL     1      -2.767  11.063  15.601  0.00  0.00    +0.000 C 
BRANCH  23  24
ATOM     24  C   UNL     1      -3.705  10.148  14.753  0.00  0.00    +0.000 C 
BRANCH  24  26
ATOM     25  C   UNL     1      -4.306   9.830  12.482  0.00  0.00    +0.000 C 
ATOM     26  O   UNL     1      -3.229   9.922  13.421  0.00  0.00    +0.000 OA
ENDBRANCH  24  26
ENDBRANCH  23  24
ENDBRANCH  22  23
ENDBRANCH   1  22
TORSDOF 5
ENDMDL
MODEL 5
REMARK VINA RESULT:      -6.4      4.719      7.547
REMARK  Name = 
REMARK  6 active torsions:
REMARK  status: ('A' for Active; 'I' for Inactive)
REMARK    1  A    between atoms: C_1  and  O_2
REMARK    2  A    between atoms: O_2  and  C_3
REMARK    3  A    between atoms: C_3  and  C_4
REMARK    4  A    between atoms: C_4  and  O_5
REMARK    5  A    between atoms: O_5  and  C_6
REMARK    6  A    between atoms: C_20  and  O_21
REMARK                            x       y       z     vdW  Elec       q    Type
REMARK                         _______ _______ _______ _____ _____    ______ ____
ROOT
ATOM      1  C   UNL     1       1.022  13.597  19.791  0.00  0.00    +0.000 C 
ATOM      2  C   UNL     1       0.460  14.273  21.080  0.00  0.00    +0.000 C 
ATOM      3  C   UNL     1      -0.181  13.401  21.892  0.00  0.00    +0.000 C 
ATOM      4  C   UNL     1      -1.326  13.409  22.864  0.00  0.00    +0.000 C 
ATOM      5  C   UNL     1      -1.583  11.877  23.143  0.00  0.00    +0.000 C 
ATOM      6  N   UNL     1      -0.353  11.212  22.716  0.00  0.00    +0.000 NA
ATOM      7  C   UNL     1      -0.291   9.777  22.397  0.00  0.00    +0.000 C 
ATOM      8  C   UNL     1       0.300   9.451  20.999  0.00  0.00    +0.000 A 
ATOM      9  C   UNL     1       1.205   8.391  20.804  0.00  0.00    +0.000 A 
ATOM     10  C   UNL     1       1.794   8.246  19.555  0.00  0.00    +0.000 A 
ATOM     11  C   UNL     1       1.455   9.048  18.494  0.00  0.00    +0.000 A 
ATOM     12  C   UNL     1       0.544  10.059  18.618  0.00  0.00    +0.000 A 
ATOM     13  C   UNL     1       0.036  10.324  19.888  0.00  0.00    +0.000 A 
ATOM     14  C   UNL     1      -0.578  11.665  20.205  0.00  0.00    +0.000 C 
ATOM     15  C   UNL     1      -0.294  12.908  19.243  0.00  0.00    +0.000 C 
ATOM     16  C   UNL     1       0.089  11.984  21.587  0.00  0.00    +0.000 C 
ATOM     17  O   UNL     1       2.171   8.811  17.368  0.00  0.00    +0.000 OA
ATOM     18  C   UNL     1       2.965   7.696  17.810  0.00  0.00    +0.000 C 
ATOM     19  O   UNL     1       2.781   7.376  19.209  0.00  0.00    +0.000 OA
ENDROOT
BRANCH  15  20
ATOM     20  O   UNL     1      -0.391  12.665  17.863  0.00  0.00    +0.000 OA
ATOM     21  H   UNL     1      -0.922  13.376  17.468  0.00  0.00    +0.000 HD
ENDBRANCH  15  20
BRANCH   1  22
ATOM     22  O   UNL     1       1.697  14.462  18.908  0.00  0.00    +0.000 OA
BRANCH  22  23
ATOM     23  C   UNL     1       1.287  15.845  18.962  0.00  0.00    +0.000 C 
BRANCH  23  24
ATOM     24  C   UNL     1       2.234  17.020  18.563  0.00  0.00    +0.000 C 
BRANCH  24  26
ATOM     25  C   UNL     1       1.122  18.319  16.922  0.00  0.00    +0.000 C 
ATOM     26  O   UNL     1       1.541  18.243  18.288  0.00  0.00    +0.000 OA
ENDBRANCH  24  26
ENDBRANCH  23  24
ENDBRANCH  22  23
ENDBRANCH   1  22
TORSDOF 5
ENDMDL
MODEL 6
REMARK VINA RESULT:      -6.4      6.011      9.839
REMARK  Name = 
REMARK  6 active torsions:
REMARK  status: ('A' for Active; 'I' for Inactive)
REMARK    1  A    between atoms: C_1  and  O_2
REMARK    2  A    between atoms: O_2  and  C_3
REMARK    3  A    between atoms: C_3  and  C_4
REMARK    4  A    between atoms: C_4  and  O_5
REMARK    5  A    between atoms: O_5  and  C_6
REMARK    6  A    between atoms: C_20  and  O_21
REMARK                            x       y       z     vdW  Elec       q    Type
REMARK                         _______ _______ _______ _____ _____    ______ ____
ROOT
ATOM      1  C   UNL     1      -1.711  11.332  18.353  0.00  0.00    +0.000 C 
ATOM      2  C   UNL     1      -0.726  10.123  18.325  0.00  0.00    +0.000 C 
ATOM      3  C   UNL     1      -0.168   9.874  19.533  0.00  0.00    +0.000 C 
ATOM      4  C   UNL     1       1.124   9.342  20.081  0.00  0.00    +0.000 C 
ATOM      5  C   UNL     1       1.034   9.673  21.623  0.00  0.00    +0.000 C 
ATOM      6  N   UNL     1      -0.388   9.906  21.867  0.00  0.00    +0.000 NA
ATOM      7  C   UNL     1      -0.886  10.645  23.038  0.00  0.00    +0.000 C 
ATOM      8  C   UNL     1      -1.833  11.828  22.701  0.00  0.00    +0.000 A 
ATOM      9  C   UNL     1      -3.000  12.081  23.446  0.00  0.00    +0.000 A 
ATOM     10  C   UNL     1      -3.865  13.073  23.002  0.00  0.00    +0.000 A 
ATOM     11  C   UNL     1      -3.573  13.860  21.917  0.00  0.00    +0.000 A 
ATOM     12  C   UNL     1      -2.428  13.690  21.191  0.00  0.00    +0.000 A 
ATOM     13  C   UNL     1      -1.603  12.616  21.520  0.00  0.00    +0.000 A 
ATOM     14  C   UNL     1      -0.611  12.075  20.522  0.00  0.00    +0.000 C 
ATOM     15  C   UNL     1      -0.770  12.443  18.976  0.00  0.00    +0.000 C 
ATOM     16  C   UNL     1      -0.854  10.532  20.660  0.00  0.00    +0.000 C 
ATOM     17  O   UNL     1      -4.554  14.733  21.585  0.00  0.00    +0.000 OA
ATOM     18  C   UNL     1      -5.491  14.467  22.642  0.00  0.00    +0.000 C 
ATOM     19  O   UNL     1      -5.094  13.374  23.503  0.00  0.00    +0.000 OA
ENDROOT
BRANCH  15  20
ATOM     20  O   UNL     1      -1.044  13.788  18.678  0.00  0.00    +0.000 OA
ATOM     21  H   UNL     1      -0.216  14.290  18.757  0.00  0.00    +0.000 HD
ENDBRANCH  15  20
BRANCH   1  22
ATOM     22  O   UNL     1      -2.317  11.638  17.119  0.00  0.00    +0.000 OA
BRANCH  22  23
ATOM     23  C   UNL     1      -2.448  10.530  16.202  0.00  0.00    +0.000 C 
BRANCH  23  24
ATOM     24  C   UNL     1      -3.404  10.566  14.969  0.00  0.00    +0.000 C 
BRANCH  24  26
ATOM     25  C   UNL     1      -3.804   9.752  12.779  0.00  0.00    +0.000 C 
ATOM     26  O   UNL     1      -2.816  10.037  13.775  0.00  0.00    +0.000 OA
ENDBRANCH  24  26
ENDBRANCH  23  24
ENDBRANCH  22  23
ENDBRANCH   1  22
TORSDOF 5
ENDMDL
MODEL 7
REMARK VINA RESULT:      -6.3      4.111      7.125
REMARK  Name = 
REMARK  6 active torsions:
REMARK  status: ('A' for Active; 'I' for Inactive)
REMARK    1  A    between atoms: C_1  and  O_2
REMARK    2  A    between atoms: O_2  and  C_3
REMARK    3  A    between atoms: C_3  and  C_4
REMARK    4  A    between atoms: C_4  and  O_5
REMARK    5  A    between atoms: O_5  and  C_6
REMARK    6  A    between atoms: C_20  and  O_21
REMARK                            x       y       z     vdW  Elec       q    Type
REMARK                         _______ _______ _______ _____ _____    ______ ____
ROOT
ATOM      1  C   UNL     1       0.733  13.491  19.920  0.00  0.00    +0.000 C 
ATOM      2  C   UNL     1       0.149  14.103  21.230  0.00  0.00    +0.000 C 
ATOM      3  C   UNL     1      -0.429  13.176  22.029  0.00  0.00    +0.000 C 
ATOM      4  C   UNL     1      -1.559  13.093  23.014  0.00  0.00    +0.000 C 
ATOM      5  C   UNL     1      -1.721  11.542  23.261  0.00  0.00    +0.000 C 
ATOM      6  N   UNL     1      -0.459  10.962  22.805  0.00  0.00    +0.000 NA
ATOM      7  C   UNL     1      -0.315   9.541  22.451  0.00  0.00    +0.000 C 
ATOM      8  C   UNL     1       0.277   9.283  21.039  0.00  0.00    +0.000 A 
ATOM      9  C   UNL     1       1.241   8.284  20.809  0.00  0.00    +0.000 A 
ATOM     10  C   UNL     1       1.822   8.203  19.550  0.00  0.00    +0.000 A 
ATOM     11  C   UNL     1       1.422   9.007  18.513  0.00  0.00    +0.000 A 
ATOM     12  C   UNL     1       0.453   9.958  18.670  0.00  0.00    +0.000 A 
ATOM     13  C   UNL     1      -0.053  10.164  19.952  0.00  0.00    +0.000 A 
ATOM     14  C   UNL     1      -0.743  11.457  20.307  0.00  0.00    +0.000 C 
ATOM     15  C   UNL     1      -0.546  12.737  19.371  0.00  0.00    +0.000 C 
ATOM     16  C   UNL     1      -0.078  11.784  21.688  0.00  0.00    +0.000 C 
ATOM     17  O   UNL     1       2.136   8.839  17.373  0.00  0.00    +0.000 OA
ATOM     18  C   UNL     1       3.001   7.765  17.780  0.00  0.00    +0.000 C 
ATOM     19  O   UNL     1       2.855   7.402  19.172  0.00  0.00    +0.000 OA
ENDROOT
BRANCH  15  20
ATOM     20  O   UNL     1      -0.646  12.520  17.987  0.00  0.00    +0.000 OA
ATOM     21  H   UNL     1      -0.826  13.373  17.560  0.00  0.00    +0.000 HD
ENDBRANCH  15  20
BRANCH   1  22
ATOM     22  O   UNL     1       1.343  14.415  19.050  0.00  0.00    +0.000 OA
BRANCH  22  23
ATOM     23  C   UNL     1       2.309  15.297  19.661  0.00  0.00    +0.000 C 
BRANCH  23  24
ATOM     24  C   UNL     1       3.849  15.070  19.547  0.00  0.00    +0.000 C 
BRANCH  24  26
ATOM     25  C   UNL     1       3.618  15.061  21.905  0.00  0.00    +0.000 C 
ATOM     26  O   UNL     1       4.474  14.762  20.798  0.00  0.00    +0.000 OA
ENDBRANCH  24  26
ENDBRANCH  23  24
ENDBRANCH  22  23
ENDBRANCH   1  22
TORSDOF 5
ENDMDL
MODEL 8
REMARK VINA RESULT:      -6.2      6.801     10.196
REMARK  Name = 
REMARK  6 active torsions:
REMARK  status: ('A' for Active; 'I' for Inactive)
REMARK    1  A    between atoms: C_1  and  O_2
REMARK    2  A    between atoms: O_2  and  C_3
REMARK    3  A    between atoms: C_3  and  C_4
REMARK    4  A    between atoms: C_4  and  O_5
REMARK    5  A    between atoms: O_5  and  C_6
REMARK    6  A    between atoms: C_20  and  O_21
REMARK                            x       y       z     vdW  Elec       q    Type
REMARK                         _______ _______ _______ _____ _____    ______ ____
ROOT
ATOM      1  C   UNL     1      -2.280  10.186  18.161  0.00  0.00    +0.000 C 
ATOM      2  C   UNL     1      -0.758   9.894  17.983  0.00  0.00    +0.000 C 
ATOM      3  C   UNL     1       0.019  10.657  18.787  0.00  0.00    +0.000 C 
ATOM      4  C   UNL     1       1.384  11.281  18.762  0.00  0.00    +0.000 C 
ATOM      5  C   UNL     1       1.366  12.257  20.003  0.00  0.00    +0.000 C 
ATOM      6  N   UNL     1       0.261  11.779  20.832  0.00  0.00    +0.000 NA
ATOM      7  C   UNL     1      -0.390  12.616  21.852  0.00  0.00    +0.000 C 
ATOM      8  C   UNL     1      -1.933  12.720  21.714  0.00  0.00    +0.000 A 
ATOM      9  C   UNL     1      -2.785  12.653  22.832  0.00  0.00    +0.000 A 
ATOM     10  C   UNL     1      -4.157  12.617  22.616  0.00  0.00    +0.000 A 
ATOM     11  C   UNL     1      -4.698  12.731  21.360  0.00  0.00    +0.000 A 
ATOM     12  C   UNL     1      -3.915  12.850  20.246  0.00  0.00    +0.000 A 
ATOM     13  C   UNL     1      -2.535  12.750  20.408  0.00  0.00    +0.000 A 
ATOM     14  C   UNL     1      -1.648  12.399  19.240  0.00  0.00    +0.000 C 
ATOM     15  C   UNL     1      -2.292  11.752  17.930  0.00  0.00    +0.000 C 
ATOM     16  C   UNL     1      -0.715  11.316  19.884  0.00  0.00    +0.000 C 
ATOM     17  O   UNL     1      -6.048  12.613  21.325  0.00  0.00    +0.000 OA
ATOM     18  C   UNL     1      -6.321  12.487  22.731  0.00  0.00    +0.000 C 
ATOM     19  O   UNL     1      -5.129  12.422  23.547  0.00  0.00    +0.000 OA
ENDROOT
BRANCH  15  20
ATOM     20  O   UNL     1      -3.474  12.344  17.456  0.00  0.00    +0.000 OA
ATOM     21  H   UNL     1      -4.222  11.788  17.730  0.00  0.00    +0.000 HD
ENDBRANCH  15  20
BRANCH   1  22
ATOM     22  O   UNL     1      -3.135   9.420  17.344  0.00  0.00    +0.000 OA
BRANCH  22  23
ATOM     23  C   UNL     1      -2.824   9.438  15.934  0.00  0.00    +0.000 C 
BRANCH  23  24
ATOM     24  C   UNL     1      -3.736  10.141  14.879  0.00  0.00    +0.000 C 
BRANCH  24  26
ATOM     25  C   UNL     1      -4.126   9.801  12.566  0.00  0.00    +0.000 C 
ATOM     26  O   UNL     1      -3.168  10.170  13.564  0.00  0.00    +0.000 OA
ENDBRANCH  24  26
ENDBRANCH  23  24
ENDBRANCH  22  23
ENDBRANCH   1  22
TORSDOF 5
ENDMDL
MODEL 9
REMARK VINA RESULT:      -6.2      5.667      8.870
REMARK  Name = 
REMARK  6 active torsions:
REMARK  status: ('A' for Active; 'I' for Inactive)
REMARK    1  A    between atoms: C_1  and  O_2
REMARK    2  A    between atoms: O_2  and  C_3
REMARK    3  A    between atoms: C_3  and  C_4
REMARK    4  A    between atoms: C_4  and  O_5
REMARK    5  A    between atoms: O_5  and  C_6
REMARK    6  A    between atoms: C_20  and  O_21
REMARK                            x       y       z     vdW  Elec       q    Type
REMARK                         _______ _______ _______ _____ _____    ______ ____
ROOT
ATOM      1  C   UNL     1      -2.034  11.162  17.860  0.00  0.00    +0.000 C 
ATOM      2  C   UNL     1      -1.102  10.051  17.285  0.00  0.00    +0.000 C 
ATOM      3  C   UNL     1      -0.165   9.643  18.174  0.00  0.00    +0.000 C 
ATOM      4  C   UNL     1       1.243   9.123  18.157  0.00  0.00    +0.000 C 
ATOM      5  C   UNL     1       1.675   9.180  19.674  0.00  0.00    +0.000 C 
ATOM      6  N   UNL     1       0.417   9.263  20.413  0.00  0.00    +0.000 NA
ATOM      7  C   UNL     1       0.336   9.755  21.798  0.00  0.00    +0.000 C 
ATOM      8  C   UNL     1      -0.684  10.905  22.016  0.00  0.00    +0.000 A 
ATOM      9  C   UNL     1      -1.533  10.941  23.138  0.00  0.00    +0.000 A 
ATOM     10  C   UNL     1      -2.510  11.927  23.196  0.00  0.00    +0.000 A 
ATOM     11  C   UNL     1      -2.612  12.906  22.240  0.00  0.00    +0.000 A 
ATOM     12  C   UNL     1      -1.778  12.945  21.158  0.00  0.00    +0.000 A 
ATOM     13  C   UNL     1      -0.877  11.896  20.992  0.00  0.00    +0.000 A 
ATOM     14  C   UNL     1      -0.275  11.606  19.641  0.00  0.00    +0.000 C 
ATOM     15  C   UNL     1      -0.952  12.217  18.330  0.00  0.00    +0.000 C 
ATOM     16  C   UNL     1      -0.438  10.048  19.565  0.00  0.00    +0.000 C 
ATOM     17  O   UNL     1      -3.659  13.748  22.418  0.00  0.00    +0.000 OA
ATOM     18  C   UNL     1      -4.179  13.237  23.657  0.00  0.00    +0.000 C 
ATOM     19  O   UNL     1      -3.500  12.047  24.121  0.00  0.00    +0.000 OA
ENDROOT
BRANCH  15  20
ATOM     20  O   UNL     1      -1.327  13.569  18.393  0.00  0.00    +0.000 OA
ATOM     21  H   UNL     1      -0.634  14.096  17.962  0.00  0.00    +0.000 HD
ENDBRANCH  15  20
BRANCH   1  22
ATOM     22  O   UNL     1      -3.026  11.626  16.974  0.00  0.00    +0.000 OA
BRANCH  22  23
ATOM     23  C   UNL     1      -4.339  11.054  17.160  0.00  0.00    +0.000 C 
BRANCH  23  24
ATOM     24  C   UNL     1      -5.382  11.646  18.159  0.00  0.00    +0.000 C 
BRANCH  24  26
ATOM     25  C   UNL     1      -6.951  10.424  19.448  0.00  0.00    +0.000 C 
ATOM     26  O   UNL     1      -6.634  10.950  18.156  0.00  0.00    +0.000 OA
ENDBRANCH  24  26
ENDBRANCH  23  24
ENDBRANCH  22  23
ENDBRANCH   1  22
TORSDOF 5
ENDMDL
