MODEL 1
REMARK VINA RESULT:      -7.6      0.000      0.000
REMARK  Name = 
REMARK  6 active torsions:
REMARK  status: ('A' for Active; 'I' for Inactive)
REMARK    1  A    between atoms: C_1  and  O_2
REMARK    2  A    between atoms: O_2  and  C_3
REMARK    3  A    between atoms: C_3  and  C_5
REMARK    4  A    between atoms: N_8  and  C_9
REMARK    5  A    between atoms: N_13  and  C_14
REMARK    6  A    between atoms: C_14  and  C_15
REMARK                            x       y       z     vdW  Elec       q    Type
REMARK                         _______ _______ _______ _____ _____    ______ ____
ROOT
ATOM      1  C   UNL     1       1.921   7.148  19.976  0.00  0.00    +0.000 A 
ATOM      2  C   UNL     1       1.224   7.877  20.857  0.00  0.00    +0.000 A 
ATOM      3  C   UNL     1       0.738   9.229  20.517  0.00  0.00    +0.000 A 
ATOM      4  O   UNL     1       0.149   9.864  21.385  0.00  0.00    +0.000 OA
ATOM      5  N   UNL     1       0.995   9.679  19.245  0.00  0.00    +0.000 N 
ATOM      6  C   UNL     1       1.756   8.964  18.351  0.00  0.00    +0.000 A 
ATOM      7  O   UNL     1       2.084   9.368  17.236  0.00  0.00    +0.000 OA
ATOM      8  N   UNL     1       2.168   7.726  18.762  0.00  0.00    +0.000 N 
ATOM      9  H   UNL     1       2.678   7.200  18.069  0.00  0.00    +0.000 HD
ENDROOT
BRANCH   1  13
ATOM     10  C   UNL     1       2.701   3.065  19.598  0.00  0.00    +0.000 C 
ATOM     11  C   UNL     1       3.508   4.168  18.896  0.00  0.00    +0.000 C 
ATOM     12  C   UNL     1       3.706   5.379  19.806  0.00  0.00    +0.000 C 
ATOM     13  N   UNL     1       2.393   5.867  20.254  0.00  0.00    +0.000 N 
ATOM     14  C   UNL     1       1.632   4.870  21.024  0.00  0.00    +0.000 C 
ATOM     15  C   UNL     1       1.391   3.639  20.149  0.00  0.00    +0.000 C 
BRANCH  10  16
ATOM     16  C   UNL     1       3.537   2.401  20.685  0.00  0.00    +0.000 C 
ATOM     17  O   UNL     1       3.183   2.258  21.847  0.00  0.00    +0.000 OA
BRANCH  16  19
ATOM     18  C   UNL     1       5.424   1.067  21.022  0.00  0.00    +0.000 C 
ATOM     19  O   UNL     1       4.752   2.023  20.200  0.00  0.00    +0.000 OA
ENDBRANCH  16  19
ENDBRANCH  10  16
ENDBRANCH   1  13
BRANCH   5  20
ATOM     20  C   UNL     1       0.481  10.988  18.859  0.00  0.00    +0.000 C 
BRANCH  20  21
ATOM     21  C   UNL     1      -0.990  10.930  18.484  0.00  0.00    +0.000 A 
ATOM     22  C   UNL     1      -1.433  10.064  17.470  0.00  0.00    +0.000 A 
ATOM     23  C   UNL     1      -2.756  10.108  17.027  0.00  0.00    +0.000 A 
ATOM     24  C   UNL     1      -3.641  11.008  17.605  0.00  0.00    +0.000 A 
ATOM     25  F   UNL     1      -4.896  11.091  17.142  0.00  0.00    +0.000 F 
ATOM     26  C   UNL     1      -3.238  11.836  18.647  0.00  0.00    +0.000 A 
ATOM     27  C   UNL     1      -1.913  11.799  19.087  0.00  0.00    +0.000 A 
ENDBRANCH  20  21
ENDBRANCH   5  20
TORSDOF 5
ENDMDL
MODEL 2
REMARK VINA RESULT:      -7.6      0.611      1.154
REMARK  Name = 
REMARK  6 active torsions:
REMARK  status: ('A' for Active; 'I' for Inactive)
REMARK    1  A    between atoms: C_1  and  O_2
REMARK    2  A    between atoms: O_2  and  C_3
REMARK    3  A    between atoms: C_3  and  C_5
REMARK    4  A    between atoms: N_8  and  C_9
REMARK    5  A    between atoms: N_13  and  C_14
REMARK    6  A    between atoms: C_14  and  C_15
REMARK                            x       y       z     vdW  Elec       q    Type
REMARK                         _______ _______ _______ _____ _____    ______ ____
ROOT
ATOM      1  C   UNL     1       1.867   7.329  19.949  0.00  0.00    +0.000 A 
ATOM      2  C   UNL     1       1.187   8.003  20.886  0.00  0.00    +0.000 A 
ATOM      3  C   UNL     1       0.709   9.379  20.643  0.00  0.00    +0.000 A 
ATOM      4  O   UNL     1       0.136   9.959  21.559  0.00  0.00    +0.000 OA
ATOM      5  N   UNL     1       0.956   9.911  19.401  0.00  0.00    +0.000 N 
ATOM      6  C   UNL     1       1.699   9.252  18.452  0.00  0.00    +0.000 A 
ATOM      7  O   UNL     1       2.017   9.727  17.362  0.00  0.00    +0.000 OA
ATOM      8  N   UNL     1       2.104   7.985  18.774  0.00  0.00    +0.000 N 
ATOM      9  H   UNL     1       2.601   7.503  18.041  0.00  0.00    +0.000 HD
ENDROOT
BRANCH   1  13
ATOM     10  C   UNL     1       2.488   3.243  19.365  0.00  0.00    +0.000 C 
ATOM     11  C   UNL     1       3.244   4.349  18.613  0.00  0.00    +0.000 C 
ATOM     12  C   UNL     1       3.573   5.524  19.533  0.00  0.00    +0.000 C 
ATOM     13  N   UNL     1       2.330   6.029  20.135  0.00  0.00    +0.000 N 
ATOM     14  C   UNL     1       1.629   5.026  20.953  0.00  0.00    +0.000 C 
ATOM     15  C   UNL     1       1.261   3.830  20.071  0.00  0.00    +0.000 C 
BRANCH  10  16
ATOM     16  C   UNL     1       3.417   2.523  20.333  0.00  0.00    +0.000 C 
ATOM     17  O   UNL     1       3.304   2.541  21.551  0.00  0.00    +0.000 OA
BRANCH  16  19
ATOM     18  C   UNL     1       3.960   1.099  18.563  0.00  0.00    +0.000 C 
ATOM     19  O   UNL     1       4.418   1.887  19.663  0.00  0.00    +0.000 OA
ENDBRANCH  16  19
ENDBRANCH  10  16
ENDBRANCH   1  13
BRANCH   5  20
ATOM     20  C   UNL     1       0.448  11.247  19.110  0.00  0.00    +0.000 C 
BRANCH  20  21
ATOM     21  C   UNL     1      -0.999  11.216  18.649  0.00  0.00    +0.000 A 
ATOM     22  C   UNL     1      -1.946  12.082  19.220  0.00  0.00    +0.000 A 
ATOM     23  C   UNL     1      -3.300  11.962  18.902  0.00  0.00    +0.000 A 
ATOM     24  C   UNL     1      -3.707  10.985  18.003  0.00  0.00    +0.000 A 
ATOM     25  F   UNL     1      -5.012  10.832  17.740  0.00  0.00    +0.000 F 
ATOM     26  C   UNL     1      -2.780  10.153  17.385  0.00  0.00    +0.000 A 
ATOM     27  C   UNL     1      -1.426  10.266  17.708  0.00  0.00    +0.000 A 
ENDBRANCH  20  21
ENDBRANCH   5  20
TORSDOF 5
ENDMDL
MODEL 3
REMARK VINA RESULT:      -7.5      1.116      1.366
REMARK  Name = 
REMARK  6 active torsions:
REMARK  status: ('A' for Active; 'I' for Inactive)
REMARK    1  A    between atoms: C_1  and  O_2
REMARK    2  A    between atoms: O_2  and  C_3
REMARK    3  A    between atoms: C_3  and  C_5
REMARK    4  A    between atoms: N_8  and  C_9
REMARK    5  A    between atoms: N_13  and  C_14
REMARK    6  A    between atoms: C_14  and  C_15
REMARK                            x       y       z     vdW  Elec       q    Type
REMARK                         _______ _______ _______ _____ _____    ______ ____
ROOT
ATOM      1  C   UNL     1       1.914   7.073  19.565  0.00  0.00    +0.000 A 
ATOM      2  C   UNL     1       1.419   7.610  20.689  0.00  0.00    +0.000 A 
ATOM      3  C   UNL     1       1.057   9.040  20.759  0.00  0.00    +0.000 A 
ATOM      4  O   UNL     1       0.656   9.480  21.832  0.00  0.00    +0.000 OA
ATOM      5  N   UNL     1       1.211   9.776  19.610  0.00  0.00    +0.000 N 
ATOM      6  C   UNL     1       1.769   9.252  18.469  0.00  0.00    +0.000 A 
ATOM      7  O   UNL     1       2.006   9.898  17.448  0.00  0.00    +0.000 OA
ATOM      8  N   UNL     1       2.079   7.920  18.504  0.00  0.00    +0.000 N 
ATOM      9  H   UNL     1       2.436   7.547  17.638  0.00  0.00    +0.000 HD
ENDROOT
BRANCH   1  13
ATOM     10  C   UNL     1       1.612   2.965  18.891  0.00  0.00    +0.000 C 
ATOM     11  C   UNL     1       1.781   4.014  17.781  0.00  0.00    +0.000 C 
ATOM     12  C   UNL     1       2.742   5.124  18.203  0.00  0.00    +0.000 C 
ATOM     13  N   UNL     1       2.261   5.730  19.454  0.00  0.00    +0.000 N 
ATOM     14  C   UNL     1       2.187   4.776  20.573  0.00  0.00    +0.000 C 
ATOM     15  C   UNL     1       1.220   3.648  20.206  0.00  0.00    +0.000 C 
BRANCH  10  16
ATOM     16  C   UNL     1       2.878   2.131  19.034  0.00  0.00    +0.000 C 
ATOM     17  O   UNL     1       3.417   1.519  18.122  0.00  0.00    +0.000 OA
BRANCH  16  19
ATOM     18  C   UNL     1       4.730   2.016  20.453  0.00  0.00    +0.000 C 
ATOM     19  O   UNL     1       3.311   2.122  20.326  0.00  0.00    +0.000 OA
ENDBRANCH  16  19
ENDBRANCH  10  16
ENDBRANCH   1  13
BRANCH   5  20
ATOM     20  C   UNL     1       0.811  11.178  19.631  0.00  0.00    +0.000 C 
BRANCH  20  21
ATOM     21  C   UNL     1      -0.683  11.345  19.417  0.00  0.00    +0.000 A 
ATOM     22  C   UNL     1      -1.324  10.704  18.343  0.00  0.00    +0.000 A 
ATOM     23  C   UNL     1      -2.666  10.964  18.059  0.00  0.00    +0.000 A 
ATOM     24  C   UNL     1      -3.372  11.855  18.857  0.00  0.00    +0.000 A 
ATOM     25  F   UNL     1      -4.644  12.148  18.552  0.00  0.00    +0.000 F 
ATOM     26  C   UNL     1      -2.774  12.458  19.957  0.00  0.00    +0.000 A 
ATOM     27  C   UNL     1      -1.429  12.205  20.238  0.00  0.00    +0.000 A 
ENDBRANCH  20  21
ENDBRANCH   5  20
TORSDOF 5
ENDMDL
MODEL 4
REMARK VINA RESULT:      -7.3      1.121      1.321
REMARK  Name = 
REMARK  6 active torsions:
REMARK  status: ('A' for Active; 'I' for Inactive)
REMARK    1  A    between atoms: C_1  and  O_2
REMARK    2  A    between atoms: O_2  and  C_3
REMARK    3  A    between atoms: C_3  and  C_5
REMARK    4  A    between atoms: N_8  and  C_9
REMARK    5  A    between atoms: N_13  and  C_14
REMARK    6  A    between atoms: C_14  and  C_15
REMARK                            x       y       z     vdW  Elec       q    Type
REMARK                         _______ _______ _______ _____ _____    ______ ____
ROOT
ATOM      1  C   UNL     1       2.176   6.945  19.366  0.00  0.00    +0.000 A 
ATOM      2  C   UNL     1       1.573   7.424  20.462  0.00  0.00    +0.000 A 
ATOM      3  C   UNL     1       1.102   8.822  20.528  0.00  0.00    +0.000 A 
ATOM      4  O   UNL     1       0.602   9.212  21.578  0.00  0.00    +0.000 OA
ATOM      5  N   UNL     1       1.273   9.588  19.401  0.00  0.00    +0.000 N 
ATOM      6  C   UNL     1       1.939   9.126  18.292  0.00  0.00    +0.000 A 
ATOM      7  O   UNL     1       2.191   9.806  17.297  0.00  0.00    +0.000 OA
ATOM      8  N   UNL     1       2.344   7.820  18.329  0.00  0.00    +0.000 N 
ATOM      9  H   UNL     1       2.783   7.490  17.483  0.00  0.00    +0.000 HD
ENDROOT
BRANCH   1  13
ATOM     10  C   UNL     1       3.948   3.499  17.817  0.00  0.00    +0.000 C 
ATOM     11  C   UNL     1       4.725   4.648  18.477  0.00  0.00    +0.000 C 
ATOM     12  C   UNL     1       3.973   5.210  19.683  0.00  0.00    +0.000 C 
ATOM     13  N   UNL     1       2.629   5.633  19.260  0.00  0.00    +0.000 N 
ATOM     14  C   UNL     1       1.815   4.533  18.719  0.00  0.00    +0.000 C 
ATOM     15  C   UNL     1       2.518   3.945  17.494  0.00  0.00    +0.000 C 
BRANCH  10  16
ATOM     16  C   UNL     1       3.976   2.259  18.701  0.00  0.00    +0.000 C 
ATOM     17  O   UNL     1       3.173   1.338  18.636  0.00  0.00    +0.000 OA
BRANCH  16  19
ATOM     18  C   UNL     1       4.690   1.709  20.856  0.00  0.00    +0.000 C 
ATOM     19  O   UNL     1       4.992   2.330  19.605  0.00  0.00    +0.000 OA
ENDBRANCH  16  19
ENDBRANCH  10  16
ENDBRANCH   1  13
BRANCH   5  20
ATOM     20  C   UNL     1       0.769  10.956  19.414  0.00  0.00    +0.000 C 
BRANCH  20  21
ATOM     21  C   UNL     1      -0.709  11.020  19.068  0.00  0.00    +0.000 A 
ATOM     22  C   UNL     1      -1.225  10.253  18.010  0.00  0.00    +0.000 A 
ATOM     23  C   UNL     1      -2.550  10.412  17.599  0.00  0.00    +0.000 A 
ATOM     24  C   UNL     1      -3.363  11.328  18.253  0.00  0.00    +0.000 A 
ATOM     25  F   UNL     1      -4.617  11.522  17.823  0.00  0.00    +0.000 F 
ATOM     26  C   UNL     1      -2.889  12.057  19.337  0.00  0.00    +0.000 A 
ATOM     27  C   UNL     1      -1.562  11.905  19.745  0.00  0.00    +0.000 A 
ENDBRANCH  20  21
ENDBRANCH   5  20
TORSDOF 5
ENDMDL
MODEL 5
REMARK VINA RESULT:      -7.3      1.268      2.103
REMARK  Name = 
REMARK  6 active torsions:
REMARK  status: ('A' for Active; 'I' for Inactive)
REMARK    1  A    between atoms: C_1  and  O_2
REMARK    2  A    between atoms: O_2  and  C_3
REMARK    3  A    between atoms: C_3  and  C_5
REMARK    4  A    between atoms: N_8  and  C_9
REMARK    5  A    between atoms: N_13  and  C_14
REMARK    6  A    between atoms: C_14  and  C_15
REMARK                            x       y       z     vdW  Elec       q    Type
REMARK                         _______ _______ _______ _____ _____    ______ ____
ROOT
ATOM      1  C   UNL     1       2.267   7.019  19.277  0.00  0.00    +0.000 A 
ATOM      2  C   UNL     1       2.376   7.877  18.254  0.00  0.00    +0.000 A 
ATOM      3  C   UNL     1       1.885   9.266  18.364  0.00  0.00    +0.000 A 
ATOM      4  O   UNL     1       1.970   9.986  17.374  0.00  0.00    +0.000 OA
ATOM      5  N   UNL     1       1.355   9.643  19.573  0.00  0.00    +0.000 N 
ATOM      6  C   UNL     1       1.186   8.758  20.611  0.00  0.00    +0.000 A 
ATOM      7  O   UNL     1       0.636   9.031  21.678  0.00  0.00    +0.000 OA
ATOM      8  N   UNL     1       1.666   7.493  20.411  0.00  0.00    +0.000 N 
ATOM      9  H   UNL     1       1.579   6.878  21.206  0.00  0.00    +0.000 HD
ENDROOT
BRANCH   1  13
ATOM     10  C   UNL     1       4.004   3.510  17.835  0.00  0.00    +0.000 C 
ATOM     11  C   UNL     1       4.796   4.691  18.415  0.00  0.00    +0.000 C 
ATOM     12  C   UNL     1       4.080   5.306  19.617  0.00  0.00    +0.000 C 
ATOM     13  N   UNL     1       2.722   5.705  19.219  0.00  0.00    +0.000 N 
ATOM     14  C   UNL     1       1.896   4.579  18.756  0.00  0.00    +0.000 C 
ATOM     15  C   UNL     1       2.562   3.936  17.538  0.00  0.00    +0.000 C 
BRANCH  10  16
ATOM     16  C   UNL     1       4.066   2.313  18.775  0.00  0.00    +0.000 C 
ATOM     17  O   UNL     1       3.364   1.315  18.680  0.00  0.00    +0.000 OA
BRANCH  16  19
ATOM     18  C   UNL     1       4.935   1.535  20.798  0.00  0.00    +0.000 C 
ATOM     19  O   UNL     1       4.981   2.517  19.762  0.00  0.00    +0.000 OA
ENDBRANCH  16  19
ENDBRANCH  10  16
ENDBRANCH   1  13
BRANCH   5  20
ATOM     20  C   UNL     1       0.911  11.023  19.731  0.00  0.00    +0.000 C 
BRANCH  20  21
ATOM     21  C   UNL     1      -0.572  11.178  19.441  0.00  0.00    +0.000 A 
ATOM     22  C   UNL     1      -1.174  10.448  18.403  0.00  0.00    +0.000 A 
ATOM     23  C   UNL     1      -2.500  10.689  18.041  0.00  0.00    +0.000 A 
ATOM     24  C   UNL     1      -3.231  11.652  18.726  0.00  0.00    +0.000 A 
ATOM     25  F   UNL     1      -4.486  11.925  18.343  0.00  0.00    +0.000 F 
ATOM     26  C   UNL     1      -2.672  12.348  19.792  0.00  0.00    +0.000 A 
ATOM     27  C   UNL     1      -1.342  12.113  20.150  0.00  0.00    +0.000 A 
ENDBRANCH  20  21
ENDBRANCH   5  20
TORSDOF 5
ENDMDL
MODEL 6
REMARK VINA RESULT:      -7.3      0.943      1.196
REMARK  Name = 
REMARK  6 active torsions:
REMARK  status: ('A' for Active; 'I' for Inactive)
REMARK    1  A    between atoms: C_1  and  O_2
REMARK    2  A    between atoms: O_2  and  C_3
REMARK    3  A    between atoms: C_3  and  C_5
REMARK    4  A    between atoms: N_8  and  C_9
REMARK    5  A    between atoms: N_13  and  C_14
REMARK    6  A    between atoms: C_14  and  C_15
REMARK                            x       y       z     vdW  Elec       q    Type
REMARK                         _______ _______ _______ _____ _____    ______ ____
ROOT
ATOM      1  C   UNL     1       2.155   7.605  19.482  0.00  0.00    +0.000 A 
ATOM      2  C   UNL     1       1.375   7.959  20.512  0.00  0.00    +0.000 A 
ATOM      3  C   UNL     1       0.662   9.252  20.523  0.00  0.00    +0.000 A 
ATOM      4  O   UNL     1       0.003   9.538  21.518  0.00  0.00    +0.000 OA
ATOM      5  N   UNL     1       0.803  10.048  19.413  0.00  0.00    +0.000 N 
ATOM      6  C   UNL     1       1.644   9.722  18.375  0.00  0.00    +0.000 A 
ATOM      7  O   UNL     1       1.866  10.445  17.405  0.00  0.00    +0.000 OA
ATOM      8  N   UNL     1       2.266   8.506  18.461  0.00  0.00    +0.000 N 
ATOM      9  H   UNL     1       2.834   8.267  17.663  0.00  0.00    +0.000 HD
ENDROOT
BRANCH   1  13
ATOM     10  C   UNL     1       3.214   3.720  18.383  0.00  0.00    +0.000 C 
ATOM     11  C   UNL     1       3.585   4.977  17.581  0.00  0.00    +0.000 C 
ATOM     12  C   UNL     1       3.953   6.139  18.504  0.00  0.00    +0.000 C 
ATOM     13  N   UNL     1       2.838   6.393  19.429  0.00  0.00    +0.000 N 
ATOM     14  C   UNL     1       2.522   5.243  20.291  0.00  0.00    +0.000 C 
ATOM     15  C   UNL     1       2.129   4.053  19.413  0.00  0.00    +0.000 C 
BRANCH  10  16
ATOM     16  C   UNL     1       4.453   3.115  19.030  0.00  0.00    +0.000 C 
ATOM     17  O   UNL     1       5.546   3.662  19.091  0.00  0.00    +0.000 OA
BRANCH  16  19
ATOM     18  C   UNL     1       4.658   1.644  20.833  0.00  0.00    +0.000 C 
ATOM     19  O   UNL     1       4.193   1.863  19.500  0.00  0.00    +0.000 OA
ENDBRANCH  16  19
ENDBRANCH  10  16
ENDBRANCH   1  13
BRANCH   5  20
ATOM     20  C   UNL     1       0.069  11.307  19.369  0.00  0.00    +0.000 C 
BRANCH  20  21
ATOM     21  C   UNL     1      -1.353  11.116  18.869  0.00  0.00    +0.000 A 
ATOM     22  C   UNL     1      -1.638  10.160  17.880  0.00  0.00    +0.000 A 
ATOM     23  C   UNL     1      -2.913  10.078  17.318  0.00  0.00    +0.000 A 
ATOM     24  C   UNL     1      -3.909  10.942  17.754  0.00  0.00    +0.000 A 
ATOM     25  F   UNL     1      -5.117  10.901  17.177  0.00  0.00    +0.000 F 
ATOM     26  C   UNL     1      -3.664  11.858  18.771  0.00  0.00    +0.000 A 
ATOM     27  C   UNL     1      -2.387  11.948  19.328  0.00  0.00    +0.000 A 
ENDBRANCH  20  21
ENDBRANCH   5  20
TORSDOF 5
ENDMDL
MODEL 7
REMARK VINA RESULT:      -7.2      1.015      1.107
REMARK  Name = 
REMARK  6 active torsions:
REMARK  status: ('A' for Active; 'I' for Inactive)
REMARK    1  A    between atoms: C_1  and  O_2
REMARK    2  A    between atoms: O_2  and  C_3
REMARK    3  A    between atoms: C_3  and  C_5
REMARK    4  A    between atoms: N_8  and  C_9
REMARK    5  A    between atoms: N_13  and  C_14
REMARK    6  A    between atoms: C_14  and  C_15
REMARK                            x       y       z     vdW  Elec       q    Type
REMARK                         _______ _______ _______ _____ _____    ______ ____
ROOT
ATOM      1  C   UNL     1       1.856   7.545  19.888  0.00  0.00    +0.000 A 
ATOM      2  C   UNL     1       1.282   8.187  20.914  0.00  0.00    +0.000 A 
ATOM      3  C   UNL     1       0.837   9.589  20.788  0.00  0.00    +0.000 A 
ATOM      4  O   UNL     1       0.364  10.135  21.779  0.00  0.00    +0.000 OA
ATOM      5  N   UNL     1       0.999  10.183  19.560  0.00  0.00    +0.000 N 
ATOM      6  C   UNL     1       1.637   9.555  18.517  0.00  0.00    +0.000 A 
ATOM      7  O   UNL     1       1.881  10.081  17.431  0.00  0.00    +0.000 OA
ATOM      8  N   UNL     1       2.019   8.260  18.734  0.00  0.00    +0.000 N 
ATOM      9  H   UNL     1       2.435   7.804  17.937  0.00  0.00    +0.000 HD
ENDROOT
BRANCH   1  13
ATOM     10  C   UNL     1       2.012   3.413  19.320  0.00  0.00    +0.000 C 
ATOM     11  C   UNL     1       2.518   4.446  18.301  0.00  0.00    +0.000 C 
ATOM     12  C   UNL     1       3.209   5.620  18.992  0.00  0.00    +0.000 C 
ATOM     13  N   UNL     1       2.284   6.222  19.964  0.00  0.00    +0.000 N 
ATOM     14  C   UNL     1       1.859   5.290  21.020  0.00  0.00    +0.000 C 
ATOM     15  C   UNL     1       1.143   4.100  20.379  0.00  0.00    +0.000 C 
BRANCH  10  16
ATOM     16  C   UNL     1       3.181   2.658  19.939  0.00  0.00    +0.000 C 
ATOM     17  O   UNL     1       3.282   2.382  21.126  0.00  0.00    +0.000 OA
BRANCH  16  19
ATOM     18  C   UNL     1       3.905   1.113  18.344  0.00  0.00    +0.000 C 
ATOM     19  O   UNL     1       4.122   2.364  18.999  0.00  0.00    +0.000 OA
ENDBRANCH  16  19
ENDBRANCH  10  16
ENDBRANCH   1  13
BRANCH   5  20
ATOM     20  C   UNL     1       0.520  11.550  19.385  0.00  0.00    +0.000 C 
BRANCH  20  21
ATOM     21  C   UNL     1      -0.988  11.603  19.214  0.00  0.00    +0.000 A 
ATOM     22  C   UNL     1      -1.606  10.950  18.135  0.00  0.00    +0.000 A 
ATOM     23  C   UNL     1      -2.971  11.112  17.894  0.00  0.00    +0.000 A 
ATOM     24  C   UNL     1      -3.724  11.916  18.740  0.00  0.00    +0.000 A 
ATOM     25  F   UNL     1      -5.022  12.117  18.477  0.00  0.00    +0.000 F 
ATOM     26  C   UNL     1      -3.144  12.528  19.846  0.00  0.00    +0.000 A 
ATOM     27  C   UNL     1      -1.776  12.374  20.084  0.00  0.00    +0.000 A 
ENDBRANCH  20  21
ENDBRANCH   5  20
TORSDOF 5
ENDMDL
MODEL 8
REMARK VINA RESULT:      -7.2      0.949      2.037
REMARK  Name = 
REMARK  6 active torsions:
REMARK  status: ('A' for Active; 'I' for Inactive)
REMARK    1  A    between atoms: C_1  and  O_2
REMARK    2  A    between atoms: O_2  and  C_3
REMARK    3  A    between atoms: C_3  and  C_5
REMARK    4  A    between atoms: N_8  and  C_9
REMARK    5  A    between atoms: N_13  and  C_14
REMARK    6  A    between atoms: C_14  and  C_15
REMARK                            x       y       z     vdW  Elec       q    Type
REMARK                         _______ _______ _______ _____ _____    ______ ____
ROOT
ATOM      1  C   UNL     1       1.955   7.386  19.807  0.00  0.00    +0.000 A 
ATOM      2  C   UNL     1       2.187   8.038  18.661  0.00  0.00    +0.000 A 
ATOM      3  C   UNL     1       1.736   9.431  18.467  0.00  0.00    +0.000 A 
ATOM      4  O   UNL     1       1.936   9.955  17.377  0.00  0.00    +0.000 OA
ATOM      5  N   UNL     1       1.109  10.033  19.531  0.00  0.00    +0.000 N 
ATOM      6  C   UNL     1       0.815   9.357  20.691  0.00  0.00    +0.000 A 
ATOM      7  O   UNL     1       0.179   9.832  21.632  0.00  0.00    +0.000 OA
ATOM      8  N   UNL     1       1.268   8.069  20.772  0.00  0.00    +0.000 N 
ATOM      9  H   UNL     1       1.088   7.614  21.653  0.00  0.00    +0.000 HD
ENDROOT
BRANCH   1  13
ATOM     10  C   UNL     1       2.387   3.257  19.373  0.00  0.00    +0.000 C 
ATOM     11  C   UNL     1       3.165   4.299  18.555  0.00  0.00    +0.000 C 
ATOM     12  C   UNL     1       3.571   5.495  19.415  0.00  0.00    +0.000 C 
ATOM     13  N   UNL     1       2.369   6.076  20.033  0.00  0.00    +0.000 N 
ATOM     14  C   UNL     1       1.653   5.137  20.912  0.00  0.00    +0.000 C 
ATOM     15  C   UNL     1       1.209   3.924  20.092  0.00  0.00    +0.000 C 
BRANCH  10  16
ATOM     16  C   UNL     1       3.316   2.538  20.343  0.00  0.00    +0.000 C 
ATOM     17  O   UNL     1       3.188   2.535  21.559  0.00  0.00    +0.000 OA
BRANCH  16  19
ATOM     18  C   UNL     1       3.897   1.051  18.638  0.00  0.00    +0.000 C 
ATOM     19  O   UNL     1       4.336   1.928  19.676  0.00  0.00    +0.000 OA
ENDBRANCH  16  19
ENDBRANCH  10  16
ENDBRANCH   1  13
BRANCH   5  20
ATOM     20  C   UNL     1       0.699  11.426  19.392  0.00  0.00    +0.000 C 
BRANCH  20  21
ATOM     21  C   UNL     1      -0.783  11.553  19.085  0.00  0.00    +0.000 A 
ATOM     22  C   UNL     1      -1.597  12.408  19.847  0.00  0.00    +0.000 A 
ATOM     23  C   UNL     1      -2.980  12.423  19.662  0.00  0.00    +0.000 A 
ATOM     24  C   UNL     1      -3.550  11.594  18.705  0.00  0.00    +0.000 A 
ATOM     25  F   UNL     1      -4.883  11.566  18.565  0.00  0.00    +0.000 F 
ATOM     26  C   UNL     1      -2.759  10.780  17.903  0.00  0.00    +0.000 A 
ATOM     27  C   UNL     1      -1.375  10.757  18.092  0.00  0.00    +0.000 A 
ENDBRANCH  20  21
ENDBRANCH   5  20
TORSDOF 5
ENDMDL
MODEL 9
REMARK VINA RESULT:      -7.2      2.438      3.207
REMARK  Name = 
REMARK  6 active torsions:
REMARK  status: ('A' for Active; 'I' for Inactive)
REMARK    1  A    between atoms: C_1  and  O_2
REMARK    2  A    between atoms: O_2  and  C_3
REMARK    3  A    between atoms: C_3  and  C_5
REMARK    4  A    between atoms: N_8  and  C_9
REMARK    5  A    between atoms: N_13  and  C_14
REMARK    6  A    between atoms: C_14  and  C_15
REMARK                            x       y       z     vdW  Elec       q    Type
REMARK                         _______ _______ _______ _____ _____    ______ ____
ROOT
ATOM      1  C   UNL     1       1.680   7.911  20.230  0.00  0.00    +0.000 A 
ATOM      2  C   UNL     1       1.414   8.838  19.300  0.00  0.00    +0.000 A 
ATOM      3  C   UNL     1       0.994  10.203  19.679  0.00  0.00    +0.000 A 
ATOM      4  O   UNL     1       0.717  10.990  18.780  0.00  0.00    +0.000 OA
ATOM      5  N   UNL     1       0.933  10.483  21.022  0.00  0.00    +0.000 N 
ATOM      6  C   UNL     1       1.149   9.526  21.984  0.00  0.00    +0.000 A 
ATOM      7  O   UNL     1       1.020   9.712  23.194  0.00  0.00    +0.000 OA
ATOM      8  N   UNL     1       1.526   8.290  21.534  0.00  0.00    +0.000 N 
ATOM      9  H   UNL     1       1.731   7.622  22.261  0.00  0.00    +0.000 HD
ENDROOT
BRANCH   1  13
ATOM     10  C   UNL     1       1.577   3.973  18.851  0.00  0.00    +0.000 C 
ATOM     11  C   UNL     1       1.774   5.200  17.948  0.00  0.00    +0.000 C 
ATOM     12  C   UNL     1       2.664   6.247  18.616  0.00  0.00    +0.000 C 
ATOM     13  N   UNL     1       2.084   6.616  19.916  0.00  0.00    +0.000 N 
ATOM     14  C   UNL     1       1.978   5.483  20.850  0.00  0.00    +0.000 C 
ATOM     15  C   UNL     1       1.079   4.409  20.233  0.00  0.00    +0.000 C 
BRANCH  10  16
ATOM     16  C   UNL     1       2.863   3.161  18.935  0.00  0.00    +0.000 C 
ATOM     17  O   UNL     1       3.243   2.558  19.929  0.00  0.00    +0.000 OA
BRANCH  16  19
ATOM     18  C   UNL     1       4.935   3.561  17.934  0.00  0.00    +0.000 C 
ATOM     19  O   UNL     1       3.557   3.227  17.764  0.00  0.00    +0.000 OA
ENDBRANCH  16  19
ENDBRANCH  10  16
ENDBRANCH   1  13
BRANCH   5  20
ATOM     20  C   UNL     1       0.575  11.837  21.428  0.00  0.00    +0.000 C 
BRANCH  20  21
ATOM     21  C   UNL     1      -0.918  11.980  21.669  0.00  0.00    +0.000 A 
ATOM     22  C   UNL     1      -1.777  12.342  20.618  0.00  0.00    +0.000 A 
ATOM     23  C   UNL     1      -3.124  12.611  20.863  0.00  0.00    +0.000 A 
ATOM     24  C   UNL     1      -3.618  12.506  22.157  0.00  0.00    +0.000 A 
ATOM     25  F   UNL     1      -4.898  12.818  22.402  0.00  0.00    +0.000 F 
ATOM     26  C   UNL     1      -2.799  12.097  23.203  0.00  0.00    +0.000 A 
ATOM     27  C   UNL     1      -1.448  11.835  22.961  0.00  0.00    +0.000 A 
ENDBRANCH  20  21
ENDBRANCH   5  20
TORSDOF 5
ENDMDL
