MODEL 1
REMARK VINA RESULT:      -6.9      0.000      0.000
REMARK  Name = 
REMARK  1 active torsions:
REMARK  status: ('A' for Active; 'I' for Inactive)
REMARK    1  A    between atoms: C_1  and  N_2
REMARK                            x       y       z     vdW  Elec       q    Type
REMARK                         _______ _______ _______ _____ _____    ______ ____
ROOT
ATOM      1  C   UNL     1       7.223   5.091  15.866  0.00  0.00    +0.000 C 
ATOM      2  N   UNL     1       6.072   5.026  16.784  0.00  0.00    +0.000 NA
ATOM      3  C   UNL     1       6.566   4.672  18.134  0.00  0.00    +0.000 C 
ATOM      4  C   UNL     1       5.415   4.541  19.133  0.00  0.00    +0.000 C 
ATOM      5  C   UNL     1       4.413   3.483  18.632  0.00  0.00    +0.000 C 
ATOM      6  C   UNL     1       3.270   3.340  19.611  0.00  0.00    +0.000 A 
ATOM      7  C   UNL     1       3.493   2.647  20.813  0.00  0.00    +0.000 A 
ATOM      8  C   UNL     1       2.448   2.435  21.713  0.00  0.00    +0.000 A 
ATOM      9  C   UNL     1       1.171   2.919  21.425  0.00  0.00    +0.000 A 
ATOM     10  C   UNL     1       0.938   3.626  20.242  0.00  0.00    +0.000 A 
ATOM     11  C   UNL     1       1.981   3.855  19.331  0.00  0.00    +0.000 A 
ATOM     12  C   UNL     1       1.685   4.629  18.056  0.00  0.00    +0.000 C 
ATOM     13  C   UNL     1       2.944   5.014  17.255  0.00  0.00    +0.000 C 
ATOM     14  C   UNL     1       3.908   3.820  17.209  0.00  0.00    +0.000 C 
ATOM     15  C   UNL     1       5.120   4.014  16.276  0.00  0.00    +0.000 C 
ENDROOT
TORSDOF 0
ENDMDL
MODEL 2
REMARK VINA RESULT:      -6.9      1.846      2.164
REMARK  Name = 
REMARK  1 active torsions:
REMARK  status: ('A' for Active; 'I' for Inactive)
REMARK    1  A    between atoms: C_1  and  N_2
REMARK                            x       y       z     vdW  Elec       q    Type
REMARK                         _______ _______ _______ _____ _____    ______ ____
ROOT
ATOM      1  C   UNL     1       7.817   7.667  17.493  0.00  0.00    +0.000 C 
ATOM      2  N   UNL     1       6.593   6.961  17.912  0.00  0.00    +0.000 NA
ATOM      3  C   UNL     1       6.976   5.653  18.487  0.00  0.00    +0.000 C 
ATOM      4  C   UNL     1       5.747   4.843  18.903  0.00  0.00    +0.000 C 
ATOM      5  C   UNL     1       4.821   4.647  17.686  0.00  0.00    +0.000 C 
ATOM      6  C   UNL     1       3.601   3.846  18.081  0.00  0.00    +0.000 A 
ATOM      7  C   UNL     1       3.737   2.460  18.277  0.00  0.00    +0.000 A 
ATOM      8  C   UNL     1       2.624   1.675  18.577  0.00  0.00    +0.000 A 
ATOM      9  C   UNL     1       1.365   2.264  18.690  0.00  0.00    +0.000 A 
ATOM     10  C   UNL     1       1.216   3.643  18.516  0.00  0.00    +0.000 A 
ATOM     11  C   UNL     1       2.329   4.449  18.223  0.00  0.00    +0.000 A 
ATOM     12  C   UNL     1       2.124   5.945  18.041  0.00  0.00    +0.000 C 
ATOM     13  C   UNL     1       3.437   6.747  17.955  0.00  0.00    +0.000 C 
ATOM     14  C   UNL     1       4.433   6.004  17.053  0.00  0.00    +0.000 C 
ATOM     15  C   UNL     1       5.716   6.797  16.732  0.00  0.00    +0.000 C 
ENDROOT
TORSDOF 0
ENDMDL
MODEL 3
REMARK VINA RESULT:      -6.9      1.998      5.315
REMARK  Name = 
REMARK  1 active torsions:
REMARK  status: ('A' for Active; 'I' for Inactive)
REMARK    1  A    between atoms: C_1  and  N_2
REMARK                            x       y       z     vdW  Elec       q    Type
REMARK                         _______ _______ _______ _____ _____    ______ ____
ROOT
ATOM      1  C   UNL     1       1.075   2.890  20.963  0.00  0.00    +0.000 C 
ATOM      2  N   UNL     1       1.718   3.522  19.797  0.00  0.00    +0.000 NA
ATOM      3  C   UNL     1       1.997   2.476  18.789  0.00  0.00    +0.000 C 
ATOM      4  C   UNL     1       2.709   3.055  17.565  0.00  0.00    +0.000 C 
ATOM      5  C   UNL     1       4.017   3.742  18.005  0.00  0.00    +0.000 C 
ATOM      6  C   UNL     1       4.734   4.318  16.805  0.00  0.00    +0.000 A 
ATOM      7  C   UNL     1       5.413   3.444  15.940  0.00  0.00    +0.000 A 
ATOM      8  C   UNL     1       6.143   3.941  14.859  0.00  0.00    +0.000 A 
ATOM      9  C   UNL     1       6.196   5.315  14.628  0.00  0.00    +0.000 A 
ATOM     10  C   UNL     1       5.511   6.197  15.469  0.00  0.00    +0.000 A 
ATOM     11  C   UNL     1       4.765   5.712  16.555  0.00  0.00    +0.000 A 
ATOM     12  C   UNL     1       4.034   6.704  17.445  0.00  0.00    +0.000 C 
ATOM     13  C   UNL     1       3.072   6.045  18.453  0.00  0.00    +0.000 C 
ATOM     14  C   UNL     1       3.749   4.819  19.082  0.00  0.00    +0.000 C 
ATOM     15  C   UNL     1       2.962   4.184  20.246  0.00  0.00    +0.000 C 
ENDROOT
TORSDOF 0
ENDMDL
MODEL 4
REMARK VINA RESULT:      -6.9      1.624      5.500
REMARK  Name = 
REMARK  1 active torsions:
REMARK  status: ('A' for Active; 'I' for Inactive)
REMARK    1  A    between atoms: C_1  and  N_2
REMARK                            x       y       z     vdW  Elec       q    Type
REMARK                         _______ _______ _______ _____ _____    ______ ____
ROOT
ATOM      1  C   UNL     1       1.083   3.017  20.680  0.00  0.00    +0.000 C 
ATOM      2  N   UNL     1       2.092   3.658  19.817  0.00  0.00    +0.000 NA
ATOM      3  C   UNL     1       1.680   3.490  18.406  0.00  0.00    +0.000 C 
ATOM      4  C   UNL     1       2.709   4.093  17.448  0.00  0.00    +0.000 C 
ATOM      5  C   UNL     1       4.085   3.441  17.689  0.00  0.00    +0.000 C 
ATOM      6  C   UNL     1       5.113   4.025  16.747  0.00  0.00    +0.000 A 
ATOM      7  C   UNL     1       5.095   3.631  15.398  0.00  0.00    +0.000 A 
ATOM      8  C   UNL     1       6.067   4.095  14.511  0.00  0.00    +0.000 A 
ATOM      9  C   UNL     1       7.063   4.963  14.960  0.00  0.00    +0.000 A 
ATOM     10  C   UNL     1       7.083   5.379  16.295  0.00  0.00    +0.000 A 
ATOM     11  C   UNL     1       6.107   4.928  17.198  0.00  0.00    +0.000 A 
ATOM     12  C   UNL     1       6.165   5.404  18.640  0.00  0.00    +0.000 C 
ATOM     13  C   UNL     1       4.921   5.031  19.470  0.00  0.00    +0.000 C 
ATOM     14  C   UNL     1       4.519   3.580  19.167  0.00  0.00    +0.000 C 
ATOM     15  C   UNL     1       3.404   3.024  20.075  0.00  0.00    +0.000 C 
ENDROOT
TORSDOF 0
ENDMDL
MODEL 5
REMARK VINA RESULT:      -6.8      2.130      5.139
REMARK  Name = 
REMARK  1 active torsions:
REMARK  status: ('A' for Active; 'I' for Inactive)
REMARK    1  A    between atoms: C_1  and  N_2
REMARK                            x       y       z     vdW  Elec       q    Type
REMARK                         _______ _______ _______ _____ _____    ______ ____
ROOT
ATOM      1  C   UNL     1       1.238   2.539  21.054  0.00  0.00    +0.000 C 
ATOM      2  N   UNL     1       2.156   3.240  20.140  0.00  0.00    +0.000 NA
ATOM      3  C   UNL     1       3.514   2.678  20.314  0.00  0.00    +0.000 C 
ATOM      4  C   UNL     1       4.533   3.393  19.425  0.00  0.00    +0.000 C 
ATOM      5  C   UNL     1       4.529   4.901  19.744  0.00  0.00    +0.000 C 
ATOM      6  C   UNL     1       5.534   5.623  18.875  0.00  0.00    +0.000 A 
ATOM      7  C   UNL     1       6.901   5.500  19.178  0.00  0.00    +0.000 A 
ATOM      8  C   UNL     1       7.855   6.203  18.441  0.00  0.00    +0.000 A 
ATOM      9  C   UNL     1       7.456   7.029  17.391  0.00  0.00    +0.000 A 
ATOM     10  C   UNL     1       6.102   7.147  17.065  0.00  0.00    +0.000 A 
ATOM     11  C   UNL     1       5.129   6.439  17.791  0.00  0.00    +0.000 A 
ATOM     12  C   UNL     1       3.667   6.594  17.404  0.00  0.00    +0.000 C 
ATOM     13  C   UNL     1       2.727   5.602  18.114  0.00  0.00    +0.000 C 
ATOM     14  C   UNL     1       3.111   5.501  19.596  0.00  0.00    +0.000 C 
ATOM     15  C   UNL     1       2.125   4.685  20.457  0.00  0.00    +0.000 C 
ENDROOT
TORSDOF 0
ENDMDL
MODEL 6
REMARK VINA RESULT:      -6.7      1.488      2.101
REMARK  Name = 
REMARK  1 active torsions:
REMARK  status: ('A' for Active; 'I' for Inactive)
REMARK    1  A    between atoms: C_1  and  N_2
REMARK                            x       y       z     vdW  Elec       q    Type
REMARK                         _______ _______ _______ _____ _____    ______ ____
ROOT
ATOM      1  C   UNL     1       7.059   5.123  14.895  0.00  0.00    +0.000 C 
ATOM      2  N   UNL     1       6.191   4.860  16.057  0.00  0.00    +0.000 NA
ATOM      3  C   UNL     1       5.620   3.502  15.922  0.00  0.00    +0.000 C 
ATOM      4  C   UNL     1       4.669   3.178  17.076  0.00  0.00    +0.000 C 
ATOM      5  C   UNL     1       3.546   4.232  17.131  0.00  0.00    +0.000 C 
ATOM      6  C   UNL     1       2.595   3.925  18.266  0.00  0.00    +0.000 A 
ATOM      7  C   UNL     1       1.680   2.869  18.113  0.00  0.00    +0.000 A 
ATOM      8  C   UNL     1       0.742   2.595  19.109  0.00  0.00    +0.000 A 
ATOM      9  C   UNL     1       0.712   3.368  20.270  0.00  0.00    +0.000 A 
ATOM     10  C   UNL     1       1.628   4.409  20.445  0.00  0.00    +0.000 A 
ATOM     11  C   UNL     1       2.584   4.692  19.456  0.00  0.00    +0.000 A 
ATOM     12  C   UNL     1       3.562   5.833  19.685  0.00  0.00    +0.000 C 
ATOM     13  C   UNL     1       4.699   5.897  18.647  0.00  0.00    +0.000 C 
ATOM     14  C   UNL     1       4.125   5.663  17.243  0.00  0.00    +0.000 C 
ATOM     15  C   UNL     1       5.130   5.891  16.097  0.00  0.00    +0.000 C 
ENDROOT
TORSDOF 0
ENDMDL
MODEL 7
REMARK VINA RESULT:      -6.5      1.696      2.016
REMARK  Name = 
REMARK  1 active torsions:
REMARK  status: ('A' for Active; 'I' for Inactive)
REMARK    1  A    between atoms: C_1  and  N_2
REMARK                            x       y       z     vdW  Elec       q    Type
REMARK                         _______ _______ _______ _____ _____    ______ ____
ROOT
ATOM      1  C   UNL     1       7.485   6.971  17.115  0.00  0.00    +0.000 C 
ATOM      2  N   UNL     1       6.366   6.322  17.821  0.00  0.00    +0.000 NA
ATOM      3  C   UNL     1       6.542   4.855  17.738  0.00  0.00    +0.000 C 
ATOM      4  C   UNL     1       5.387   4.114  18.413  0.00  0.00    +0.000 C 
ATOM      5  C   UNL     1       4.053   4.534  17.764  0.00  0.00    +0.000 C 
ATOM      6  C   UNL     1       2.901   3.808  18.419  0.00  0.00    +0.000 A 
ATOM      7  C   UNL     1       2.693   2.452  18.111  0.00  0.00    +0.000 A 
ATOM      8  C   UNL     1       1.602   1.764  18.642  0.00  0.00    +0.000 A 
ATOM      9  C   UNL     1       0.711   2.419  19.492  0.00  0.00    +0.000 A 
ATOM     10  C   UNL     1       0.914   3.762  19.823  0.00  0.00    +0.000 A 
ATOM     11  C   UNL     1       2.013   4.467  19.303  0.00  0.00    +0.000 A 
ATOM     12  C   UNL     1       2.197   5.926  19.688  0.00  0.00    +0.000 C 
ATOM     13  C   UNL     1       3.549   6.519  19.248  0.00  0.00    +0.000 C 
ATOM     14  C   UNL     1       3.865   6.069  17.815  0.00  0.00    +0.000 C 
ATOM     15  C   UNL     1       5.098   6.750  17.189  0.00  0.00    +0.000 C 
ENDROOT
TORSDOF 0
ENDMDL
MODEL 8
REMARK VINA RESULT:      -6.4      3.001      4.764
REMARK  Name = 
REMARK  1 active torsions:
REMARK  status: ('A' for Active; 'I' for Inactive)
REMARK    1  A    between atoms: C_1  and  N_2
REMARK                            x       y       z     vdW  Elec       q    Type
REMARK                         _______ _______ _______ _____ _____    ______ ____
ROOT
ATOM      1  C   UNL     1       3.638   1.442  18.484  0.00  0.00    +0.000 C 
ATOM      2  N   UNL     1       2.985   2.742  18.719  0.00  0.00    +0.000 NA
ATOM      3  C   UNL     1       2.822   3.429  17.418  0.00  0.00    +0.000 C 
ATOM      4  C   UNL     1       2.190   4.811  17.591  0.00  0.00    +0.000 C 
ATOM      5  C   UNL     1       3.055   5.660  18.544  0.00  0.00    +0.000 C 
ATOM      6  C   UNL     1       2.445   7.031  18.724  0.00  0.00    +0.000 A 
ATOM      7  C   UNL     1       2.566   7.967  17.682  0.00  0.00    +0.000 A 
ATOM      8  C   UNL     1       2.075   9.264  17.834  0.00  0.00    +0.000 A 
ATOM      9  C   UNL     1       1.452   9.638  19.024  0.00  0.00    +0.000 A 
ATOM     10  C   UNL     1       1.307   8.714  20.062  0.00  0.00    +0.000 A 
ATOM     11  C   UNL     1       1.787   7.401  19.922  0.00  0.00    +0.000 A 
ATOM     12  C   UNL     1       1.609   6.427  21.074  0.00  0.00    +0.000 C 
ATOM     13  C   UNL     1       1.964   4.970  20.719  0.00  0.00    +0.000 C 
ATOM     14  C   UNL     1       3.262   4.944  19.900  0.00  0.00    +0.000 C 
ATOM     15  C   UNL     1       3.827   3.532  19.644  0.00  0.00    +0.000 C 
ENDROOT
TORSDOF 0
ENDMDL
MODEL 9
REMARK VINA RESULT:      -6.3      1.557      2.250
REMARK  Name = 
REMARK  1 active torsions:
REMARK  status: ('A' for Active; 'I' for Inactive)
REMARK    1  A    between atoms: C_1  and  N_2
REMARK                            x       y       z     vdW  Elec       q    Type
REMARK                         _______ _______ _______ _____ _____    ______ ____
ROOT
ATOM      1  C   UNL     1       7.392   7.223  16.980  0.00  0.00    +0.000 C 
ATOM      2  N   UNL     1       6.189   6.387  17.144  0.00  0.00    +0.000 NA
ATOM      3  C   UNL     1       5.122   7.211  17.755  0.00  0.00    +0.000 C 
ATOM      4  C   UNL     1       3.853   6.392  17.997  0.00  0.00    +0.000 C 
ATOM      5  C   UNL     1       4.182   5.182  18.895  0.00  0.00    +0.000 C 
ATOM      6  C   UNL     1       2.936   4.363  19.146  0.00  0.00    +0.000 A 
ATOM      7  C   UNL     1       1.977   4.852  20.050  0.00  0.00    +0.000 A 
ATOM      8  C   UNL     1       0.846   4.096  20.360  0.00  0.00    +0.000 A 
ATOM      9  C   UNL     1       0.657   2.848  19.765  0.00  0.00    +0.000 A 
ATOM     10  C   UNL     1       1.592   2.357  18.849  0.00  0.00    +0.000 A 
ATOM     11  C   UNL     1       2.731   3.110  18.520  0.00  0.00    +0.000 A 
ATOM     12  C   UNL     1       3.723   2.540  17.519  0.00  0.00    +0.000 C 
ATOM     13  C   UNL     1       4.800   3.546  17.068  0.00  0.00    +0.000 C 
ATOM     14  C   UNL     1       5.316   4.325  18.286  0.00  0.00    +0.000 C 
ATOM     15  C   UNL     1       6.532   5.228  17.997  0.00  0.00    +0.000 C 
ENDROOT
TORSDOF 0
ENDMDL
