MODEL 1
REMARK VINA RESULT:      -8.7      0.000      0.000
REMARK  Name = 
REMARK  9 active torsions:
REMARK  status: ('A' for Active; 'I' for Inactive)
REMARK    1  A    between atoms: C_1  and  C_2
REMARK    2  A    between atoms: C_4  and  C_5
REMARK    3  A    between atoms: C_7  and  S_8
REMARK    4  A    between atoms: S_8  and  C_9
REMARK    5  A    between atoms: C_9  and  C_10
REMARK    6  A    between atoms: C_14  and  O_15
REMARK    7  A    between atoms: O_15  and  C_16
REMARK    8  A    between atoms: C_16  and  C_18
REMARK    9  A    between atoms: C_22  and  N_23
REMARK                            x       y       z     vdW  Elec       q    Type
REMARK                         _______ _______ _______ _____ _____    ______ ____
ROOT
ATOM      1  C   UNL     1       7.957   8.164  17.967  0.00  0.00    +0.000 A 
ATOM      2  C   UNL     1       8.328   7.294  18.921  0.00  0.00    +0.000 A 
ATOM      3  C   UNL     1       7.819   5.900  18.890  0.00  0.00    +0.000 A 
ATOM      4  O   UNL     1       8.281   5.048  19.641  0.00  0.00    +0.000 OA
ATOM      5  C   UNL     1       6.787   5.591  17.862  0.00  0.00    +0.000 A 
ATOM      6  C   UNL     1       6.531   6.543  16.957  0.00  0.00    +0.000 A 
ATOM      7  O   UNL     1       7.104   7.795  16.930  0.00  0.00    +0.000 OA
ENDROOT
BRANCH   1   8
ATOM      8  C   UNL     1       8.463   9.594  17.897  0.00  0.00    +0.000 C 
BRANCH   8   9
ATOM      9  S   UNL     1       9.150  10.087  19.508  0.00  0.00    +0.000 S 
BRANCH   9  16
ATOM     10  C   UNL     1      11.482  13.388  16.335  0.00  0.00    +0.000 C 
ATOM     11  C   UNL     1      10.886  13.129  17.689  0.00  0.00    +0.000 A 
ATOM     12  C   UNL     1      10.936  14.106  18.667  0.00  0.00    +0.000 A 
ATOM     13  C   UNL     1      10.369  13.788  19.885  0.00  0.00    +0.000 A 
ATOM     14  C   UNL     1      10.356  14.776  21.013  0.00  0.00    +0.000 C 
ATOM     15  N   UNL     1       9.809  12.586  20.122  0.00  0.00    +0.000 NA
ATOM     16  C   UNL     1       9.808  11.692  19.117  0.00  0.00    +0.000 A 
ATOM     17  N   UNL     1      10.322  11.917  17.893  0.00  0.00    +0.000 NA
ENDBRANCH   9  16
ENDBRANCH   8   9
ENDBRANCH   1   8
BRANCH   5  18
ATOM     18  O   UNL     1       6.186   4.315  17.781  0.00  0.00    +0.000 OA
BRANCH  18  19
ATOM     19  C   UNL     1       5.030   4.279  17.053  0.00  0.00    +0.000 C 
ATOM     20  O   UNL     1       4.928   4.377  15.839  0.00  0.00    +0.000 OA
BRANCH  19  21
ATOM     21  C   UNL     1       3.849   3.992  17.932  0.00  0.00    +0.000 A 
ATOM     22  C   UNL     1       2.566   4.199  17.389  0.00  0.00    +0.000 A 
ATOM     23  C   UNL     1       1.411   3.928  18.133  0.00  0.00    +0.000 A 
ATOM     24  C   UNL     1       1.519   3.447  19.435  0.00  0.00    +0.000 A 
ATOM     25  C   UNL     1       2.790   3.238  19.986  0.00  0.00    +0.000 A 
ATOM     26  C   UNL     1       3.958   3.506  19.244  0.00  0.00    +0.000 A 
BRANCH  25  27
ATOM     27  N   UNL     1       2.897   2.721  21.358  0.00  0.00    +0.000 N 
ATOM     28  O   UNL     1       2.034   3.070  22.176  0.00  0.00    +0.000 OA
ATOM     29  O   UNL     1       3.842   1.960  21.613  0.00  0.00    +0.000 OA
ENDBRANCH  25  27
ENDBRANCH  19  21
ENDBRANCH  18  19
ENDBRANCH   5  18
TORSDOF 7
ENDMDL
MODEL 2
REMARK VINA RESULT:      -8.5      5.443      8.465
REMARK  Name = 
REMARK  9 active torsions:
REMARK  status: ('A' for Active; 'I' for Inactive)
REMARK    1  A    between atoms: C_1  and  C_2
REMARK    2  A    between atoms: C_4  and  C_5
REMARK    3  A    between atoms: C_7  and  S_8
REMARK    4  A    between atoms: S_8  and  C_9
REMARK    5  A    between atoms: C_9  and  C_10
REMARK    6  A    between atoms: C_14  and  O_15
REMARK    7  A    between atoms: O_15  and  C_16
REMARK    8  A    between atoms: C_16  and  C_18
REMARK    9  A    between atoms: C_22  and  N_23
REMARK                            x       y       z     vdW  Elec       q    Type
REMARK                         _______ _______ _______ _____ _____    ______ ____
ROOT
ATOM      1  C   UNL     1       1.602   7.627  20.153  0.00  0.00    +0.000 A 
ATOM      2  C   UNL     1       1.467   6.560  20.959  0.00  0.00    +0.000 A 
ATOM      3  C   UNL     1       2.064   5.257  20.569  0.00  0.00    +0.000 A 
ATOM      4  O   UNL     1       2.106   4.325  21.364  0.00  0.00    +0.000 OA
ATOM      5  C   UNL     1       2.659   5.179  19.206  0.00  0.00    +0.000 A 
ATOM      6  C   UNL     1       2.753   6.325  18.521  0.00  0.00    +0.000 A 
ATOM      7  O   UNL     1       2.299   7.553  18.951  0.00  0.00    +0.000 OA
ENDROOT
BRANCH   1   8
ATOM      8  C   UNL     1       1.063   9.004  20.494  0.00  0.00    +0.000 C 
BRANCH   8   9
ATOM      9  S   UNL     1       1.263  10.118  19.069  0.00  0.00    +0.000 S 
BRANCH   9  16
ATOM     10  C   UNL     1      -2.962   9.832  16.159  0.00  0.00    +0.000 C 
ATOM     11  C   UNL     1      -2.290  10.404  17.374  0.00  0.00    +0.000 A 
ATOM     12  C   UNL     1      -2.954  11.323  18.166  0.00  0.00    +0.000 A 
ATOM     13  C   UNL     1      -2.266  11.803  19.262  0.00  0.00    +0.000 A 
ATOM     14  C   UNL     1      -2.893  12.794  20.196  0.00  0.00    +0.000 C 
ATOM     15  N   UNL     1      -1.006  11.415  19.543  0.00  0.00    +0.000 NA
ATOM     16  C   UNL     1      -0.433  10.522  18.717  0.00  0.00    +0.000 A 
ATOM     17  N   UNL     1      -1.030   9.987  17.635  0.00  0.00    +0.000 NA
ENDBRANCH   9  16
ENDBRANCH   8   9
ENDBRANCH   1   8
BRANCH   5  18
ATOM     18  O   UNL     1       3.198   3.974  18.705  0.00  0.00    +0.000 OA
BRANCH  18  19
ATOM     19  C   UNL     1       4.469   3.703  19.129  0.00  0.00    +0.000 C 
ATOM     20  O   UNL     1       4.797   2.893  19.983  0.00  0.00    +0.000 OA
BRANCH  19  21
ATOM     21  C   UNL     1       5.479   4.470  18.328  0.00  0.00    +0.000 A 
ATOM     22  C   UNL     1       6.284   5.401  19.012  0.00  0.00    +0.000 A 
ATOM     23  C   UNL     1       7.271   6.137  18.344  0.00  0.00    +0.000 A 
ATOM     24  C   UNL     1       7.468   5.956  16.978  0.00  0.00    +0.000 A 
ATOM     25  C   UNL     1       6.672   5.033  16.286  0.00  0.00    +0.000 A 
ATOM     26  C   UNL     1       5.678   4.287  16.951  0.00  0.00    +0.000 A 
BRANCH  25  27
ATOM     27  N   UNL     1       6.891   4.840  14.846  0.00  0.00    +0.000 N 
ATOM     28  O   UNL     1       7.760   5.532  14.296  0.00  0.00    +0.000 OA
ATOM     29  O   UNL     1       6.197   3.991  14.267  0.00  0.00    +0.000 OA
ENDBRANCH  25  27
ENDBRANCH  19  21
ENDBRANCH  18  19
ENDBRANCH   5  18
TORSDOF 7
ENDMDL
MODEL 3
REMARK VINA RESULT:      -8.5      5.953      8.255
REMARK  Name = 
REMARK  9 active torsions:
REMARK  status: ('A' for Active; 'I' for Inactive)
REMARK    1  A    between atoms: C_1  and  C_2
REMARK    2  A    between atoms: C_4  and  C_5
REMARK    3  A    between atoms: C_7  and  S_8
REMARK    4  A    between atoms: S_8  and  C_9
REMARK    5  A    between atoms: C_9  and  C_10
REMARK    6  A    between atoms: C_14  and  O_15
REMARK    7  A    between atoms: O_15  and  C_16
REMARK    8  A    between atoms: C_16  and  C_18
REMARK    9  A    between atoms: C_22  and  N_23
REMARK                            x       y       z     vdW  Elec       q    Type
REMARK                         _______ _______ _______ _____ _____    ______ ____
ROOT
ATOM      1  C   UNL     1       2.968   6.729  18.550  0.00  0.00    +0.000 A 
ATOM      2  C   UNL     1       3.051   5.517  19.124  0.00  0.00    +0.000 A 
ATOM      3  C   UNL     1       3.977   4.497  18.570  0.00  0.00    +0.000 A 
ATOM      4  O   UNL     1       4.198   3.457  19.180  0.00  0.00    +0.000 OA
ATOM      5  C   UNL     1       4.660   4.842  17.293  0.00  0.00    +0.000 A 
ATOM      6  C   UNL     1       4.510   6.095  16.847  0.00  0.00    +0.000 A 
ATOM      7  O   UNL     1       3.739   7.068  17.441  0.00  0.00    +0.000 OA
ENDROOT
BRANCH   1   8
ATOM      8  C   UNL     1       2.083   7.844  19.076  0.00  0.00    +0.000 C 
BRANCH   8   9
ATOM      9  S   UNL     1       2.042   9.218  17.884  0.00  0.00    +0.000 S 
BRANCH   9  16
ATOM     10  C   UNL     1      -3.012  10.008  17.399  0.00  0.00    +0.000 C 
ATOM     11  C   UNL     1      -1.726  10.378  18.079  0.00  0.00    +0.000 A 
ATOM     12  C   UNL     1      -1.698  11.414  18.996  0.00  0.00    +0.000 A 
ATOM     13  C   UNL     1      -0.476  11.694  19.574  0.00  0.00    +0.000 A 
ATOM     14  C   UNL     1      -0.334  12.787  20.590  0.00  0.00    +0.000 C 
ATOM     15  N   UNL     1       0.640  11.010  19.254  0.00  0.00    +0.000 NA
ATOM     16  C   UNL     1       0.525  10.022  18.349  0.00  0.00    +0.000 A 
ATOM     17  N   UNL     1      -0.625   9.667  17.745  0.00  0.00    +0.000 NA
ENDBRANCH   9  16
ENDBRANCH   8   9
ENDBRANCH   1   8
BRANCH   5  18
ATOM     18  O   UNL     1       5.514   3.924  16.643  0.00  0.00    +0.000 OA
BRANCH  18  19
ATOM     19  C   UNL     1       6.680   4.465  16.180  0.00  0.00    +0.000 C 
ATOM     20  O   UNL     1       7.614   4.874  16.855  0.00  0.00    +0.000 OA
BRANCH  19  21
ATOM     21  C   UNL     1       6.742   4.413  14.682  0.00  0.00    +0.000 A 
ATOM     22  C   UNL     1       7.674   5.249  14.038  0.00  0.00    +0.000 A 
ATOM     23  C   UNL     1       7.815   5.240  12.645  0.00  0.00    +0.000 A 
ATOM     24  C   UNL     1       7.024   4.396  11.871  0.00  0.00    +0.000 A 
ATOM     25  C   UNL     1       6.093   3.559  12.501  0.00  0.00    +0.000 A 
ATOM     26  C   UNL     1       5.946   3.561  13.903  0.00  0.00    +0.000 A 
BRANCH  25  27
ATOM     27  N   UNL     1       5.268   2.663  11.679  0.00  0.00    +0.000 N 
ATOM     28  O   UNL     1       4.141   3.058  11.345  0.00  0.00    +0.000 OA
ATOM     29  O   UNL     1       5.752   1.567  11.361  0.00  0.00    +0.000 OA
ENDBRANCH  25  27
ENDBRANCH  19  21
ENDBRANCH  18  19
ENDBRANCH   5  18
TORSDOF 7
ENDMDL
MODEL 4
REMARK VINA RESULT:      -8.4      0.706      1.731
REMARK  Name = 
REMARK  9 active torsions:
REMARK  status: ('A' for Active; 'I' for Inactive)
REMARK    1  A    between atoms: C_1  and  C_2
REMARK    2  A    between atoms: C_4  and  C_5
REMARK    3  A    between atoms: C_7  and  S_8
REMARK    4  A    between atoms: S_8  and  C_9
REMARK    5  A    between atoms: C_9  and  C_10
REMARK    6  A    between atoms: C_14  and  O_15
REMARK    7  A    between atoms: O_15  and  C_16
REMARK    8  A    between atoms: C_16  and  C_18
REMARK    9  A    between atoms: C_22  and  N_23
REMARK                            x       y       z     vdW  Elec       q    Type
REMARK                         _______ _______ _______ _____ _____    ______ ____
ROOT
ATOM      1  C   UNL     1       8.084   8.312  17.988  0.00  0.00    +0.000 A 
ATOM      2  C   UNL     1       8.376   7.422  18.952  0.00  0.00    +0.000 A 
ATOM      3  C   UNL     1       7.857   6.034  18.860  0.00  0.00    +0.000 A 
ATOM      4  O   UNL     1       8.255   5.166  19.628  0.00  0.00    +0.000 OA
ATOM      5  C   UNL     1       6.899   5.753  17.755  0.00  0.00    +0.000 A 
ATOM      6  C   UNL     1       6.720   6.723  16.850  0.00  0.00    +0.000 A 
ATOM      7  O   UNL     1       7.305   7.969  16.886  0.00  0.00    +0.000 OA
ENDROOT
BRANCH   1   8
ATOM      8  C   UNL     1       8.608   9.736  17.979  0.00  0.00    +0.000 C 
BRANCH   8   9
ATOM      9  S   UNL     1       9.183  10.195  19.644  0.00  0.00    +0.000 S 
BRANCH   9  16
ATOM     10  C   UNL     1      10.492  14.972  21.012  0.00  0.00    +0.000 C 
ATOM     11  C   UNL     1      10.470  13.914  19.946  0.00  0.00    +0.000 A 
ATOM     12  C   UNL     1      10.944  14.197  18.678  0.00  0.00    +0.000 A 
ATOM     13  C   UNL     1      10.886  13.172  17.755  0.00  0.00    +0.000 A 
ATOM     14  C   UNL     1      11.384  13.364  16.354  0.00  0.00    +0.000 C 
ATOM     15  N   UNL     1      10.380  11.962  18.061  0.00  0.00    +0.000 NA
ATOM     16  C   UNL     1       9.935  11.773  19.317  0.00  0.00    +0.000 A 
ATOM     17  N   UNL     1       9.966  12.706  20.286  0.00  0.00    +0.000 NA
ENDBRANCH   9  16
ENDBRANCH   8   9
ENDBRANCH   1   8
BRANCH   5  18
ATOM     18  O   UNL     1       6.294   4.486  17.609  0.00  0.00    +0.000 OA
BRANCH  18  19
ATOM     19  C   UNL     1       5.014   4.521  17.131  0.00  0.00    +0.000 C 
ATOM     20  O   UNL     1       4.666   4.393  15.966  0.00  0.00    +0.000 OA
BRANCH  19  21
ATOM     21  C   UNL     1       4.023   4.641  18.250  0.00  0.00    +0.000 A 
ATOM     22  C   UNL     1       3.133   5.732  18.220  0.00  0.00    +0.000 A 
ATOM     23  C   UNL     1       2.158   5.901  19.211  0.00  0.00    +0.000 A 
ATOM     24  C   UNL     1       2.058   4.983  20.252  0.00  0.00    +0.000 A 
ATOM     25  C   UNL     1       2.939   3.893  20.293  0.00  0.00    +0.000 A 
ATOM     26  C   UNL     1       3.922   3.715  19.299  0.00  0.00    +0.000 A 
BRANCH  25  27
ATOM     27  N   UNL     1       2.822   2.922  21.390  0.00  0.00    +0.000 N 
ATOM     28  O   UNL     1       1.830   3.001  22.129  0.00  0.00    +0.000 OA
ATOM     29  O   UNL     1       3.722   2.077  21.508  0.00  0.00    +0.000 OA
ENDBRANCH  25  27
ENDBRANCH  19  21
ENDBRANCH  18  19
ENDBRANCH   5  18
TORSDOF 7
ENDMDL
MODEL 5
REMARK VINA RESULT:      -8.3      6.012      8.283
REMARK  Name = 
REMARK  9 active torsions:
REMARK  status: ('A' for Active; 'I' for Inactive)
REMARK    1  A    between atoms: C_1  and  C_2
REMARK    2  A    between atoms: C_4  and  C_5
REMARK    3  A    between atoms: C_7  and  S_8
REMARK    4  A    between atoms: S_8  and  C_9
REMARK    5  A    between atoms: C_9  and  C_10
REMARK    6  A    between atoms: C_14  and  O_15
REMARK    7  A    between atoms: O_15  and  C_16
REMARK    8  A    between atoms: C_16  and  C_18
REMARK    9  A    between atoms: C_22  and  N_23
REMARK                            x       y       z     vdW  Elec       q    Type
REMARK                         _______ _______ _______ _____ _____    ______ ____
ROOT
ATOM      1  C   UNL     1       1.607   7.737  20.166  0.00  0.00    +0.000 A 
ATOM      2  C   UNL     1       1.463   6.661  20.957  0.00  0.00    +0.000 A 
ATOM      3  C   UNL     1       1.977   5.341  20.511  0.00  0.00    +0.000 A 
ATOM      4  O   UNL     1       2.016   4.391  21.285  0.00  0.00    +0.000 OA
ATOM      5  C   UNL     1       2.497   5.265  19.118  0.00  0.00    +0.000 A 
ATOM      6  C   UNL     1       2.609   6.420  18.452  0.00  0.00    +0.000 A 
ATOM      7  O   UNL     1       2.236   7.658  18.928  0.00  0.00    +0.000 OA
ENDROOT
BRANCH   1   8
ATOM      8  C   UNL     1       1.151   9.130  20.561  0.00  0.00    +0.000 C 
BRANCH   8   9
ATOM      9  S   UNL     1       0.602   9.135  22.296  0.00  0.00    +0.000 S 
BRANCH   9  16
ATOM     10  C   UNL     1      -3.258  12.229  23.685  0.00  0.00    +0.000 C 
ATOM     11  C   UNL     1      -1.929  12.080  23.001  0.00  0.00    +0.000 A 
ATOM     12  C   UNL     1      -1.351  13.162  22.364  0.00  0.00    +0.000 A 
ATOM     13  C   UNL     1      -0.132  12.942  21.756  0.00  0.00    +0.000 A 
ATOM     14  C   UNL     1       0.590  14.048  21.047  0.00  0.00    +0.000 C 
ATOM     15  N   UNL     1       0.463  11.733  21.763  0.00  0.00    +0.000 NA
ATOM     16  C   UNL     1      -0.171  10.733  22.401  0.00  0.00    +0.000 A 
ATOM     17  N   UNL     1      -1.352  10.857  23.034  0.00  0.00    +0.000 NA
ENDBRANCH   9  16
ENDBRANCH   8   9
ENDBRANCH   1   8
BRANCH   5  18
ATOM     18  O   UNL     1       2.952   4.047  18.567  0.00  0.00    +0.000 OA
BRANCH  18  19
ATOM     19  C   UNL     1       4.175   3.642  19.022  0.00  0.00    +0.000 C 
ATOM     20  O   UNL     1       4.396   2.750  19.829  0.00  0.00    +0.000 OA
BRANCH  19  21
ATOM     21  C   UNL     1       5.281   4.374  18.320  0.00  0.00    +0.000 A 
ATOM     22  C   UNL     1       6.072   5.252  19.087  0.00  0.00    +0.000 A 
ATOM     23  C   UNL     1       7.142   5.951  18.515  0.00  0.00    +0.000 A 
ATOM     24  C   UNL     1       7.439   5.787  17.166  0.00  0.00    +0.000 A 
ATOM     25  C   UNL     1       6.658   4.916  16.393  0.00  0.00    +0.000 A 
ATOM     26  C   UNL     1       5.581   4.207  16.960  0.00  0.00    +0.000 A 
BRANCH  25  27
ATOM     27  N   UNL     1       6.983   4.740  14.970  0.00  0.00    +0.000 N 
ATOM     28  O   UNL     1       6.413   3.828  14.355  0.00  0.00    +0.000 OA
ATOM     29  O   UNL     1       7.806   5.520  14.468  0.00  0.00    +0.000 OA
ENDBRANCH  25  27
ENDBRANCH  19  21
ENDBRANCH  18  19
ENDBRANCH   5  18
TORSDOF 7
ENDMDL
MODEL 6
REMARK VINA RESULT:      -8.3      5.938      8.839
REMARK  Name = 
REMARK  9 active torsions:
REMARK  status: ('A' for Active; 'I' for Inactive)
REMARK    1  A    between atoms: C_1  and  C_2
REMARK    2  A    between atoms: C_4  and  C_5
REMARK    3  A    between atoms: C_7  and  S_8
REMARK    4  A    between atoms: S_8  and  C_9
REMARK    5  A    between atoms: C_9  and  C_10
REMARK    6  A    between atoms: C_14  and  O_15
REMARK    7  A    between atoms: O_15  and  C_16
REMARK    8  A    between atoms: C_16  and  C_18
REMARK    9  A    between atoms: C_22  and  N_23
REMARK                            x       y       z     vdW  Elec       q    Type
REMARK                         _______ _______ _______ _____ _____    ______ ____
ROOT
ATOM      1  C   UNL     1       2.202   5.075  18.713  0.00  0.00    +0.000 A 
ATOM      2  C   UNL     1       2.377   6.210  18.015  0.00  0.00    +0.000 A 
ATOM      3  C   UNL     1       2.274   7.523  18.699  0.00  0.00    +0.000 A 
ATOM      4  O   UNL     1       2.604   8.555  18.126  0.00  0.00    +0.000 OA
ATOM      5  C   UNL     1       1.824   7.501  20.118  0.00  0.00    +0.000 A 
ATOM      6  C   UNL     1       1.713   6.300  20.698  0.00  0.00    +0.000 A 
ATOM      7  O   UNL     1       1.929   5.089  20.078  0.00  0.00    +0.000 OA
ENDROOT
BRANCH   1   8
ATOM      8  C   UNL     1       2.333   3.691  18.104  0.00  0.00    +0.000 C 
BRANCH   8   9
ATOM      9  S   UNL     1       3.767   2.831  18.821  0.00  0.00    +0.000 S 
BRANCH   9  16
ATOM     10  C   UNL     1       7.901   5.869  19.097  0.00  0.00    +0.000 C 
ATOM     11  C   UNL     1       6.927   5.121  18.233  0.00  0.00    +0.000 A 
ATOM     12  C   UNL     1       7.009   5.213  16.856  0.00  0.00    +0.000 A 
ATOM     13  C   UNL     1       6.074   4.498  16.134  0.00  0.00    +0.000 A 
ATOM     14  C   UNL     1       6.077   4.515  14.634  0.00  0.00    +0.000 C 
ATOM     15  N   UNL     1       5.118   3.761  16.732  0.00  0.00    +0.000 NA
ATOM     16  C   UNL     1       5.107   3.732  18.077  0.00  0.00    +0.000 A 
ATOM     17  N   UNL     1       5.986   4.382  18.863  0.00  0.00    +0.000 NA
ENDBRANCH   9  16
ENDBRANCH   8   9
ENDBRANCH   1   8
BRANCH   5  18
ATOM     18  O   UNL     1       1.629   8.694  20.849  0.00  0.00    +0.000 OA
BRANCH  18  19
ATOM     19  C   UNL     1       0.322   9.062  20.995  0.00  0.00    +0.000 C 
ATOM     20  O   UNL     1      -0.479   8.609  21.801  0.00  0.00    +0.000 OA
BRANCH  19  21
ATOM     21  C   UNL     1      -0.023  10.204  20.086  0.00  0.00    +0.000 A 
ATOM     22  C   UNL     1       0.821  11.331  20.106  0.00  0.00    +0.000 A 
ATOM     23  C   UNL     1       0.587  12.428  19.267  0.00  0.00    +0.000 A 
ATOM     24  C   UNL     1      -0.498  12.418  18.396  0.00  0.00    +0.000 A 
ATOM     25  C   UNL     1      -1.345  11.302  18.367  0.00  0.00    +0.000 A 
ATOM     26  C   UNL     1      -1.115  10.193  19.207  0.00  0.00    +0.000 A 
BRANCH  25  27
ATOM     27  N   UNL     1      -2.483  11.294  17.438  0.00  0.00    +0.000 N 
ATOM     28  O   UNL     1      -2.312  10.792  16.317  0.00  0.00    +0.000 OA
ATOM     29  O   UNL     1      -3.552  11.784  17.833  0.00  0.00    +0.000 OA
ENDBRANCH  25  27
ENDBRANCH  19  21
ENDBRANCH  18  19
ENDBRANCH   5  18
TORSDOF 7
ENDMDL
MODEL 7
REMARK VINA RESULT:      -8.3      5.954      8.521
REMARK  Name = 
REMARK  9 active torsions:
REMARK  status: ('A' for Active; 'I' for Inactive)
REMARK    1  A    between atoms: C_1  and  C_2
REMARK    2  A    between atoms: C_4  and  C_5
REMARK    3  A    between atoms: C_7  and  S_8
REMARK    4  A    between atoms: S_8  and  C_9
REMARK    5  A    between atoms: C_9  and  C_10
REMARK    6  A    between atoms: C_14  and  O_15
REMARK    7  A    between atoms: O_15  and  C_16
REMARK    8  A    between atoms: C_16  and  C_18
REMARK    9  A    between atoms: C_22  and  N_23
REMARK                            x       y       z     vdW  Elec       q    Type
REMARK                         _______ _______ _______ _____ _____    ______ ____
ROOT
ATOM      1  C   UNL     1       1.622   7.658  20.066  0.00  0.00    +0.000 A 
ATOM      2  C   UNL     1       1.492   6.660  20.956  0.00  0.00    +0.000 A 
ATOM      3  C   UNL     1       2.091   5.331  20.671  0.00  0.00    +0.000 A 
ATOM      4  O   UNL     1       2.138   4.467  21.540  0.00  0.00    +0.000 OA
ATOM      5  C   UNL     1       2.682   5.144  19.318  0.00  0.00    +0.000 A 
ATOM      6  C   UNL     1       2.770   6.230  18.541  0.00  0.00    +0.000 A 
ATOM      7  O   UNL     1       2.315   7.488  18.871  0.00  0.00    +0.000 OA
ENDROOT
BRANCH   1   8
ATOM      8  C   UNL     1       1.080   9.057  20.295  0.00  0.00    +0.000 C 
BRANCH   8   9
ATOM      9  S   UNL     1       1.220  10.034  18.766  0.00  0.00    +0.000 S 
BRANCH   9  16
ATOM     10  C   UNL     1      -3.059   9.851  15.927  0.00  0.00    +0.000 C 
ATOM     11  C   UNL     1      -2.369  10.368  17.156  0.00  0.00    +0.000 A 
ATOM     12  C   UNL     1      -3.025  11.239  18.007  0.00  0.00    +0.000 A 
ATOM     13  C   UNL     1      -2.320  11.670  19.113  0.00  0.00    +0.000 A 
ATOM     14  C   UNL     1      -2.939  12.605  20.108  0.00  0.00    +0.000 C 
ATOM     15  N   UNL     1      -1.052  11.281  19.349  0.00  0.00    +0.000 NA
ATOM     16  C   UNL     1      -0.486  10.437  18.468  0.00  0.00    +0.000 A 
ATOM     17  N   UNL     1      -1.100   9.952  17.372  0.00  0.00    +0.000 NA
ENDBRANCH   9  16
ENDBRANCH   8   9
ENDBRANCH   1   8
BRANCH   5  18
ATOM     18  O   UNL     1       3.222   3.903  18.915  0.00  0.00    +0.000 OA
BRANCH  18  19
ATOM     19  C   UNL     1       3.378   3.764  17.564  0.00  0.00    +0.000 C 
ATOM     20  O   UNL     1       2.508   3.478  16.754  0.00  0.00    +0.000 OA
BRANCH  19  21
ATOM     21  C   UNL     1       4.775   4.114  17.144  0.00  0.00    +0.000 A 
ATOM     22  C   UNL     1       5.735   4.298  18.158  0.00  0.00    +0.000 A 
ATOM     23  C   UNL     1       7.067   4.598  17.849  0.00  0.00    +0.000 A 
ATOM     24  C   UNL     1       7.463   4.721  16.521  0.00  0.00    +0.000 A 
ATOM     25  C   UNL     1       6.516   4.540  15.503  0.00  0.00    +0.000 A 
ATOM     26  C   UNL     1       5.173   4.237  15.805  0.00  0.00    +0.000 A 
BRANCH  25  27
ATOM     27  N   UNL     1       6.943   4.663  14.102  0.00  0.00    +0.000 N 
ATOM     28  O   UNL     1       7.809   5.507  13.833  0.00  0.00    +0.000 OA
ATOM     29  O   UNL     1       6.414   3.908  13.272  0.00  0.00    +0.000 OA
ENDBRANCH  25  27
ENDBRANCH  19  21
ENDBRANCH  18  19
ENDBRANCH   5  18
TORSDOF 7
ENDMDL
MODEL 8
REMARK VINA RESULT:      -8.3      5.434      8.380
REMARK  Name = 
REMARK  9 active torsions:
REMARK  status: ('A' for Active; 'I' for Inactive)
REMARK    1  A    between atoms: C_1  and  C_2
REMARK    2  A    between atoms: C_4  and  C_5
REMARK    3  A    between atoms: C_7  and  S_8
REMARK    4  A    between atoms: S_8  and  C_9
REMARK    5  A    between atoms: C_9  and  C_10
REMARK    6  A    between atoms: C_14  and  O_15
REMARK    7  A    between atoms: O_15  and  C_16
REMARK    8  A    between atoms: C_16  and  C_18
REMARK    9  A    between atoms: C_22  and  N_23
REMARK                            x       y       z     vdW  Elec       q    Type
REMARK                         _______ _______ _______ _____ _____    ______ ____
ROOT
ATOM      1  C   UNL     1       1.557   7.542  20.420  0.00  0.00    +0.000 A 
ATOM      2  C   UNL     1       2.206   7.696  19.253  0.00  0.00    +0.000 A 
ATOM      3  C   UNL     1       2.763   6.510  18.554  0.00  0.00    +0.000 A 
ATOM      4  O   UNL     1       3.197   6.604  17.412  0.00  0.00    +0.000 OA
ATOM      5  C   UNL     1       2.695   5.214  19.284  0.00  0.00    +0.000 A 
ATOM      6  C   UNL     1       1.995   5.199  20.425  0.00  0.00    +0.000 A 
ATOM      7  O   UNL     1       1.381   6.289  21.001  0.00  0.00    +0.000 OA
ENDROOT
BRANCH   1   8
ATOM      8  C   UNL     1       0.920   8.691  21.179  0.00  0.00    +0.000 C 
BRANCH   8   9
ATOM      9  S   UNL     1       1.304  10.268  20.354  0.00  0.00    +0.000 S 
BRANCH   9  16
ATOM     10  C   UNL     1      -2.276   9.908  16.687  0.00  0.00    +0.000 C 
ATOM     11  C   UNL     1      -1.841  10.526  17.984  0.00  0.00    +0.000 A 
ATOM     12  C   UNL     1      -2.625  11.491  18.590  0.00  0.00    +0.000 A 
ATOM     13  C   UNL     1      -2.153  12.012  19.779  0.00  0.00    +0.000 A 
ATOM     14  C   UNL     1      -2.928  13.054  20.528  0.00  0.00    +0.000 C 
ATOM     15  N   UNL     1      -0.982  11.619  20.317  0.00  0.00    +0.000 NA
ATOM     16  C   UNL     1      -0.280  10.679  19.659  0.00  0.00    +0.000 A 
ATOM     17  N   UNL     1      -0.667  10.104  18.505  0.00  0.00    +0.000 NA
ENDBRANCH   9  16
ENDBRANCH   8   9
ENDBRANCH   1   8
BRANCH   5  18
ATOM     18  O   UNL     1       3.250   4.033  18.743  0.00  0.00    +0.000 OA
BRANCH  18  19
ATOM     19  C   UNL     1       4.510   3.745  19.185  0.00  0.00    +0.000 C 
ATOM     20  O   UNL     1       4.814   2.936  20.051  0.00  0.00    +0.000 OA
BRANCH  19  21
ATOM     21  C   UNL     1       5.543   4.489  18.392  0.00  0.00    +0.000 A 
ATOM     22  C   UNL     1       6.346   5.421  19.078  0.00  0.00    +0.000 A 
ATOM     23  C   UNL     1       7.352   6.136  18.417  0.00  0.00    +0.000 A 
ATOM     24  C   UNL     1       7.573   5.933  17.058  0.00  0.00    +0.000 A 
ATOM     25  C   UNL     1       6.780   5.008  16.365  0.00  0.00    +0.000 A 
ATOM     26  C   UNL     1       5.765   4.283  17.023  0.00  0.00    +0.000 A 
BRANCH  25  27
ATOM     27  N   UNL     1       7.024   4.792  14.932  0.00  0.00    +0.000 N 
ATOM     28  O   UNL     1       6.381   3.897  14.365  0.00  0.00    +0.000 OA
ATOM     29  O   UNL     1       7.855   5.523  14.374  0.00  0.00    +0.000 OA
ENDBRANCH  25  27
ENDBRANCH  19  21
ENDBRANCH  18  19
ENDBRANCH   5  18
TORSDOF 7
ENDMDL
MODEL 9
REMARK VINA RESULT:      -8.2      5.936      8.721
REMARK  Name = 
REMARK  9 active torsions:
REMARK  status: ('A' for Active; 'I' for Inactive)
REMARK    1  A    between atoms: C_1  and  C_2
REMARK    2  A    between atoms: C_4  and  C_5
REMARK    3  A    between atoms: C_7  and  S_8
REMARK    4  A    between atoms: S_8  and  C_9
REMARK    5  A    between atoms: C_9  and  C_10
REMARK    6  A    between atoms: C_14  and  O_15
REMARK    7  A    between atoms: O_15  and  C_16
REMARK    8  A    between atoms: C_16  and  C_18
REMARK    9  A    between atoms: C_22  and  N_23
REMARK                            x       y       z     vdW  Elec       q    Type
REMARK                         _______ _______ _______ _____ _____    ______ ____
ROOT
ATOM      1  C   UNL     1       2.194   5.140  18.986  0.00  0.00    +0.000 A 
ATOM      2  C   UNL     1       2.378   6.192  18.170  0.00  0.00    +0.000 A 
ATOM      3  C   UNL     1       2.262   7.573  18.705  0.00  0.00    +0.000 A 
ATOM      4  O   UNL     1       2.599   8.537  18.027  0.00  0.00    +0.000 OA
ATOM      5  C   UNL     1       1.789   7.705  20.111  0.00  0.00    +0.000 A 
ATOM      6  C   UNL     1       1.671   6.574  20.817  0.00  0.00    +0.000 A 
ATOM      7  O   UNL     1       1.899   5.304  20.337  0.00  0.00    +0.000 OA
ENDROOT
BRANCH   1   8
ATOM      8  C   UNL     1       2.337   3.698  18.534  0.00  0.00    +0.000 C 
BRANCH   8   9
ATOM      9  S   UNL     1       3.866   2.984  19.215  0.00  0.00    +0.000 S 
BRANCH   9  16
ATOM     10  C   UNL     1       6.165   4.134  14.766  0.00  0.00    +0.000 C 
ATOM     11  C   UNL     1       6.122   4.304  16.257  0.00  0.00    +0.000 A 
ATOM     12  C   UNL     1       7.096   5.046  16.899  0.00  0.00    +0.000 A 
ATOM     13  C   UNL     1       6.987   5.151  18.272  0.00  0.00    +0.000 A 
ATOM     14  C   UNL     1       7.981   5.942  19.068  0.00  0.00    +0.000 C 
ATOM     15  N   UNL     1       5.996   4.550  18.958  0.00  0.00    +0.000 NA
ATOM     16  C   UNL     1       5.094   3.842  18.256  0.00  0.00    +0.000 A 
ATOM     17  N   UNL     1       5.109   3.698  16.918  0.00  0.00    +0.000 NA
ENDBRANCH   9  16
ENDBRANCH   8   9
ENDBRANCH   1   8
BRANCH   5  18
ATOM     18  O   UNL     1       1.581   8.970  20.703  0.00  0.00    +0.000 OA
BRANCH  18  19
ATOM     19  C   UNL     1       0.272   9.267  20.958  0.00  0.00    +0.000 C 
ATOM     20  O   UNL     1      -0.411   8.832  21.874  0.00  0.00    +0.000 OA
BRANCH  19  21
ATOM     21  C   UNL     1      -0.239  10.311  20.010  0.00  0.00    +0.000 A 
ATOM     22  C   UNL     1       0.242  11.625  20.164  0.00  0.00    +0.000 A 
ATOM     23  C   UNL     1      -0.163  12.652  19.302  0.00  0.00    +0.000 A 
ATOM     24  C   UNL     1      -1.059  12.383  18.273  0.00  0.00    +0.000 A 
ATOM     25  C   UNL     1      -1.546  11.079  18.109  0.00  0.00    +0.000 A 
ATOM     26  C   UNL     1      -1.142  10.039  18.971  0.00  0.00    +0.000 A 
BRANCH  25  27
ATOM     27  N   UNL     1      -2.485  10.800  17.014  0.00  0.00    +0.000 N 
ATOM     28  O   UNL     1      -3.436  11.578  16.856  0.00  0.00    +0.000 OA
ATOM     29  O   UNL     1      -2.265   9.804  16.308  0.00  0.00    +0.000 OA
ENDBRANCH  25  27
ENDBRANCH  19  21
ENDBRANCH  18  19
ENDBRANCH   5  18
TORSDOF 7
ENDMDL
