MODEL 1
REMARK VINA RESULT:      -7.5      0.000      0.000
REMARK  Name = 
REMARK  11 active torsions:
REMARK  status: ('A' for Active; 'I' for Inactive)
REMARK    1  A    between atoms: C_1  and  C_2
REMARK    2  A    between atoms: C_4  and  C_5
REMARK    3  A    between atoms: C_6  and  N_7
REMARK    4  A    between atoms: N_7  and  C_8
REMARK    5  A    between atoms: C_14  and  N_15
REMARK    6  A    between atoms: N_15  and  C_16
REMARK    7  A    between atoms: N_15  and  C_23
REMARK    8  A    between atoms: C_16  and  C_17
REMARK    9  A    between atoms: C_23  and  C_24
REMARK   10  A    between atoms: C_29  and  C_30
REMARK   11  A    between atoms: C_31  and  C_32
REMARK                            x       y       z     vdW  Elec       q    Type
REMARK                         _______ _______ _______ _____ _____    ______ ____
ROOT
ATOM      1  C   UNL     1       2.103   8.230  20.141  0.00  0.00    +0.000 A 
ATOM      2  N   UNL     1       1.730   8.567  21.388  0.00  0.00    +0.000 NA
ATOM      3  C   UNL     1       0.744   9.452  21.593  0.00  0.00    +0.000 A 
ATOM      4  C   UNL     1       0.261   9.481  22.882  0.00  0.00    +0.000 A 
ATOM      5  C   UNL     1      -0.863  10.220  23.211  0.00  0.00    +0.000 A 
ATOM      6  C   UNL     1      -1.429  11.069  22.264  0.00  0.00    +0.000 A 
ATOM      7  C   UNL     1      -0.892  11.216  20.966  0.00  0.00    +0.000 A 
ATOM      8  C   UNL     1       0.132  10.241  20.592  0.00  0.00    +0.000 A 
ATOM      9  C   UNL     1       0.593   9.901  19.292  0.00  0.00    +0.000 A 
ATOM     10  C   UNL     1       1.578   8.915  19.048  0.00  0.00    +0.000 A 
ATOM     11  C   UNL     1       1.923   8.569  17.628  0.00  0.00    +0.000 C 
ENDROOT
BRANCH   1  12
ATOM     12  N   UNL     1       3.017   7.152  19.980  0.00  0.00    +0.000 N 
ATOM     13  H   UNL     1       3.903   7.522  19.650  0.00  0.00    +0.000 HD
BRANCH  12  19
ATOM     14  C   UNL     1       2.395   2.120  17.212  0.00  0.00    +0.000 C 
ATOM     15  C   UNL     1       2.507   3.460  17.873  0.00  0.00    +0.000 A 
ATOM     16  C   UNL     1       3.407   4.413  17.404  0.00  0.00    +0.000 A 
ATOM     17  C   UNL     1       3.575   5.653  18.053  0.00  0.00    +0.000 A 
ATOM     18  C   UNL     1       4.626   6.561  17.469  0.00  0.00    +0.000 C 
ATOM     19  C   UNL     1       2.774   5.982  19.179  0.00  0.00    +0.000 A 
ATOM     20  C   UNL     1       1.861   5.007  19.658  0.00  0.00    +0.000 A 
ATOM     21  C   UNL     1       0.997   5.214  20.874  0.00  0.00    +0.000 C 
ATOM     22  C   UNL     1       1.746   3.757  19.006  0.00  0.00    +0.000 A 
ENDBRANCH  12  19
ENDBRANCH   1  12
BRANCH   7  23
ATOM     23  N   UNL     1      -1.357  12.282  20.118  0.00  0.00    +0.000 N 
BRANCH  23  24
ATOM     24  C   UNL     1      -2.787  12.314  19.725  0.00  0.00    +0.000 C 
BRANCH  24  25
ATOM     25  C   UNL     1      -3.120  11.445  18.504  0.00  0.00    +0.000 C 
ATOM     26  C   UNL     1      -2.048  11.496  17.404  0.00  0.00    +0.000 C 
ATOM     27  C   UNL     1      -2.513  10.711  16.178  0.00  0.00    +0.000 C 
ATOM     28  O   UNL     1      -3.761  11.203  15.688  0.00  0.00    +0.000 OA
ATOM     29  C   UNL     1      -4.801  11.114  16.661  0.00  0.00    +0.000 C 
ATOM     30  C   UNL     1      -4.445  11.939  17.887  0.00  0.00    +0.000 C 
ENDBRANCH  24  25
ENDBRANCH  23  24
BRANCH  23  31
ATOM     31  C   UNL     1      -0.698  13.591  20.353  0.00  0.00    +0.000 C 
BRANCH  31  32
ATOM     32  C   UNL     1       0.738  13.764  19.921  0.00  0.00    +0.000 C 
ATOM     33  C   UNL     1       1.280  13.528  18.524  0.00  0.00    +0.000 C 
ATOM     34  C   UNL     1       1.046  14.926  18.999  0.00  0.00    +0.000 C 
ENDBRANCH  31  32
ENDBRANCH  23  31
ENDBRANCH   7  23
TORSDOF 7
ENDMDL
MODEL 2
REMARK VINA RESULT:      -7.4      2.668      5.380
REMARK  Name = 
REMARK  11 active torsions:
REMARK  status: ('A' for Active; 'I' for Inactive)
REMARK    1  A    between atoms: C_1  and  C_2
REMARK    2  A    between atoms: C_4  and  C_5
REMARK    3  A    between atoms: C_6  and  N_7
REMARK    4  A    between atoms: N_7  and  C_8
REMARK    5  A    between atoms: C_14  and  N_15
REMARK    6  A    between atoms: N_15  and  C_16
REMARK    7  A    between atoms: N_15  and  C_23
REMARK    8  A    between atoms: C_16  and  C_17
REMARK    9  A    between atoms: C_23  and  C_24
REMARK   10  A    between atoms: C_29  and  C_30
REMARK   11  A    between atoms: C_31  and  C_32
REMARK                            x       y       z     vdW  Elec       q    Type
REMARK                         _______ _______ _______ _____ _____    ______ ____
ROOT
ATOM      1  C   UNL     1       0.256  10.049  19.119  0.00  0.00    +0.000 A 
ATOM      2  N   UNL     1      -0.467   9.640  18.062  0.00  0.00    +0.000 NA
ATOM      3  C   UNL     1      -1.656  10.194  17.789  0.00  0.00    +0.000 A 
ATOM      4  C   UNL     1      -2.146   9.907  16.534  0.00  0.00    +0.000 A 
ATOM      5  C   UNL     1      -3.278  10.537  16.044  0.00  0.00    +0.000 A 
ATOM      6  C   UNL     1      -4.026  11.358  16.884  0.00  0.00    +0.000 A 
ATOM      7  C   UNL     1      -3.676  11.574  18.235  0.00  0.00    +0.000 A 
ATOM      8  C   UNL     1      -2.352  11.093  18.629  0.00  0.00    +0.000 A 
ATOM      9  C   UNL     1      -1.585  11.458  19.767  0.00  0.00    +0.000 A 
ATOM     10  C   UNL     1      -0.294  10.943  20.035  0.00  0.00    +0.000 A 
ATOM     11  C   UNL     1       0.467  11.469  21.217  0.00  0.00    +0.000 C 
ENDROOT
BRANCH   1  12
ATOM     12  N   UNL     1       1.587   9.566  19.253  0.00  0.00    +0.000 N 
ATOM     13  H   UNL     1       2.119   9.844  18.434  0.00  0.00    +0.000 HD
BRANCH  12  19
ATOM     14  C   UNL     1       2.509   3.889  19.792  0.00  0.00    +0.000 C 
ATOM     15  C   UNL     1       2.338   5.375  19.698  0.00  0.00    +0.000 A 
ATOM     16  C   UNL     1       1.729   6.088  20.727  0.00  0.00    +0.000 A 
ATOM     17  C   UNL     1       1.498   7.475  20.628  0.00  0.00    +0.000 A 
ATOM     18  C   UNL     1       0.776   8.103  21.792  0.00  0.00    +0.000 C 
ATOM     19  C   UNL     1       1.943   8.191  19.485  0.00  0.00    +0.000 A 
ATOM     20  C   UNL     1       2.559   7.461  18.436  0.00  0.00    +0.000 A 
ATOM     21  C   UNL     1       3.023   8.096  17.152  0.00  0.00    +0.000 C 
ATOM     22  C   UNL     1       2.740   6.063  18.551  0.00  0.00    +0.000 A 
ENDBRANCH  12  19
ENDBRANCH   1  12
BRANCH   7  23
ATOM     23  N   UNL     1      -4.610  12.221  19.119  0.00  0.00    +0.000 N 
BRANCH  23  24
ATOM     24  C   UNL     1      -4.096  13.183  20.124  0.00  0.00    +0.000 C 
BRANCH  24  25
ATOM     25  C   UNL     1      -4.438  12.815  21.575  0.00  0.00    +0.000 C 
ATOM     26  C   UNL     1      -5.648  13.580  22.133  0.00  0.00    +0.000 C 
ATOM     27  C   UNL     1      -5.842  13.252  23.613  0.00  0.00    +0.000 C 
ATOM     28  O   UNL     1      -4.666  13.549  24.369  0.00  0.00    +0.000 OA
ATOM     29  C   UNL     1      -3.531  12.809  23.922  0.00  0.00    +0.000 C 
ATOM     30  C   UNL     1      -3.225  13.143  22.470  0.00  0.00    +0.000 C 
ENDBRANCH  24  25
ENDBRANCH  23  24
BRANCH  23  31
ATOM     31  C   UNL     1      -5.927  12.529  18.509  0.00  0.00    +0.000 C 
BRANCH  31  32
ATOM     32  C   UNL     1      -7.090  11.611  18.799  0.00  0.00    +0.000 C 
ATOM     33  C   UNL     1      -7.024  10.100  18.908  0.00  0.00    +0.000 C 
ATOM     34  C   UNL     1      -7.110  10.927  20.150  0.00  0.00    +0.000 C 
ENDBRANCH  31  32
ENDBRANCH  23  31
ENDBRANCH   7  23
TORSDOF 7
ENDMDL
MODEL 3
REMARK VINA RESULT:      -7.4      1.744      3.631
REMARK  Name = 
REMARK  11 active torsions:
REMARK  status: ('A' for Active; 'I' for Inactive)
REMARK    1  A    between atoms: C_1  and  C_2
REMARK    2  A    between atoms: C_4  and  C_5
REMARK    3  A    between atoms: C_6  and  N_7
REMARK    4  A    between atoms: N_7  and  C_8
REMARK    5  A    between atoms: C_14  and  N_15
REMARK    6  A    between atoms: N_15  and  C_16
REMARK    7  A    between atoms: N_15  and  C_23
REMARK    8  A    between atoms: C_16  and  C_17
REMARK    9  A    between atoms: C_23  and  C_24
REMARK   10  A    between atoms: C_29  and  C_30
REMARK   11  A    between atoms: C_31  and  C_32
REMARK                            x       y       z     vdW  Elec       q    Type
REMARK                         _______ _______ _______ _____ _____    ______ ____
ROOT
ATOM      1  C   UNL     1       2.067   8.148  20.159  0.00  0.00    +0.000 A 
ATOM      2  N   UNL     1       1.676   8.566  21.375  0.00  0.00    +0.000 NA
ATOM      3  C   UNL     1       0.703   9.479  21.507  0.00  0.00    +0.000 A 
ATOM      4  C   UNL     1       0.196   9.594  22.781  0.00  0.00    +0.000 A 
ATOM      5  C   UNL     1      -0.921  10.372  23.042  0.00  0.00    +0.000 A 
ATOM      6  C   UNL     1      -1.452  11.172  22.034  0.00  0.00    +0.000 A 
ATOM      7  C   UNL     1      -0.887  11.231  20.741  0.00  0.00    +0.000 A 
ATOM      8  C   UNL     1       0.126  10.218  20.448  0.00  0.00    +0.000 A 
ATOM      9  C   UNL     1       0.606   9.792  19.180  0.00  0.00    +0.000 A 
ATOM     10  C   UNL     1       1.576   8.775  19.016  0.00  0.00    +0.000 A 
ATOM     11  C   UNL     1       1.943   8.338  17.627  0.00  0.00    +0.000 C 
ENDROOT
BRANCH   1  12
ATOM     12  N   UNL     1       2.963   7.046  20.081  0.00  0.00    +0.000 N 
ATOM     13  H   UNL     1       3.895   7.396  19.884  0.00  0.00    +0.000 HD
BRANCH  12  19
ATOM     14  C   UNL     1       2.598   2.132  17.067  0.00  0.00    +0.000 C 
ATOM     15  C   UNL     1       2.650   3.444  17.789  0.00  0.00    +0.000 A 
ATOM     16  C   UNL     1       3.593   4.409  17.447  0.00  0.00    +0.000 A 
ATOM     17  C   UNL     1       3.700   5.621  18.158  0.00  0.00    +0.000 A 
ATOM     18  C   UNL     1       4.805   6.544  17.715  0.00  0.00    +0.000 C 
ATOM     19  C   UNL     1       2.796   5.910  19.215  0.00  0.00    +0.000 A 
ATOM     20  C   UNL     1       1.839   4.923  19.564  0.00  0.00    +0.000 A 
ATOM     21  C   UNL     1       0.862   5.087  20.699  0.00  0.00    +0.000 C 
ATOM     22  C   UNL     1       1.784   3.700  18.855  0.00  0.00    +0.000 A 
ENDBRANCH  12  19
ENDBRANCH   1  12
BRANCH   7  23
ATOM     23  N   UNL     1      -1.314  12.252  19.821  0.00  0.00    +0.000 N 
BRANCH  23  24
ATOM     24  C   UNL     1      -0.306  12.895  18.944  0.00  0.00    +0.000 C 
BRANCH  24  25
ATOM     25  C   UNL     1       0.747  13.719  19.701  0.00  0.00    +0.000 C 
ATOM     26  C   UNL     1       0.574  15.236  19.535  0.00  0.00    +0.000 C 
ATOM     27  C   UNL     1       1.730  15.975  20.209  0.00  0.00    +0.000 C 
ATOM     28  O   UNL     1       2.991  15.552  19.688  0.00  0.00    +0.000 OA
ATOM     29  C   UNL     1       3.219  14.157  19.879  0.00  0.00    +0.000 C 
ATOM     30  C   UNL     1       2.147  13.348  19.167  0.00  0.00    +0.000 C 
ENDBRANCH  24  25
ENDBRANCH  23  24
BRANCH  23  31
ATOM     31  C   UNL     1      -2.664  12.038  19.243  0.00  0.00    +0.000 C 
BRANCH  31  32
ATOM     32  C   UNL     1      -2.775  11.359  17.899  0.00  0.00    +0.000 C 
ATOM     33  C   UNL     1      -2.748   9.863  17.655  0.00  0.00    +0.000 C 
ATOM     34  C   UNL     1      -4.051  10.593  17.616  0.00  0.00    +0.000 C 
ENDBRANCH  31  32
ENDBRANCH  23  31
ENDBRANCH   7  23
TORSDOF 7
ENDMDL
MODEL 4
REMARK VINA RESULT:      -7.3      2.415      4.548
REMARK  Name = 
REMARK  11 active torsions:
REMARK  status: ('A' for Active; 'I' for Inactive)
REMARK    1  A    between atoms: C_1  and  C_2
REMARK    2  A    between atoms: C_4  and  C_5
REMARK    3  A    between atoms: C_6  and  N_7
REMARK    4  A    between atoms: N_7  and  C_8
REMARK    5  A    between atoms: C_14  and  N_15
REMARK    6  A    between atoms: N_15  and  C_16
REMARK    7  A    between atoms: N_15  and  C_23
REMARK    8  A    between atoms: C_16  and  C_17
REMARK    9  A    between atoms: C_23  and  C_24
REMARK   10  A    between atoms: C_29  and  C_30
REMARK   11  A    between atoms: C_31  and  C_32
REMARK                            x       y       z     vdW  Elec       q    Type
REMARK                         _______ _______ _______ _____ _____    ______ ____
ROOT
ATOM      1  C   UNL     1       3.077   6.929  18.838  0.00  0.00    +0.000 A 
ATOM      2  N   UNL     1       3.142   8.025  18.061  0.00  0.00    +0.000 NA
ATOM      3  C   UNL     1       2.378   9.095  18.319  0.00  0.00    +0.000 A 
ATOM      4  C   UNL     1       2.752  10.239  17.650  0.00  0.00    +0.000 A 
ATOM      5  C   UNL     1       2.166  11.461  17.935  0.00  0.00    +0.000 A 
ATOM      6  C   UNL     1       1.078  11.517  18.801  0.00  0.00    +0.000 A 
ATOM      7  C   UNL     1       0.533  10.361  19.403  0.00  0.00    +0.000 A 
ATOM      8  C   UNL     1       1.331   9.143  19.267  0.00  0.00    +0.000 A 
ATOM      9  C   UNL     1       1.250   7.947  20.030  0.00  0.00    +0.000 A 
ATOM     10  C   UNL     1       2.099   6.833  19.825  0.00  0.00    +0.000 A 
ATOM     11  C   UNL     1       1.989   5.656  20.750  0.00  0.00    +0.000 C 
ENDROOT
BRANCH   1  12
ATOM     12  N   UNL     1       4.039   5.902  18.636  0.00  0.00    +0.000 N 
ATOM     13  H   UNL     1       4.864   6.114  19.188  0.00  0.00    +0.000 HD
BRANCH  12  19
ATOM     14  C   UNL     1       6.348   3.733  13.805  0.00  0.00    +0.000 C 
ATOM     15  C   UNL     1       5.710   4.352  15.012  0.00  0.00    +0.000 A 
ATOM     16  C   UNL     1       6.260   5.485  15.605  0.00  0.00    +0.000 A 
ATOM     17  C   UNL     1       5.714   6.042  16.780  0.00  0.00    +0.000 A 
ATOM     18  C   UNL     1       6.449   7.231  17.343  0.00  0.00    +0.000 C 
ATOM     19  C   UNL     1       4.540   5.485  17.354  0.00  0.00    +0.000 A 
ATOM     20  C   UNL     1       3.985   4.328  16.749  0.00  0.00    +0.000 A 
ATOM     21  C   UNL     1       2.776   3.613  17.294  0.00  0.00    +0.000 C 
ATOM     22  C   UNL     1       4.581   3.771  15.594  0.00  0.00    +0.000 A 
ENDBRANCH  12  19
ENDBRANCH   1  12
BRANCH   7  23
ATOM     23  N   UNL     1      -0.734  10.440  20.082  0.00  0.00    +0.000 N 
BRANCH  23  24
ATOM     24  C   UNL     1      -0.751  10.722  21.538  0.00  0.00    +0.000 C 
BRANCH  24  25
ATOM     25  C   UNL     1      -1.394  12.067  21.907  0.00  0.00    +0.000 C 
ATOM     26  C   UNL     1      -0.372  13.179  22.188  0.00  0.00    +0.000 C 
ATOM     27  C   UNL     1      -1.085  14.441  22.670  0.00  0.00    +0.000 C 
ATOM     28  O   UNL     1      -1.876  14.180  23.831  0.00  0.00    +0.000 OA
ATOM     29  C   UNL     1      -2.882  13.196  23.594  0.00  0.00    +0.000 C 
ATOM     30  C   UNL     1      -2.241  11.880  23.183  0.00  0.00    +0.000 C 
ENDBRANCH  24  25
ENDBRANCH  23  24
BRANCH  23  31
ATOM     31  C   UNL     1      -1.833  11.024  19.274  0.00  0.00    +0.000 C 
BRANCH  31  32
ATOM     32  C   UNL     1      -2.555  10.138  18.288  0.00  0.00    +0.000 C 
ATOM     33  C   UNL     1      -3.245  10.599  17.019  0.00  0.00    +0.000 C 
ATOM     34  C   UNL     1      -1.906   9.939  16.934  0.00  0.00    +0.000 C 
ENDBRANCH  31  32
ENDBRANCH  23  31
ENDBRANCH   7  23
TORSDOF 7
ENDMDL
MODEL 5
REMARK VINA RESULT:      -7.2      1.635      3.415
REMARK  Name = 
REMARK  11 active torsions:
REMARK  status: ('A' for Active; 'I' for Inactive)
REMARK    1  A    between atoms: C_1  and  C_2
REMARK    2  A    between atoms: C_4  and  C_5
REMARK    3  A    between atoms: C_6  and  N_7
REMARK    4  A    between atoms: N_7  and  C_8
REMARK    5  A    between atoms: C_14  and  N_15
REMARK    6  A    between atoms: N_15  and  C_16
REMARK    7  A    between atoms: N_15  and  C_23
REMARK    8  A    between atoms: C_16  and  C_17
REMARK    9  A    between atoms: C_23  and  C_24
REMARK   10  A    between atoms: C_29  and  C_30
REMARK   11  A    between atoms: C_31  and  C_32
REMARK                            x       y       z     vdW  Elec       q    Type
REMARK                         _______ _______ _______ _____ _____    ______ ____
ROOT
ATOM      1  C   UNL     1       2.092   8.136  20.188  0.00  0.00    +0.000 A 
ATOM      2  N   UNL     1       1.676   8.504  21.413  0.00  0.00    +0.000 NA
ATOM      3  C   UNL     1       0.711   9.422  21.562  0.00  0.00    +0.000 A 
ATOM      4  C   UNL     1       0.174   9.486  22.829  0.00  0.00    +0.000 A 
ATOM      5  C   UNL     1      -0.940  10.265  23.097  0.00  0.00    +0.000 A 
ATOM      6  C   UNL     1      -1.437  11.116  22.114  0.00  0.00    +0.000 A 
ATOM      7  C   UNL     1      -0.840  11.226  20.840  0.00  0.00    +0.000 A 
ATOM      8  C   UNL     1       0.168  10.215  20.525  0.00  0.00    +0.000 A 
ATOM      9  C   UNL     1       0.674   9.840  19.251  0.00  0.00    +0.000 A 
ATOM     10  C   UNL     1       1.636   8.821  19.063  0.00  0.00    +0.000 A 
ATOM     11  C   UNL     1       2.031   8.442  17.665  0.00  0.00    +0.000 C 
ENDROOT
BRANCH   1  12
ATOM     12  N   UNL     1       2.977   7.028  20.082  0.00  0.00    +0.000 N 
ATOM     13  H   UNL     1       3.908   7.373  19.868  0.00  0.00    +0.000 HD
BRANCH  12  19
ATOM     14  C   UNL     1       2.512   2.144  17.033  0.00  0.00    +0.000 C 
ATOM     15  C   UNL     1       2.588   3.449  17.766  0.00  0.00    +0.000 A 
ATOM     16  C   UNL     1       3.525   4.413  17.407  0.00  0.00    +0.000 A 
ATOM     17  C   UNL     1       3.657   5.618  18.127  0.00  0.00    +0.000 A 
ATOM     18  C   UNL     1       4.753   6.542  17.663  0.00  0.00    +0.000 C 
ATOM     19  C   UNL     1       2.782   5.901  19.210  0.00  0.00    +0.000 A 
ATOM     20  C   UNL     1       1.830   4.914  19.575  0.00  0.00    +0.000 A 
ATOM     21  C   UNL     1       0.885   5.071  20.738  0.00  0.00    +0.000 C 
ATOM     22  C   UNL     1       1.751   3.699  18.857  0.00  0.00    +0.000 A 
ENDBRANCH  12  19
ENDBRANCH   1  12
BRANCH   7  23
ATOM     23  N   UNL     1      -1.234  12.293  19.957  0.00  0.00    +0.000 N 
BRANCH  23  24
ATOM     24  C   UNL     1      -0.683  13.651  20.183  0.00  0.00    +0.000 C 
BRANCH  24  25
ATOM     25  C   UNL     1       0.513  13.999  19.284  0.00  0.00    +0.000 C 
ATOM     26  C   UNL     1       1.833  13.363  19.745  0.00  0.00    +0.000 C 
ATOM     27  C   UNL     1       2.988  13.859  18.878  0.00  0.00    +0.000 C 
ATOM     28  O   UNL     1       3.082  15.284  18.902  0.00  0.00    +0.000 OA
ATOM     29  C   UNL     1       1.896  15.916  18.420  0.00  0.00    +0.000 C 
ATOM     30  C   UNL     1       0.707  15.530  19.286  0.00  0.00    +0.000 C 
ENDBRANCH  24  25
ENDBRANCH  23  24
BRANCH  23  31
ATOM     31  C   UNL     1      -1.444  11.883  18.547  0.00  0.00    +0.000 C 
BRANCH  31  32
ATOM     32  C   UNL     1      -2.647  11.033  18.212  0.00  0.00    +0.000 C 
ATOM     33  C   UNL     1      -3.385  11.021  16.888  0.00  0.00    +0.000 C 
ATOM     34  C   UNL     1      -2.443   9.908  17.219  0.00  0.00    +0.000 C 
ENDBRANCH  31  32
ENDBRANCH  23  31
ENDBRANCH   7  23
TORSDOF 7
ENDMDL
MODEL 6
REMARK VINA RESULT:      -7.2      2.913      5.705
REMARK  Name = 
REMARK  11 active torsions:
REMARK  status: ('A' for Active; 'I' for Inactive)
REMARK    1  A    between atoms: C_1  and  C_2
REMARK    2  A    between atoms: C_4  and  C_5
REMARK    3  A    between atoms: C_6  and  N_7
REMARK    4  A    between atoms: N_7  and  C_8
REMARK    5  A    between atoms: C_14  and  N_15
REMARK    6  A    between atoms: N_15  and  C_16
REMARK    7  A    between atoms: N_15  and  C_23
REMARK    8  A    between atoms: C_16  and  C_17
REMARK    9  A    between atoms: C_23  and  C_24
REMARK   10  A    between atoms: C_29  and  C_30
REMARK   11  A    between atoms: C_31  and  C_32
REMARK                            x       y       z     vdW  Elec       q    Type
REMARK                         _______ _______ _______ _____ _____    ______ ____
ROOT
ATOM      1  C   UNL     1      -0.620  11.072  19.397  0.00  0.00    +0.000 A 
ATOM      2  N   UNL     1      -1.208  10.467  18.350  0.00  0.00    +0.000 NA
ATOM      3  C   UNL     1      -2.432  10.833  17.945  0.00  0.00    +0.000 A 
ATOM      4  C   UNL     1      -2.789  10.359  16.702  0.00  0.00    +0.000 A 
ATOM      5  C   UNL     1      -3.951  10.785  16.079  0.00  0.00    +0.000 A 
ATOM      6  C   UNL     1      -4.852  11.585  16.775  0.00  0.00    +0.000 A 
ATOM      7  C   UNL     1      -4.632  11.981  18.113  0.00  0.00    +0.000 A 
ATOM      8  C   UNL     1      -3.293  11.716  18.638  0.00  0.00    +0.000 A 
ATOM      9  C   UNL     1      -2.661  12.292  19.773  0.00  0.00    +0.000 A 
ATOM     10  C   UNL     1      -1.341  11.977  20.173  0.00  0.00    +0.000 A 
ATOM     11  C   UNL     1      -0.738  12.714  21.334  0.00  0.00    +0.000 C 
ENDROOT
BRANCH   1  12
ATOM     12  N   UNL     1       0.746  10.780  19.663  0.00  0.00    +0.000 N 
ATOM     13  H   UNL     1       1.313  11.147  18.905  0.00  0.00    +0.000 HD
BRANCH  12  19
ATOM     14  C   UNL     1       2.325   5.270  20.378  0.00  0.00    +0.000 C 
ATOM     15  C   UNL     1       1.985   6.722  20.230  0.00  0.00    +0.000 A 
ATOM     16  C   UNL     1       1.413   7.430  21.283  0.00  0.00    +0.000 A 
ATOM     17  C   UNL     1       1.024   8.778  21.141  0.00  0.00    +0.000 A 
ATOM     18  C   UNL     1       0.363   9.398  22.344  0.00  0.00    +0.000 C 
ATOM     19  C   UNL     1       1.270   9.466  19.923  0.00  0.00    +0.000 A 
ATOM     20  C   UNL     1       1.850   8.740  18.851  0.00  0.00    +0.000 A 
ATOM     21  C   UNL     1       2.109   9.340  17.494  0.00  0.00    +0.000 C 
ATOM     22  C   UNL     1       2.191   7.377  19.014  0.00  0.00    +0.000 A 
ENDBRANCH  12  19
ENDBRANCH   1  12
BRANCH   7  23
ATOM     23  N   UNL     1      -5.700  12.590  18.862  0.00  0.00    +0.000 N 
BRANCH  23  24
ATOM     24  C   UNL     1      -7.037  12.713  18.233  0.00  0.00    +0.000 C 
BRANCH  24  25
ATOM     25  C   UNL     1      -7.426  14.153  17.867  0.00  0.00    +0.000 C 
ATOM     26  C   UNL     1      -7.210  14.489  16.383  0.00  0.00    +0.000 C 
ATOM     27  C   UNL     1      -7.497  15.968  16.130  0.00  0.00    +0.000 C 
ATOM     28  O   UNL     1      -6.687  16.804  16.958  0.00  0.00    +0.000 OA
ATOM     29  C   UNL     1      -6.904  16.568  18.348  0.00  0.00    +0.000 C 
ATOM     30  C   UNL     1      -6.563  15.128  18.696  0.00  0.00    +0.000 C 
ENDBRANCH  24  25
ENDBRANCH  23  24
BRANCH  23  31
ATOM     31  C   UNL     1      -5.669  12.312  20.319  0.00  0.00    +0.000 C 
BRANCH  31  32
ATOM     32  C   UNL     1      -6.817  12.795  21.172  0.00  0.00    +0.000 C 
ATOM     33  C   UNL     1      -7.910  11.927  21.765  0.00  0.00    +0.000 C 
ATOM     34  C   UNL     1      -6.797  12.413  22.637  0.00  0.00    +0.000 C 
ENDBRANCH  31  32
ENDBRANCH  23  31
ENDBRANCH   7  23
TORSDOF 7
ENDMDL
MODEL 7
REMARK VINA RESULT:      -7.1      2.404      4.743
REMARK  Name = 
REMARK  11 active torsions:
REMARK  status: ('A' for Active; 'I' for Inactive)
REMARK    1  A    between atoms: C_1  and  C_2
REMARK    2  A    between atoms: C_4  and  C_5
REMARK    3  A    between atoms: C_6  and  N_7
REMARK    4  A    between atoms: N_7  and  C_8
REMARK    5  A    between atoms: C_14  and  N_15
REMARK    6  A    between atoms: N_15  and  C_16
REMARK    7  A    between atoms: N_15  and  C_23
REMARK    8  A    between atoms: C_16  and  C_17
REMARK    9  A    between atoms: C_23  and  C_24
REMARK   10  A    between atoms: C_29  and  C_30
REMARK   11  A    between atoms: C_31  and  C_32
REMARK                            x       y       z     vdW  Elec       q    Type
REMARK                         _______ _______ _______ _____ _____    ______ ____
ROOT
ATOM      1  C   UNL     1       3.156   5.831  19.282  0.00  0.00    +0.000 A 
ATOM      2  N   UNL     1       3.180   6.821  18.372  0.00  0.00    +0.000 NA
ATOM      3  C   UNL     1       2.487   7.951  18.569  0.00  0.00    +0.000 A 
ATOM      4  C   UNL     1       2.831   8.986  17.728  0.00  0.00    +0.000 A 
ATOM      5  C   UNL     1       2.323  10.261  17.915  0.00  0.00    +0.000 A 
ATOM      6  C   UNL     1       1.333  10.474  18.871  0.00  0.00    +0.000 A 
ATOM      7  C   UNL     1       0.813   9.428  19.663  0.00  0.00    +0.000 A 
ATOM      8  C   UNL     1       1.547   8.164  19.603  0.00  0.00    +0.000 A 
ATOM      9  C   UNL     1       1.502   7.074  20.513  0.00  0.00    +0.000 A 
ATOM     10  C   UNL     1       2.284   5.904  20.366  0.00  0.00    +0.000 A 
ATOM     11  C   UNL     1       2.228   4.853  21.437  0.00  0.00    +0.000 C 
ENDROOT
BRANCH   1  12
ATOM     12  N   UNL     1       4.054   4.741  19.116  0.00  0.00    +0.000 N 
ATOM     13  H   UNL     1       4.720   4.747  19.883  0.00  0.00    +0.000 HD
BRANCH  12  19
ATOM     14  C   UNL     1       7.117   4.393  14.231  0.00  0.00    +0.000 C 
ATOM     15  C   UNL     1       6.342   4.405  15.513  0.00  0.00    +0.000 A 
ATOM     16  C   UNL     1       5.045   3.903  15.566  0.00  0.00    +0.000 A 
ATOM     17  C   UNL     1       4.275   3.966  16.745  0.00  0.00    +0.000 A 
ATOM     18  C   UNL     1       2.868   3.439  16.638  0.00  0.00    +0.000 C 
ATOM     19  C   UNL     1       4.840   4.496  17.936  0.00  0.00    +0.000 A 
ATOM     20  C   UNL     1       6.160   5.011  17.878  0.00  0.00    +0.000 A 
ATOM     21  C   UNL     1       6.849   5.648  19.057  0.00  0.00    +0.000 C 
ATOM     22  C   UNL     1       6.890   4.968  16.668  0.00  0.00    +0.000 A 
ENDBRANCH  12  19
ENDBRANCH   1  12
BRANCH   7  23
ATOM     23  N   UNL     1      -0.373   9.650  20.450  0.00  0.00    +0.000 N 
BRANCH  23  24
ATOM     24  C   UNL     1      -0.246  10.327  21.762  0.00  0.00    +0.000 C 
BRANCH  24  25
ATOM     25  C   UNL     1      -1.087  11.606  21.890  0.00  0.00    +0.000 C 
ATOM     26  C   UNL     1      -0.247  12.893  21.915  0.00  0.00    +0.000 C 
ATOM     27  C   UNL     1      -1.144  14.103  22.172  0.00  0.00    +0.000 C 
ATOM     28  O   UNL     1      -1.878  13.957  23.389  0.00  0.00    +0.000 OA
ATOM     29  C   UNL     1      -2.721  12.806  23.382  0.00  0.00    +0.000 C 
ATOM     30  C   UNL     1      -1.887  11.546  23.208  0.00  0.00    +0.000 C 
ENDBRANCH  24  25
ENDBRANCH  23  24
BRANCH  23  31
ATOM     31  C   UNL     1      -1.593   9.946  19.658  0.00  0.00    +0.000 C 
BRANCH  31  32
ATOM     32  C   UNL     1      -1.433  10.533  18.276  0.00  0.00    +0.000 C 
ATOM     33  C   UNL     1      -2.017   9.967  16.997  0.00  0.00    +0.000 C 
ATOM     34  C   UNL     1      -2.661  11.151  17.642  0.00  0.00    +0.000 C 
ENDBRANCH  31  32
ENDBRANCH  23  31
ENDBRANCH   7  23
TORSDOF 7
ENDMDL
MODEL 8
REMARK VINA RESULT:      -7.1      2.908      8.821
REMARK  Name = 
REMARK  11 active torsions:
REMARK  status: ('A' for Active; 'I' for Inactive)
REMARK    1  A    between atoms: C_1  and  C_2
REMARK    2  A    between atoms: C_4  and  C_5
REMARK    3  A    between atoms: C_6  and  N_7
REMARK    4  A    between atoms: N_7  and  C_8
REMARK    5  A    between atoms: C_14  and  N_15
REMARK    6  A    between atoms: N_15  and  C_16
REMARK    7  A    between atoms: N_15  and  C_23
REMARK    8  A    between atoms: C_16  and  C_17
REMARK    9  A    between atoms: C_23  and  C_24
REMARK   10  A    between atoms: C_29  and  C_30
REMARK   11  A    between atoms: C_31  and  C_32
REMARK                            x       y       z     vdW  Elec       q    Type
REMARK                         _______ _______ _______ _____ _____    ______ ____
ROOT
ATOM      1  C   UNL     1       0.775  10.825  19.590  0.00  0.00    +0.000 A 
ATOM      2  N   UNL     1       0.428   9.769  20.347  0.00  0.00    +0.000 NA
ATOM      3  C   UNL     1       1.014   8.577  20.170  0.00  0.00    +0.000 A 
ATOM      4  C   UNL     1       0.794   7.676  21.188  0.00  0.00    +0.000 A 
ATOM      5  C   UNL     1       1.465   6.464  21.231  0.00  0.00    +0.000 A 
ATOM      6  C   UNL     1       2.259   6.079  20.154  0.00  0.00    +0.000 A 
ATOM      7  C   UNL     1       2.404   6.880  19.000  0.00  0.00    +0.000 A 
ATOM      8  C   UNL     1       1.883   8.242  19.107  0.00  0.00    +0.000 A 
ATOM      9  C   UNL     1       2.182   9.367  18.292  0.00  0.00    +0.000 A 
ATOM     10  C   UNL     1       1.634  10.653  18.507  0.00  0.00    +0.000 A 
ATOM     11  C   UNL     1       2.091  11.792  17.642  0.00  0.00    +0.000 C 
ENDROOT
BRANCH   1  12
ATOM     12  N   UNL     1       0.264  12.105  19.944  0.00  0.00    +0.000 N 
ATOM     13  H   UNL     1       0.738  12.425  20.783  0.00  0.00    +0.000 HD
BRANCH  12  19
ATOM     14  C   UNL     1      -5.364  12.708  21.095  0.00  0.00    +0.000 C 
ATOM     15  C   UNL     1      -3.904  12.629  20.767  0.00  0.00    +0.000 A 
ATOM     16  C   UNL     1      -3.480  12.332  19.475  0.00  0.00    +0.000 A 
ATOM     17  C   UNL     1      -2.113  12.187  19.162  0.00  0.00    +0.000 A 
ATOM     18  C   UNL     1      -1.805  11.806  17.737  0.00  0.00    +0.000 C 
ATOM     19  C   UNL     1      -1.127  12.403  20.160  0.00  0.00    +0.000 A 
ATOM     20  C   UNL     1      -1.562  12.701  21.477  0.00  0.00    +0.000 A 
ATOM     21  C   UNL     1      -0.617  12.897  22.633  0.00  0.00    +0.000 C 
ATOM     22  C   UNL     1      -2.943  12.800  21.766  0.00  0.00    +0.000 A 
ENDBRANCH  12  19
ENDBRANCH   1  12
BRANCH   7  23
ATOM     23  N   UNL     1       3.025   6.330  17.823  0.00  0.00    +0.000 N 
BRANCH  23  24
ATOM     24  C   UNL     1       4.406   6.746  17.480  0.00  0.00    +0.000 C 
BRANCH  24  25
ATOM     25  C   UNL     1       5.360   5.576  17.198  0.00  0.00    +0.000 C 
ATOM     26  C   UNL     1       6.672   5.649  17.994  0.00  0.00    +0.000 C 
ATOM     27  C   UNL     1       7.613   4.525  17.563  0.00  0.00    +0.000 C 
ATOM     28  O   UNL     1       7.873   4.575  16.159  0.00  0.00    +0.000 OA
ATOM     29  C   UNL     1       6.685   4.446  15.380  0.00  0.00    +0.000 C 
ATOM     30  C   UNL     1       5.724   5.581  15.698  0.00  0.00    +0.000 C 
ENDBRANCH  24  25
ENDBRANCH  23  24
BRANCH  23  31
ATOM     31  C   UNL     1       2.658   4.922  17.532  0.00  0.00    +0.000 C 
BRANCH  31  32
ATOM     32  C   UNL     1       3.109   3.844  18.489  0.00  0.00    +0.000 C 
ATOM     33  C   UNL     1       2.352   2.572  18.816  0.00  0.00    +0.000 C 
ATOM     34  C   UNL     1       3.523   2.517  17.889  0.00  0.00    +0.000 C 
ENDBRANCH  31  32
ENDBRANCH  23  31
ENDBRANCH   7  23
TORSDOF 7
ENDMDL
MODEL 9
REMARK VINA RESULT:      -7.1      2.658      8.568
REMARK  Name = 
REMARK  11 active torsions:
REMARK  status: ('A' for Active; 'I' for Inactive)
REMARK    1  A    between atoms: C_1  and  C_2
REMARK    2  A    between atoms: C_4  and  C_5
REMARK    3  A    between atoms: C_6  and  N_7
REMARK    4  A    between atoms: N_7  and  C_8
REMARK    5  A    between atoms: C_14  and  N_15
REMARK    6  A    between atoms: N_15  and  C_16
REMARK    7  A    between atoms: N_15  and  C_23
REMARK    8  A    between atoms: C_16  and  C_17
REMARK    9  A    between atoms: C_23  and  C_24
REMARK   10  A    between atoms: C_29  and  C_30
REMARK   11  A    between atoms: C_31  and  C_32
REMARK                            x       y       z     vdW  Elec       q    Type
REMARK                         _______ _______ _______ _____ _____    ______ ____
ROOT
ATOM      1  C   UNL     1      -1.601  11.249  19.435  0.00  0.00    +0.000 A 
ATOM      2  N   UNL     1      -1.193  10.997  20.692  0.00  0.00    +0.000 NA
ATOM      3  C   UNL     1      -0.231  10.096  20.933  0.00  0.00    +0.000 A 
ATOM      4  C   UNL     1       0.298  10.151  22.203  0.00  0.00    +0.000 A 
ATOM      5  C   UNL     1       1.408   9.399  22.551  0.00  0.00    +0.000 A 
ATOM      6  C   UNL     1       1.910   8.458  21.656  0.00  0.00    +0.000 A 
ATOM      7  C   UNL     1       1.320   8.229  20.394  0.00  0.00    +0.000 A 
ATOM      8  C   UNL     1       0.316   9.208  19.978  0.00  0.00    +0.000 A 
ATOM      9  C   UNL     1      -0.181   9.461  18.672  0.00  0.00    +0.000 A 
ATOM     10  C   UNL     1      -1.140  10.460  18.383  0.00  0.00    +0.000 A 
ATOM     11  C   UNL     1      -1.525  10.706  16.953  0.00  0.00    +0.000 C 
ENDROOT
BRANCH   1  12
ATOM     12  N   UNL     1      -2.483  12.343  19.219  0.00  0.00    +0.000 N 
ATOM     13  H   UNL     1      -2.029  13.195  19.535  0.00  0.00    +0.000 HD
BRANCH  12  19
ATOM     14  C   UNL     1      -7.731  12.169  21.625  0.00  0.00    +0.000 C 
ATOM     15  C   UNL     1      -6.394  12.280  20.957  0.00  0.00    +0.000 A 
ATOM     16  C   UNL     1      -6.187  11.751  19.687  0.00  0.00    +0.000 A 
ATOM     17  C   UNL     1      -4.920  11.785  19.070  0.00  0.00    +0.000 A 
ATOM     18  C   UNL     1      -4.829  11.121  17.721  0.00  0.00    +0.000 C 
ATOM     19  C   UNL     1      -3.829  12.425  19.719  0.00  0.00    +0.000 A 
ATOM     20  C   UNL     1      -4.043  12.959  21.015  0.00  0.00    +0.000 A 
ATOM     21  C   UNL     1      -2.955  13.612  21.827  0.00  0.00    +0.000 C 
ATOM     22  C   UNL     1      -5.318  12.872  21.622  0.00  0.00    +0.000 A 
ENDBRANCH  12  19
ENDBRANCH   1  12
BRANCH   7  23
ATOM     23  N   UNL     1       1.717   7.083  19.618  0.00  0.00    +0.000 N 
BRANCH  23  24
ATOM     24  C   UNL     1       2.479   7.295  18.364  0.00  0.00    +0.000 C 
BRANCH  24  25
ATOM     25  C   UNL     1       3.692   6.366  18.205  0.00  0.00    +0.000 C 
ATOM     26  C   UNL     1       4.850   6.998  17.416  0.00  0.00    +0.000 C 
ATOM     27  C   UNL     1       5.958   5.971  17.193  0.00  0.00    +0.000 C 
ATOM     28  O   UNL     1       5.465   4.812  16.520  0.00  0.00    +0.000 OA
ATOM     29  C   UNL     1       4.430   4.157  17.252  0.00  0.00    +0.000 C 
ATOM     30  C   UNL     1       3.251   5.096  17.447  0.00  0.00    +0.000 C 
ENDBRANCH  24  25
ENDBRANCH  23  24
BRANCH  23  31
ATOM     31  C   UNL     1       2.068   5.885  20.421  0.00  0.00    +0.000 C 
BRANCH  31  32
ATOM     32  C   UNL     1       1.069   4.756  20.510  0.00  0.00    +0.000 C 
ATOM     33  C   UNL     1       1.134   3.451  19.741  0.00  0.00    +0.000 C 
ATOM     34  C   UNL     1       1.529   3.479  21.182  0.00  0.00    +0.000 C 
ENDBRANCH  31  32
ENDBRANCH  23  31
ENDBRANCH   7  23
TORSDOF 7
ENDMDL
