MODEL 1
REMARK VINA RESULT:      -8.8      0.000      0.000
REMARK  Name = 
REMARK  7 active torsions:
REMARK  status: ('A' for Active; 'I' for Inactive)
REMARK    1  A    between atoms: C_1  and  O_2
REMARK    2  A    between atoms: O_2  and  C_3
REMARK    3  A    between atoms: C_6  and  C_7
REMARK    4  A    between atoms: N_16  and  C_17
REMARK    5  A    between atoms: C_17  and  C_18
REMARK    6  A    between atoms: C_27  and  O_28
REMARK    7  A    between atoms: O_28  and  C_29
REMARK                            x       y       z     vdW  Elec       q    Type
REMARK                         _______ _______ _______ _____ _____    ______ ____
ROOT
ATOM      1  C   UNL     1       4.452   3.339  17.620  0.00  0.00    +0.000 A 
ATOM      2  C   UNL     1       4.076   2.010  17.732  0.00  0.00    +0.000 A 
ATOM      3  N   UNL     1       3.263   1.548  18.714  0.00  0.00    +0.000 NA
ATOM      4  C   UNL     1       2.802   2.425  19.610  0.00  0.00    +0.000 A 
ATOM      5  N   UNL     1       2.019   1.951  20.572  0.00  0.00    +0.000 NA
ATOM      6  C   UNL     1       1.575   2.815  21.474  0.00  0.00    +0.000 A 
ATOM      7  N   UNL     1       0.791   2.321  22.493  0.00  0.00    +0.000 N 
ATOM      8  N   UNL     1       1.807   4.124  21.452  0.00  0.00    +0.000 NA
ATOM      9  C   UNL     1       2.566   4.606  20.452  0.00  0.00    +0.000 A 
ATOM     10  N   UNL     1       2.765   6.001  20.504  0.00  0.00    +0.000 N 
ATOM     11  C   UNL     1       3.156   3.772  19.503  0.00  0.00    +0.000 A 
ATOM     12  N   UNL     1       4.000   4.221  18.526  0.00  0.00    +0.000 NA
ATOM     13  H   UNL     1       0.362   1.449  22.218  0.00  0.00    +0.000 HD
ATOM     14  H   UNL     1       0.188   3.046  22.857  0.00  0.00    +0.000 HD
ATOM     15  H   UNL     1       3.518   6.172  21.166  0.00  0.00    +0.000 HD
ENDROOT
BRANCH   1  19
ATOM     16  C   UNL     1       6.910   5.044  14.519  0.00  0.00    +0.000 A 
ATOM     17  C   UNL     1       6.155   3.888  14.282  0.00  0.00    +0.000 A 
ATOM     18  C   UNL     1       5.363   3.333  15.289  0.00  0.00    +0.000 A 
ATOM     19  C   UNL     1       5.337   3.884  16.580  0.00  0.00    +0.000 A 
ATOM     20  C   UNL     1       6.195   4.962  16.828  0.00  0.00    +0.000 A 
ATOM     21  C   UNL     1       6.977   5.552  15.822  0.00  0.00    +0.000 A 
BRANCH  16  23
ATOM     22  C   UNL     1       7.576   4.966  12.250  0.00  0.00    +0.000 C 
ATOM     23  O   UNL     1       7.600   5.651  13.505  0.00  0.00    +0.000 OA
ENDBRANCH  16  23
BRANCH  21  24
ATOM     24  O   UNL     1       7.700   6.606  16.309  0.00  0.00    +0.000 OA
ATOM     25  C   UNL     1       7.319   7.198  17.539  0.00  0.00    +0.000 C 
ENDBRANCH  21  24
ENDBRANCH   1  19
BRANCH  10  26
ATOM     26  C   UNL     1       3.068   6.680  19.243  0.00  0.00    +0.000 C 
BRANCH  26  27
ATOM     27  C   UNL     1       2.238   7.933  19.123  0.00  0.00    +0.000 A 
ATOM     28  C   UNL     1       2.163   8.636  17.912  0.00  0.00    +0.000 A 
ATOM     29  C   UNL     1       1.357   9.769  17.805  0.00  0.00    +0.000 A 
ATOM     30  C   UNL     1       0.616  10.207  18.902  0.00  0.00    +0.000 A 
ATOM     31  C   UNL     1       0.674   9.507  20.107  0.00  0.00    +0.000 A 
ATOM     32  C   UNL     1       1.478   8.376  20.215  0.00  0.00    +0.000 A 
ENDBRANCH  26  27
ENDBRANCH  10  26
TORSDOF 5
ENDMDL
MODEL 2
REMARK VINA RESULT:      -8.6      3.445      6.838
REMARK  Name = 
REMARK  7 active torsions:
REMARK  status: ('A' for Active; 'I' for Inactive)
REMARK    1  A    between atoms: C_1  and  O_2
REMARK    2  A    between atoms: O_2  and  C_3
REMARK    3  A    between atoms: C_6  and  C_7
REMARK    4  A    between atoms: N_16  and  C_17
REMARK    5  A    between atoms: C_17  and  C_18
REMARK    6  A    between atoms: C_27  and  O_28
REMARK    7  A    between atoms: O_28  and  C_29
REMARK                            x       y       z     vdW  Elec       q    Type
REMARK                         _______ _______ _______ _____ _____    ______ ____
ROOT
ATOM      1  C   UNL     1       2.028   6.463  19.898  0.00  0.00    +0.000 A 
ATOM      2  C   UNL     1       1.691   5.535  20.870  0.00  0.00    +0.000 A 
ATOM      3  N   UNL     1       2.024   4.223  20.792  0.00  0.00    +0.000 NA
ATOM      4  C   UNL     1       2.714   3.814  19.724  0.00  0.00    +0.000 A 
ATOM      5  N   UNL     1       3.018   2.522  19.659  0.00  0.00    +0.000 NA
ATOM      6  C   UNL     1       3.686   2.109  18.592  0.00  0.00    +0.000 A 
ATOM      7  N   UNL     1       3.973   0.765  18.504  0.00  0.00    +0.000 N 
ATOM      8  N   UNL     1       4.124   2.899  17.617  0.00  0.00    +0.000 NA
ATOM      9  C   UNL     1       3.851   4.213  17.707  0.00  0.00    +0.000 A 
ATOM     10  N   UNL     1       4.348   4.978  16.633  0.00  0.00    +0.000 N 
ATOM     11  C   UNL     1       3.078   4.738  18.742  0.00  0.00    +0.000 A 
ATOM     12  N   UNL     1       2.712   6.052  18.817  0.00  0.00    +0.000 NA
ATOM     13  H   UNL     1       3.959   0.340  19.421  0.00  0.00    +0.000 HD
ATOM     14  H   UNL     1       4.790   0.615  17.929  0.00  0.00    +0.000 HD
ATOM     15  H   UNL     1       3.684   4.887  15.867  0.00  0.00    +0.000 HD
ENDROOT
BRANCH   1  19
ATOM     16  C   UNL     1       0.847  10.606  19.966  0.00  0.00    +0.000 A 
ATOM     17  C   UNL     1       1.295  10.007  18.782  0.00  0.00    +0.000 A 
ATOM     18  C   UNL     1       1.683   8.666  18.762  0.00  0.00    +0.000 A 
ATOM     19  C   UNL     1       1.683   7.891  19.933  0.00  0.00    +0.000 A 
ATOM     20  C   UNL     1       1.351   8.544  21.126  0.00  0.00    +0.000 A 
ATOM     21  C   UNL     1       0.931   9.884  21.163  0.00  0.00    +0.000 A 
BRANCH  16  23
ATOM     22  C   UNL     1      -1.060  12.004  19.894  0.00  0.00    +0.000 C 
ATOM     23  O   UNL     1       0.363  11.886  19.965  0.00  0.00    +0.000 OA
ENDBRANCH  16  23
BRANCH  21  24
ATOM     24  O   UNL     1       0.633  10.276  22.438  0.00  0.00    +0.000 OA
ATOM     25  C   UNL     1      -0.479   9.696  23.099  0.00  0.00    +0.000 C 
ENDBRANCH  21  24
ENDBRANCH   1  19
BRANCH  10  26
ATOM     26  C   UNL     1       4.603   6.397  16.883  0.00  0.00    +0.000 C 
BRANCH  26  27
ATOM     27  C   UNL     1       5.953   6.571  17.531  0.00  0.00    +0.000 A 
ATOM     28  C   UNL     1       6.742   7.699  17.266  0.00  0.00    +0.000 A 
ATOM     29  C   UNL     1       7.969   7.866  17.905  0.00  0.00    +0.000 A 
ATOM     30  C   UNL     1       8.417   6.912  18.819  0.00  0.00    +0.000 A 
ATOM     31  C   UNL     1       7.634   5.793  19.099  0.00  0.00    +0.000 A 
ATOM     32  C   UNL     1       6.409   5.625  18.461  0.00  0.00    +0.000 A 
ENDBRANCH  26  27
ENDBRANCH  10  26
TORSDOF 5
ENDMDL
MODEL 3
REMARK VINA RESULT:      -8.2      4.410      7.382
REMARK  Name = 
REMARK  7 active torsions:
REMARK  status: ('A' for Active; 'I' for Inactive)
REMARK    1  A    between atoms: C_1  and  O_2
REMARK    2  A    between atoms: O_2  and  C_3
REMARK    3  A    between atoms: C_6  and  C_7
REMARK    4  A    between atoms: N_16  and  C_17
REMARK    5  A    between atoms: C_17  and  C_18
REMARK    6  A    between atoms: C_27  and  O_28
REMARK    7  A    between atoms: O_28  and  C_29
REMARK                            x       y       z     vdW  Elec       q    Type
REMARK                         _______ _______ _______ _____ _____    ______ ____
ROOT
ATOM      1  C   UNL     1       1.137   8.777  20.951  0.00  0.00    +0.000 A 
ATOM      2  C   UNL     1       1.276   8.820  22.328  0.00  0.00    +0.000 A 
ATOM      3  N   UNL     1       0.642   9.727  23.112  0.00  0.00    +0.000 NA
ATOM      4  C   UNL     1      -0.158  10.617  22.519  0.00  0.00    +0.000 A 
ATOM      5  N   UNL     1      -0.758  11.507  23.302  0.00  0.00    +0.000 NA
ATOM      6  C   UNL     1      -1.537  12.403  22.715  0.00  0.00    +0.000 A 
ATOM      7  N   UNL     1      -2.134  13.348  23.519  0.00  0.00    +0.000 N 
ATOM      8  N   UNL     1      -1.808  12.440  21.414  0.00  0.00    +0.000 NA
ATOM      9  C   UNL     1      -1.231  11.511  20.630  0.00  0.00    +0.000 A 
ATOM     10  N   UNL     1      -1.568  11.623  19.266  0.00  0.00    +0.000 N 
ATOM     11  C   UNL     1      -0.324  10.579  21.132  0.00  0.00    +0.000 A 
ATOM     12  N   UNL     1       0.342   9.679  20.350  0.00  0.00    +0.000 NA
ATOM     13  H   UNL     1      -2.193  13.016  24.472  0.00  0.00    +0.000 HD
ATOM     14  H   UNL     1      -2.982  13.693  23.090  0.00  0.00    +0.000 HD
ATOM     15  H   UNL     1      -0.968  12.341  18.866  0.00  0.00    +0.000 HD
ENDROOT
BRANCH   1  19
ATOM     16  C   UNL     1       3.263   6.036  18.396  0.00  0.00    +0.000 A 
ATOM     17  C   UNL     1       2.882   7.301  17.932  0.00  0.00    +0.000 A 
ATOM     18  C   UNL     1       2.187   8.186  18.758  0.00  0.00    +0.000 A 
ATOM     19  C   UNL     1       1.808   7.821  20.060  0.00  0.00    +0.000 A 
ATOM     20  C   UNL     1       2.090   6.509  20.459  0.00  0.00    +0.000 A 
ATOM     21  C   UNL     1       2.811   5.612  19.653  0.00  0.00    +0.000 A 
BRANCH  16  23
ATOM     22  C   UNL     1       5.442   5.268  17.888  0.00  0.00    +0.000 C 
ATOM     23  O   UNL     1       4.037   5.210  17.628  0.00  0.00    +0.000 OA
ENDBRANCH  16  23
BRANCH  21  24
ATOM     24  O   UNL     1       2.985   4.410  20.279  0.00  0.00    +0.000 OA
ATOM     25  C   UNL     1       2.077   4.022  21.296  0.00  0.00    +0.000 C 
ENDBRANCH  21  24
ENDBRANCH   1  19
BRANCH  10  26
ATOM     26  C   UNL     1      -1.474  10.409  18.452  0.00  0.00    +0.000 C 
BRANCH  26  27
ATOM     27  C   UNL     1      -2.433  10.493  17.293  0.00  0.00    +0.000 A 
ATOM     28  C   UNL     1      -3.582  11.293  17.362  0.00  0.00    +0.000 A 
ATOM     29  C   UNL     1      -4.438  11.393  16.265  0.00  0.00    +0.000 A 
ATOM     30  C   UNL     1      -4.151  10.700  15.089  0.00  0.00    +0.000 A 
ATOM     31  C   UNL     1      -3.004   9.912  15.006  0.00  0.00    +0.000 A 
ATOM     32  C   UNL     1      -2.149   9.811  16.100  0.00  0.00    +0.000 A 
ENDBRANCH  26  27
ENDBRANCH  10  26
TORSDOF 5
ENDMDL
MODEL 4
REMARK VINA RESULT:      -8.0      3.350      7.387
REMARK  Name = 
REMARK  7 active torsions:
REMARK  status: ('A' for Active; 'I' for Inactive)
REMARK    1  A    between atoms: C_1  and  O_2
REMARK    2  A    between atoms: O_2  and  C_3
REMARK    3  A    between atoms: C_6  and  C_7
REMARK    4  A    between atoms: N_16  and  C_17
REMARK    5  A    between atoms: C_17  and  C_18
REMARK    6  A    between atoms: C_27  and  O_28
REMARK    7  A    between atoms: O_28  and  C_29
REMARK                            x       y       z     vdW  Elec       q    Type
REMARK                         _______ _______ _______ _____ _____    ______ ____
ROOT
ATOM      1  C   UNL     1       3.411   7.044  17.879  0.00  0.00    +0.000 A 
ATOM      2  C   UNL     1       4.234   7.865  17.126  0.00  0.00    +0.000 A 
ATOM      3  N   UNL     1       5.124   7.394  16.218  0.00  0.00    +0.000 NA
ATOM      4  C   UNL     1       5.201   6.072  16.042  0.00  0.00    +0.000 A 
ATOM      5  N   UNL     1       6.088   5.630  15.159  0.00  0.00    +0.000 NA
ATOM      6  C   UNL     1       6.180   4.318  14.996  0.00  0.00    +0.000 A 
ATOM      7  N   UNL     1       7.124   3.854  14.106  0.00  0.00    +0.000 N 
ATOM      8  N   UNL     1       5.412   3.421  15.605  0.00  0.00    +0.000 NA
ATOM      9  C   UNL     1       4.485   3.875  16.468  0.00  0.00    +0.000 A 
ATOM     10  N   UNL     1       3.716   2.860  17.072  0.00  0.00    +0.000 N 
ATOM     11  C   UNL     1       4.366   5.229  16.780  0.00  0.00    +0.000 A 
ATOM     12  N   UNL     1       3.494   5.713  17.713  0.00  0.00    +0.000 NA
ATOM     13  H   UNL     1       7.361   4.572  13.437  0.00  0.00    +0.000 HD
ATOM     14  H   UNL     1       6.854   2.948  13.747  0.00  0.00    +0.000 HD
ATOM     15  H   UNL     1       4.263   2.489  17.846  0.00  0.00    +0.000 HD
ENDROOT
BRANCH   1  19
ATOM     16  C   UNL     1       0.697   8.469  20.906  0.00  0.00    +0.000 A 
ATOM     17  C   UNL     1       1.257   7.188  20.990  0.00  0.00    +0.000 A 
ATOM     18  C   UNL     1       2.131   6.725  20.006  0.00  0.00    +0.000 A 
ATOM     19  C   UNL     1       2.438   7.506  18.880  0.00  0.00    +0.000 A 
ATOM     20  C   UNL     1       1.770   8.730  18.754  0.00  0.00    +0.000 A 
ATOM     21  C   UNL     1       0.909   9.225  19.747  0.00  0.00    +0.000 A 
BRANCH  16  23
ATOM     22  C   UNL     1       0.650   9.468  23.050  0.00  0.00    +0.000 C 
ATOM     23  O   UNL     1      -0.073   8.966  21.923  0.00  0.00    +0.000 OA
ENDBRANCH  16  23
BRANCH  21  24
ATOM     24  O   UNL     1       0.410  10.452  19.405  0.00  0.00    +0.000 OA
ATOM     25  C   UNL     1      -0.896  10.541  18.862  0.00  0.00    +0.000 C 
ENDBRANCH  21  24
ENDBRANCH   1  19
BRANCH  10  26
ATOM     26  C   UNL     1       2.385   3.227  17.556  0.00  0.00    +0.000 C 
BRANCH  26  27
ATOM     27  C   UNL     1       2.298   3.002  19.044  0.00  0.00    +0.000 A 
ATOM     28  C   UNL     1       3.434   2.657  19.789  0.00  0.00    +0.000 A 
ATOM     29  C   UNL     1       3.347   2.494  21.171  0.00  0.00    +0.000 A 
ATOM     30  C   UNL     1       2.126   2.680  21.821  0.00  0.00    +0.000 A 
ATOM     31  C   UNL     1       0.994   3.036  21.090  0.00  0.00    +0.000 A 
ATOM     32  C   UNL     1       1.080   3.199  19.710  0.00  0.00    +0.000 A 
ENDBRANCH  26  27
ENDBRANCH  10  26
TORSDOF 5
ENDMDL
MODEL 5
REMARK VINA RESULT:      -8.0      0.726      2.026
REMARK  Name = 
REMARK  7 active torsions:
REMARK  status: ('A' for Active; 'I' for Inactive)
REMARK    1  A    between atoms: C_1  and  O_2
REMARK    2  A    between atoms: O_2  and  C_3
REMARK    3  A    between atoms: C_6  and  C_7
REMARK    4  A    between atoms: N_16  and  C_17
REMARK    5  A    between atoms: C_17  and  C_18
REMARK    6  A    between atoms: C_27  and  O_28
REMARK    7  A    between atoms: O_28  and  C_29
REMARK                            x       y       z     vdW  Elec       q    Type
REMARK                         _______ _______ _______ _____ _____    ______ ____
ROOT
ATOM      1  C   UNL     1       4.465   3.504  17.487  0.00  0.00    +0.000 A 
ATOM      2  C   UNL     1       4.093   2.172  17.564  0.00  0.00    +0.000 A 
ATOM      3  N   UNL     1       3.285   1.680  18.536  0.00  0.00    +0.000 NA
ATOM      4  C   UNL     1       2.826   2.530  19.458  0.00  0.00    +0.000 A 
ATOM      5  N   UNL     1       2.048   2.027  20.410  0.00  0.00    +0.000 NA
ATOM      6  C   UNL     1       1.606   2.863  21.338  0.00  0.00    +0.000 A 
ATOM      7  N   UNL     1       0.828   2.339  22.346  0.00  0.00    +0.000 N 
ATOM      8  N   UNL     1       1.834   4.173  21.351  0.00  0.00    +0.000 NA
ATOM      9  C   UNL     1       2.587   4.686  20.362  0.00  0.00    +0.000 A 
ATOM     10  N   UNL     1       2.782   6.079  20.453  0.00  0.00    +0.000 N 
ATOM     11  C   UNL     1       3.176   3.881  19.387  0.00  0.00    +0.000 A 
ATOM     12  N   UNL     1       4.014   4.359  18.420  0.00  0.00    +0.000 NA
ATOM     13  H   UNL     1       0.400   1.473  22.048  0.00  0.00    +0.000 HD
ATOM     14  H   UNL     1       0.224   3.052  22.733  0.00  0.00    +0.000 HD
ATOM     15  H   UNL     1       3.538   6.234  21.116  0.00  0.00    +0.000 HD
ENDROOT
BRANCH   1  19
ATOM     16  C   UNL     1       7.174   5.097  14.540  0.00  0.00    +0.000 A 
ATOM     17  C   UNL     1       7.004   5.732  15.776  0.00  0.00    +0.000 A 
ATOM     18  C   UNL     1       6.122   5.219  16.728  0.00  0.00    +0.000 A 
ATOM     19  C   UNL     1       5.343   4.082  16.460  0.00  0.00    +0.000 A 
ATOM     20  C   UNL     1       5.437   3.537  15.174  0.00  0.00    +0.000 A 
ATOM     21  C   UNL     1       6.338   4.022  14.212  0.00  0.00    +0.000 A 
BRANCH  16  23
ATOM     22  C   UNL     1       7.693   5.590  12.286  0.00  0.00    +0.000 C 
ATOM     23  O   UNL     1       8.117   5.534  13.650  0.00  0.00    +0.000 OA
ENDBRANCH  16  23
BRANCH  21  24
ATOM     24  O   UNL     1       6.262   3.301  13.052  0.00  0.00    +0.000 OA
ATOM     25  C   UNL     1       5.062   3.326  12.299  0.00  0.00    +0.000 C 
ENDBRANCH  21  24
ENDBRANCH   1  19
BRANCH  10  26
ATOM     26  C   UNL     1       3.077   6.795  19.210  0.00  0.00    +0.000 C 
BRANCH  26  27
ATOM     27  C   UNL     1       2.196   8.012  19.097  0.00  0.00    +0.000 A 
ATOM     28  C   UNL     1       1.401   8.431  20.173  0.00  0.00    +0.000 A 
ATOM     29  C   UNL     1       0.623   9.583  20.068  0.00  0.00    +0.000 A 
ATOM     30  C   UNL     1       0.636  10.330  18.889  0.00  0.00    +0.000 A 
ATOM     31  C   UNL     1       1.432   9.928  17.818  0.00  0.00    +0.000 A 
ATOM     32  C   UNL     1       2.210   8.778  17.922  0.00  0.00    +0.000 A 
ENDBRANCH  26  27
ENDBRANCH  10  26
TORSDOF 5
ENDMDL
MODEL 6
REMARK VINA RESULT:      -7.9      3.014      6.661
REMARK  Name = 
REMARK  7 active torsions:
REMARK  status: ('A' for Active; 'I' for Inactive)
REMARK    1  A    between atoms: C_1  and  O_2
REMARK    2  A    between atoms: O_2  and  C_3
REMARK    3  A    between atoms: C_6  and  C_7
REMARK    4  A    between atoms: N_16  and  C_17
REMARK    5  A    between atoms: C_17  and  C_18
REMARK    6  A    between atoms: C_27  and  O_28
REMARK    7  A    between atoms: O_28  and  C_29
REMARK                            x       y       z     vdW  Elec       q    Type
REMARK                         _______ _______ _______ _____ _____    ______ ____
ROOT
ATOM      1  C   UNL     1       1.938   6.221  20.141  0.00  0.00    +0.000 A 
ATOM      2  C   UNL     1       1.659   5.225  21.061  0.00  0.00    +0.000 A 
ATOM      3  N   UNL     1       2.034   3.932  20.895  0.00  0.00    +0.000 NA
ATOM      4  C   UNL     1       2.709   3.613  19.787  0.00  0.00    +0.000 A 
ATOM      5  N   UNL     1       3.054   2.340  19.636  0.00  0.00    +0.000 NA
ATOM      6  C   UNL     1       3.707   2.016  18.529  0.00  0.00    +0.000 A 
ATOM      7  N   UNL     1       4.037   0.691  18.351  0.00  0.00    +0.000 N 
ATOM      8  N   UNL     1       4.092   2.879  17.593  0.00  0.00    +0.000 NA
ATOM      9  C   UNL     1       3.777   4.175  17.771  0.00  0.00    +0.000 A 
ATOM     10  N   UNL     1       4.219   5.020  16.734  0.00  0.00    +0.000 N 
ATOM     11  C   UNL     1       3.014   4.608  18.855  0.00  0.00    +0.000 A 
ATOM     12  N   UNL     1       2.606   5.901  19.020  0.00  0.00    +0.000 NA
ATOM     13  H   UNL     1       4.063   0.211  19.240  0.00  0.00    +0.000 HD
ATOM     14  H   UNL     1       4.844   0.606  17.748  0.00  0.00    +0.000 HD
ATOM     15  H   UNL     1       3.538   4.952  15.981  0.00  0.00    +0.000 HD
ENDROOT
BRANCH   1  19
ATOM     16  C   UNL     1       0.957  10.394  20.578  0.00  0.00    +0.000 A 
ATOM     17  C   UNL     1       0.795   9.503  21.646  0.00  0.00    +0.000 A 
ATOM     18  C   UNL     1       1.107   8.150  21.502  0.00  0.00    +0.000 A 
ATOM     19  C   UNL     1       1.546   7.632  20.273  0.00  0.00    +0.000 A 
ATOM     20  C   UNL     1       1.580   8.515  19.187  0.00  0.00    +0.000 A 
ATOM     21  C   UNL     1       1.296   9.884  19.318  0.00  0.00    +0.000 A 
BRANCH  16  23
ATOM     22  C   UNL     1      -0.611  12.154  20.772  0.00  0.00    +0.000 C 
ATOM     23  O   UNL     1       0.756  11.736  20.748  0.00  0.00    +0.000 OA
ENDBRANCH  16  23
BRANCH  21  24
ATOM     24  O   UNL     1       1.433  10.536  18.124  0.00  0.00    +0.000 OA
ATOM     25  C   UNL     1       2.446  11.517  17.982  0.00  0.00    +0.000 C 
ENDBRANCH  21  24
ENDBRANCH   1  19
BRANCH  10  26
ATOM     26  C   UNL     1       4.432   6.430  17.065  0.00  0.00    +0.000 C 
BRANCH  26  27
ATOM     27  C   UNL     1       5.828   6.628  17.597  0.00  0.00    +0.000 A 
ATOM     28  C   UNL     1       6.598   7.734  17.211  0.00  0.00    +0.000 A 
ATOM     29  C   UNL     1       7.872   7.926  17.744  0.00  0.00    +0.000 A 
ATOM     30  C   UNL     1       8.386   7.019  18.672  0.00  0.00    +0.000 A 
ATOM     31  C   UNL     1       7.623   5.923  19.072  0.00  0.00    +0.000 A 
ATOM     32  C   UNL     1       6.351   5.730  18.540  0.00  0.00    +0.000 A 
ENDBRANCH  26  27
ENDBRANCH  10  26
TORSDOF 5
ENDMDL
MODEL 7
REMARK VINA RESULT:      -7.9      4.638      7.729
REMARK  Name = 
REMARK  7 active torsions:
REMARK  status: ('A' for Active; 'I' for Inactive)
REMARK    1  A    between atoms: C_1  and  O_2
REMARK    2  A    between atoms: O_2  and  C_3
REMARK    3  A    between atoms: C_6  and  C_7
REMARK    4  A    between atoms: N_16  and  C_17
REMARK    5  A    between atoms: C_17  and  C_18
REMARK    6  A    between atoms: C_27  and  O_28
REMARK    7  A    between atoms: O_28  and  C_29
REMARK                            x       y       z     vdW  Elec       q    Type
REMARK                         _______ _______ _______ _____ _____    ______ ____
ROOT
ATOM      1  C   UNL     1       0.808   9.325  20.984  0.00  0.00    +0.000 A 
ATOM      2  C   UNL     1       0.661   9.127  22.347  0.00  0.00    +0.000 A 
ATOM      3  N   UNL     1       0.017  10.000  23.161  0.00  0.00    +0.000 NA
ATOM      4  C   UNL     1      -0.504  11.101  22.611  0.00  0.00    +0.000 A 
ATOM      5  N   UNL     1      -1.118  11.951  23.427  0.00  0.00    +0.000 NA
ATOM      6  C   UNL     1      -1.618  13.053  22.888  0.00  0.00    +0.000 A 
ATOM      7  N   UNL     1      -2.226  13.954  23.735  0.00  0.00    +0.000 N 
ATOM      8  N   UNL     1      -1.603  13.340  21.591  0.00  0.00    +0.000 NA
ATOM      9  C   UNL     1      -1.017  12.457  20.762  0.00  0.00    +0.000 A 
ATOM     10  N   UNL     1      -1.041  12.838  19.406  0.00  0.00    +0.000 N 
ATOM     11  C   UNL     1      -0.381  11.310  21.236  0.00  0.00    +0.000 A 
ATOM     12  N   UNL     1       0.296  10.438  20.431  0.00  0.00    +0.000 NA
ATOM     13  H   UNL     1      -2.530  13.492  24.582  0.00  0.00    +0.000 HD
ATOM     14  H   UNL     1      -2.905  14.508  23.233  0.00  0.00    +0.000 HD
ATOM     15  H   UNL     1      -0.273  13.490  19.263  0.00  0.00    +0.000 HD
ENDROOT
BRANCH   1  19
ATOM     16  C   UNL     1       3.003   6.729  18.338  0.00  0.00    +0.000 A 
ATOM     17  C   UNL     1       2.504   7.958  17.887  0.00  0.00    +0.000 A 
ATOM     18  C   UNL     1       1.788   8.796  18.743  0.00  0.00    +0.000 A 
ATOM     19  C   UNL     1       1.504   8.414  20.065  0.00  0.00    +0.000 A 
ATOM     20  C   UNL     1       1.904   7.131  20.455  0.00  0.00    +0.000 A 
ATOM     21  C   UNL     1       2.649   6.284  19.618  0.00  0.00    +0.000 A 
BRANCH  16  23
ATOM     22  C   UNL     1       4.768   6.671  16.764  0.00  0.00    +0.000 C 
ATOM     23  O   UNL     1       3.798   5.958  17.535  0.00  0.00    +0.000 OA
ENDBRANCH  16  23
BRANCH  21  24
ATOM     24  O   UNL     1       2.945   5.103  20.241  0.00  0.00    +0.000 OA
ATOM     25  C   UNL     1       1.919   4.409  20.929  0.00  0.00    +0.000 C 
ENDBRANCH  21  24
ENDBRANCH   1  19
BRANCH  10  26
ATOM     26  C   UNL     1      -0.958  11.770  18.409  0.00  0.00    +0.000 C 
BRANCH  26  27
ATOM     27  C   UNL     1      -2.302  11.568  17.757  0.00  0.00    +0.000 A 
ATOM     28  C   UNL     1      -2.403  11.115  16.435  0.00  0.00    +0.000 A 
ATOM     29  C   UNL     1      -3.653  10.892  15.860  0.00  0.00    +0.000 A 
ATOM     30  C   UNL     1      -4.813  11.115  16.602  0.00  0.00    +0.000 A 
ATOM     31  C   UNL     1      -4.723  11.554  17.922  0.00  0.00    +0.000 A 
ATOM     32  C   UNL     1      -3.475  11.776  18.497  0.00  0.00    +0.000 A 
ENDBRANCH  26  27
ENDBRANCH  10  26
TORSDOF 5
ENDMDL
MODEL 8
REMARK VINA RESULT:      -7.7      4.397      7.468
REMARK  Name = 
REMARK  7 active torsions:
REMARK  status: ('A' for Active; 'I' for Inactive)
REMARK    1  A    between atoms: C_1  and  O_2
REMARK    2  A    between atoms: O_2  and  C_3
REMARK    3  A    between atoms: C_6  and  C_7
REMARK    4  A    between atoms: N_16  and  C_17
REMARK    5  A    between atoms: C_17  and  C_18
REMARK    6  A    between atoms: C_27  and  O_28
REMARK    7  A    between atoms: O_28  and  C_29
REMARK                            x       y       z     vdW  Elec       q    Type
REMARK                         _______ _______ _______ _____ _____    ______ ____
ROOT
ATOM      1  C   UNL     1       0.933   8.737  21.225  0.00  0.00    +0.000 A 
ATOM      2  C   UNL     1       0.889   8.848  22.605  0.00  0.00    +0.000 A 
ATOM      3  N   UNL     1       0.323   9.899  23.249  0.00  0.00    +0.000 NA
ATOM      4  C   UNL     1      -0.221  10.868  22.508  0.00  0.00    +0.000 A 
ATOM      5  N   UNL     1      -0.757  11.896  23.157  0.00  0.00    +0.000 NA
ATOM      6  C   UNL     1      -1.280  12.869  22.425  0.00  0.00    +0.000 A 
ATOM      7  N   UNL     1      -1.807  13.952  23.093  0.00  0.00    +0.000 N 
ATOM      8  N   UNL     1      -1.361  12.863  21.098  0.00  0.00    +0.000 NA
ATOM      9  C   UNL     1      -0.854  11.800  20.446  0.00  0.00    +0.000 A 
ATOM     10  N   UNL     1      -0.978  11.875  19.044  0.00  0.00    +0.000 N 
ATOM     11  C   UNL     1      -0.201  10.765  21.115  0.00  0.00    +0.000 A 
ATOM     12  N   UNL     1       0.398   9.716  20.477  0.00  0.00    +0.000 NA
ATOM     13  H   UNL     1      -2.051  13.698  24.040  0.00  0.00    +0.000 HD
ATOM     14  H   UNL     1      -2.515  14.404  22.530  0.00  0.00    +0.000 HD
ATOM     15  H   UNL     1      -0.213  12.454  18.706  0.00  0.00    +0.000 HD
ENDROOT
BRANCH   1  19
ATOM     16  C   UNL     1       2.562   5.451  18.964  0.00  0.00    +0.000 A 
ATOM     17  C   UNL     1       1.960   5.236  20.210  0.00  0.00    +0.000 A 
ATOM     18  C   UNL     1       1.438   6.302  20.945  0.00  0.00    +0.000 A 
ATOM     19  C   UNL     1       1.542   7.624  20.483  0.00  0.00    +0.000 A 
ATOM     20  C   UNL     1       2.257   7.828  19.297  0.00  0.00    +0.000 A 
ATOM     21  C   UNL     1       2.765   6.766  18.529  0.00  0.00    +0.000 A 
BRANCH  16  23
ATOM     22  C   UNL     1       4.000   3.583  18.768  0.00  0.00    +0.000 C 
ATOM     23  O   UNL     1       2.975   4.398  18.194  0.00  0.00    +0.000 OA
ENDBRANCH  16  23
BRANCH  21  24
ATOM     24  O   UNL     1       3.391   7.223  17.403  0.00  0.00    +0.000 OA
ATOM     25  C   UNL     1       4.777   6.980  17.233  0.00  0.00    +0.000 C 
ENDBRANCH  21  24
ENDBRANCH   1  19
BRANCH  10  26
ATOM     26  C   UNL     1      -0.988  10.611  18.306  0.00  0.00    +0.000 C 
BRANCH  26  27
ATOM     27  C   UNL     1      -2.132  10.598  17.325  0.00  0.00    +0.000 A 
ATOM     28  C   UNL     1      -3.259  11.409  17.519  0.00  0.00    +0.000 A 
ATOM     29  C   UNL     1      -4.290  11.418  16.581  0.00  0.00    +0.000 A 
ATOM     30  C   UNL     1      -4.202  10.622  15.438  0.00  0.00    +0.000 A 
ATOM     31  C   UNL     1      -3.080   9.823  15.229  0.00  0.00    +0.000 A 
ATOM     32  C   UNL     1      -2.050   9.813  16.166  0.00  0.00    +0.000 A 
ENDBRANCH  26  27
ENDBRANCH  10  26
TORSDOF 5
ENDMDL
MODEL 9
REMARK VINA RESULT:      -7.4      7.481     12.149
REMARK  Name = 
REMARK  7 active torsions:
REMARK  status: ('A' for Active; 'I' for Inactive)
REMARK    1  A    between atoms: C_1  and  O_2
REMARK    2  A    between atoms: O_2  and  C_3
REMARK    3  A    between atoms: C_6  and  C_7
REMARK    4  A    between atoms: N_16  and  C_17
REMARK    5  A    between atoms: C_17  and  C_18
REMARK    6  A    between atoms: C_27  and  O_28
REMARK    7  A    between atoms: O_28  and  C_29
REMARK                            x       y       z     vdW  Elec       q    Type
REMARK                         _______ _______ _______ _____ _____    ______ ____
ROOT
ATOM      1  C   UNL     1      -4.041  12.541  19.973  0.00  0.00    +0.000 A 
ATOM      2  C   UNL     1      -5.274  12.433  19.350  0.00  0.00    +0.000 A 
ATOM      3  N   UNL     1      -5.434  11.933  18.100  0.00  0.00    +0.000 NA
ATOM      4  C   UNL     1      -4.345  11.523  17.444  0.00  0.00    +0.000 A 
ATOM      5  N   UNL     1      -4.520  11.051  16.216  0.00  0.00    +0.000 NA
ATOM      6  C   UNL     1      -3.440  10.661  15.555  0.00  0.00    +0.000 A 
ATOM      7  N   UNL     1      -3.613  10.203  14.268  0.00  0.00    +0.000 N 
ATOM      8  N   UNL     1      -2.207  10.653  16.052  0.00  0.00    +0.000 NA
ATOM      9  C   UNL     1      -2.038  11.093  17.313  0.00  0.00    +0.000 A 
ATOM     10  N   UNL     1      -0.703  11.054  17.760  0.00  0.00    +0.000 N 
ATOM     11  C   UNL     1      -3.095  11.609  18.063  0.00  0.00    +0.000 A 
ATOM     12  N   UNL     1      -2.942  12.141  19.312  0.00  0.00    +0.000 NA
ATOM     13  H   UNL     1      -4.563   9.885  14.132  0.00  0.00    +0.000 HD
ATOM     14  H   UNL     1      -2.866   9.572  14.014  0.00  0.00    +0.000 HD
ATOM     15  H   UNL     1      -0.241  11.887  17.402  0.00  0.00    +0.000 HD
ENDROOT
BRANCH   1  19
ATOM     16  C   UNL     1      -3.485  14.269  23.880  0.00  0.00    +0.000 A 
ATOM     17  C   UNL     1      -2.590  14.546  22.839  0.00  0.00    +0.000 A 
ATOM     18  C   UNL     1      -2.767  13.981  21.575  0.00  0.00    +0.000 A 
ATOM     19  C   UNL     1      -3.816  13.083  21.321  0.00  0.00    +0.000 A 
ATOM     20  C   UNL     1      -4.623  12.724  22.407  0.00  0.00    +0.000 A 
ATOM     21  C   UNL     1      -4.478  13.302  23.679  0.00  0.00    +0.000 A 
BRANCH  16  23
ATOM     22  C   UNL     1      -2.046  15.256  25.478  0.00  0.00    +0.000 C 
ATOM     23  O   UNL     1      -3.376  14.906  25.086  0.00  0.00    +0.000 OA
ENDBRANCH  16  23
BRANCH  21  24
ATOM     24  O   UNL     1      -5.405  12.812  24.556  0.00  0.00    +0.000 OA
ATOM     25  C   UNL     1      -6.752  12.679  24.137  0.00  0.00    +0.000 C 
ENDBRANCH  21  24
ENDBRANCH   1  19
BRANCH  10  26
ATOM     26  C   UNL     1      -0.484  10.966  19.205  0.00  0.00    +0.000 C 
BRANCH  26  27
ATOM     27  C   UNL     1       0.422   9.803  19.518  0.00  0.00    +0.000 A 
ATOM     28  C   UNL     1       0.393   9.182  20.774  0.00  0.00    +0.000 A 
ATOM     29  C   UNL     1       1.207   8.081  21.035  0.00  0.00    +0.000 A 
ATOM     30  C   UNL     1       2.053   7.586  20.042  0.00  0.00    +0.000 A 
ATOM     31  C   UNL     1       2.080   8.188  18.785  0.00  0.00    +0.000 A 
ATOM     32  C   UNL     1       1.267   9.288  18.524  0.00  0.00    +0.000 A 
ENDBRANCH  26  27
ENDBRANCH  10  26
TORSDOF 5
ENDMDL
