MODEL 1
REMARK VINA RESULT:      -7.8      0.000      0.000
REMARK  Name = 
REMARK  6 active torsions:
REMARK  status: ('A' for Active; 'I' for Inactive)
REMARK    1  A    between atoms: C_1  and  C_2
REMARK    2  A    between atoms: C_5  and  O_6
REMARK    3  A    between atoms: O_6  and  C_7
REMARK    4  A    between atoms: C_7  and  C_8
REMARK    5  A    between atoms: C_8  and  C_9
REMARK    6  A    between atoms: C_17  and  N_18
REMARK                            x       y       z     vdW  Elec       q    Type
REMARK                         _______ _______ _______ _____ _____    ______ ____
ROOT
ATOM      1  O   UNL     1       5.033   4.028  17.664  0.00  0.00    +0.000 OA
ENDROOT
BRANCH   1   6
ATOM      2  C   UNL     1       7.843   5.214  12.907  0.00  0.00    +0.000 C 
ATOM      3  C   UNL     1       7.069   4.868  14.143  0.00  0.00    +0.000 A 
ATOM      4  C   UNL     1       5.853   4.206  14.058  0.00  0.00    +0.000 A 
ATOM      5  C   UNL     1       5.153   3.905  15.228  0.00  0.00    +0.000 A 
ATOM      6  C   UNL     1       5.672   4.266  16.476  0.00  0.00    +0.000 A 
ATOM      7  C   UNL     1       6.910   4.923  16.471  0.00  0.00    +0.000 A 
ATOM      8  N   UNL     1       7.606   5.230  15.327  0.00  0.00    +0.000 NA
BRANCH   7   9
ATOM      9  N   UNL     1       7.462   5.304  17.781  0.00  0.00    +0.000 N 
ATOM     10  O   UNL     1       8.082   4.437  18.421  0.00  0.00    +0.000 OA
ATOM     11  O   UNL     1       7.303   6.480  18.141  0.00  0.00    +0.000 OA
ENDBRANCH   7   9
ENDBRANCH   1   6
BRANCH   1  12
ATOM     12  C   UNL     1       3.978   3.060  17.667  0.00  0.00    +0.000 C 
BRANCH  12  13
ATOM     13  C   UNL     1       2.645   3.762  17.400  0.00  0.00    +0.000 C 
BRANCH  13  14
ATOM     14  C   UNL     1       2.359   4.846  18.418  0.00  0.00    +0.000 A 
ATOM     15  C   UNL     1       2.594   6.187  18.066  0.00  0.00    +0.000 A 
ATOM     16  C   UNL     1       2.351   7.219  18.976  0.00  0.00    +0.000 A 
ATOM     17  C   UNL     1       1.874   6.922  20.249  0.00  0.00    +0.000 A 
ATOM     18 CL   UNL     1       1.570   8.195  21.365  0.00  0.00    +0.000 Cl
ATOM     19  C   UNL     1       1.646   5.602  20.625  0.00  0.00    +0.000 A 
ATOM     20  C   UNL     1       1.893   4.569  19.716  0.00  0.00    +0.000 A 
ATOM     21 CL   UNL     1       1.616   2.952  20.256  0.00  0.00    +0.000 Cl
ENDBRANCH  13  14
ENDBRANCH  12  13
ENDBRANCH   1  12
TORSDOF 5
ENDMDL
MODEL 2
REMARK VINA RESULT:      -7.6      1.753      2.390
REMARK  Name = 
REMARK  6 active torsions:
REMARK  status: ('A' for Active; 'I' for Inactive)
REMARK    1  A    between atoms: C_1  and  C_2
REMARK    2  A    between atoms: C_5  and  O_6
REMARK    3  A    between atoms: O_6  and  C_7
REMARK    4  A    between atoms: C_7  and  C_8
REMARK    5  A    between atoms: C_8  and  C_9
REMARK    6  A    between atoms: C_17  and  N_18
REMARK                            x       y       z     vdW  Elec       q    Type
REMARK                         _______ _______ _______ _____ _____    ______ ____
ROOT
ATOM      1  O   UNL     1       5.059   5.483  17.817  0.00  0.00    +0.000 OA
ENDROOT
BRANCH   1   6
ATOM      2  C   UNL     1       7.677   4.712  12.867  0.00  0.00    +0.000 C 
ATOM      3  C   UNL     1       6.952   4.878  14.169  0.00  0.00    +0.000 A 
ATOM      4  C   UNL     1       5.733   4.255  14.388  0.00  0.00    +0.000 A 
ATOM      5  C   UNL     1       5.081   4.437  15.610  0.00  0.00    +0.000 A 
ATOM      6  C   UNL     1       5.651   5.237  16.605  0.00  0.00    +0.000 A 
ATOM      7  C   UNL     1       6.889   5.821  16.304  0.00  0.00    +0.000 A 
ATOM      8  N   UNL     1       7.538   5.656  15.105  0.00  0.00    +0.000 NA
BRANCH   7   9
ATOM      9  N   UNL     1       7.494   6.663  17.348  0.00  0.00    +0.000 N 
ATOM     10  O   UNL     1       7.938   6.098  18.361  0.00  0.00    +0.000 OA
ATOM     11  O   UNL     1       7.555   7.882  17.125  0.00  0.00    +0.000 OA
ENDBRANCH   7   9
ENDBRANCH   1   6
BRANCH   1  12
ATOM     12  C   UNL     1       4.146   6.584  17.896  0.00  0.00    +0.000 C 
BRANCH  12  13
ATOM     13  C   UNL     1       2.715   6.066  17.742  0.00  0.00    +0.000 C 
BRANCH  13  14
ATOM     14  C   UNL     1       2.349   5.073  18.825  0.00  0.00    +0.000 A 
ATOM     15  C   UNL     1       2.208   5.531  20.147  0.00  0.00    +0.000 A 
ATOM     16  C   UNL     1       1.879   4.649  21.179  0.00  0.00    +0.000 A 
ATOM     17  C   UNL     1       1.688   3.298  20.901  0.00  0.00    +0.000 A 
ATOM     18 CL   UNL     1       1.276   2.215  22.172  0.00  0.00    +0.000 Cl
ATOM     19  C   UNL     1       1.834   2.819  19.603  0.00  0.00    +0.000 A 
ATOM     20  C   UNL     1       2.168   3.701  18.571  0.00  0.00    +0.000 A 
ATOM     21 CL   UNL     1       2.361   3.036  16.989  0.00  0.00    +0.000 Cl
ENDBRANCH  13  14
ENDBRANCH  12  13
ENDBRANCH   1  12
TORSDOF 5
ENDMDL
MODEL 3
REMARK VINA RESULT:      -7.3      0.959      1.038
REMARK  Name = 
REMARK  6 active torsions:
REMARK  status: ('A' for Active; 'I' for Inactive)
REMARK    1  A    between atoms: C_1  and  C_2
REMARK    2  A    between atoms: C_5  and  O_6
REMARK    3  A    between atoms: O_6  and  C_7
REMARK    4  A    between atoms: C_7  and  C_8
REMARK    5  A    between atoms: C_8  and  C_9
REMARK    6  A    between atoms: C_17  and  N_18
REMARK                            x       y       z     vdW  Elec       q    Type
REMARK                         _______ _______ _______ _____ _____    ______ ____
ROOT
ATOM      1  O   UNL     1       5.209   3.459  16.973  0.00  0.00    +0.000 OA
ENDROOT
BRANCH   1   6
ATOM      2  C   UNL     1       8.026   5.497  12.517  0.00  0.00    +0.000 C 
ATOM      3  C   UNL     1       7.254   4.926  13.668  0.00  0.00    +0.000 A 
ATOM      4  C   UNL     1       6.119   4.158  13.452  0.00  0.00    +0.000 A 
ATOM      5  C   UNL     1       5.419   3.647  14.546  0.00  0.00    +0.000 A 
ATOM      6  C   UNL     1       5.857   3.904  15.850  0.00  0.00    +0.000 A 
ATOM      7  C   UNL     1       7.017   4.680  15.977  0.00  0.00    +0.000 A 
ATOM      8  N   UNL     1       7.712   5.193  14.909  0.00  0.00    +0.000 NA
BRANCH   7   9
ATOM      9  N   UNL     1       7.483   4.953  17.346  0.00  0.00    +0.000 N 
ATOM     10  O   UNL     1       8.298   4.160  17.847  0.00  0.00    +0.000 OA
ATOM     11  O   UNL     1       7.059   5.982  17.893  0.00  0.00    +0.000 OA
ENDBRANCH   7   9
ENDBRANCH   1   6
BRANCH   1  12
ATOM     12  C   UNL     1       3.876   3.932  17.199  0.00  0.00    +0.000 C 
BRANCH  12  13
ATOM     13  C   UNL     1       3.647   4.099  18.702  0.00  0.00    +0.000 C 
BRANCH  13  14
ATOM     14  C   UNL     1       2.979   5.417  19.033  0.00  0.00    +0.000 A 
ATOM     15  C   UNL     1       3.095   6.484  18.125  0.00  0.00    +0.000 A 
ATOM     16  C   UNL     1       2.501   7.720  18.393  0.00  0.00    +0.000 A 
ATOM     17  C   UNL     1       1.787   7.904  19.574  0.00  0.00    +0.000 A 
ATOM     18 CL   UNL     1       1.052   9.424  19.899  0.00  0.00    +0.000 Cl
ATOM     19  C   UNL     1       1.669   6.867  20.494  0.00  0.00    +0.000 A 
ATOM     20  C   UNL     1       2.267   5.632  20.228  0.00  0.00    +0.000 A 
ATOM     21 CL   UNL     1       2.106   4.396  21.424  0.00  0.00    +0.000 Cl
ENDBRANCH  13  14
ENDBRANCH  12  13
ENDBRANCH   1  12
TORSDOF 5
ENDMDL
MODEL 4
REMARK VINA RESULT:      -7.2      3.925      6.280
REMARK  Name = 
REMARK  6 active torsions:
REMARK  status: ('A' for Active; 'I' for Inactive)
REMARK    1  A    between atoms: C_1  and  C_2
REMARK    2  A    between atoms: C_5  and  O_6
REMARK    3  A    between atoms: O_6  and  C_7
REMARK    4  A    between atoms: C_7  and  C_8
REMARK    5  A    between atoms: C_8  and  C_9
REMARK    6  A    between atoms: C_17  and  N_18
REMARK                            x       y       z     vdW  Elec       q    Type
REMARK                         _______ _______ _______ _____ _____    ______ ____
ROOT
ATOM      1  O   UNL     1       2.906   3.783  18.614  0.00  0.00    +0.000 OA
ENDROOT
BRANCH   1   6
ATOM      2  C   UNL     1       1.229   8.602  21.045  0.00  0.00    +0.000 C 
ATOM      3  C   UNL     1       1.703   7.350  20.369  0.00  0.00    +0.000 A 
ATOM      4  C   UNL     1       2.370   7.407  19.154  0.00  0.00    +0.000 A 
ATOM      5  C   UNL     1       2.792   6.222  18.549  0.00  0.00    +0.000 A 
ATOM      6  C   UNL     1       2.547   4.988  19.159  0.00  0.00    +0.000 A 
ATOM      7  C   UNL     1       1.875   5.022  20.390  0.00  0.00    +0.000 A 
ATOM      8  N   UNL     1       1.450   6.180  20.994  0.00  0.00    +0.000 NA
BRANCH   7   9
ATOM      9  N   UNL     1       1.616   3.727  21.038  0.00  0.00    +0.000 N 
ATOM     10  O   UNL     1       0.764   2.984  20.522  0.00  0.00    +0.000 OA
ATOM     11  O   UNL     1       2.296   3.450  22.037  0.00  0.00    +0.000 OA
ENDBRANCH   7   9
ENDBRANCH   1   6
BRANCH   1  12
ATOM     12  C   UNL     1       3.281   3.768  17.232  0.00  0.00    +0.000 C 
BRANCH  12  13
ATOM     13  C   UNL     1       4.752   3.363  17.112  0.00  0.00    +0.000 C 
BRANCH  13  14
ATOM     14  C   UNL     1       5.686   4.511  17.429  0.00  0.00    +0.000 A 
ATOM     15  C   UNL     1       6.167   4.652  18.744  0.00  0.00    +0.000 A 
ATOM     16  C   UNL     1       7.025   5.701  19.084  0.00  0.00    +0.000 A 
ATOM     17  C   UNL     1       7.410   6.623  18.114  0.00  0.00    +0.000 A 
ATOM     18 CL   UNL     1       8.472   7.909  18.533  0.00  0.00    +0.000 Cl
ATOM     19  C   UNL     1       6.938   6.512  16.810  0.00  0.00    +0.000 A 
ATOM     20  C   UNL     1       6.076   5.465  16.471  0.00  0.00    +0.000 A 
ATOM     21 CL   UNL     1       5.505   5.402  14.842  0.00  0.00    +0.000 Cl
ENDBRANCH  13  14
ENDBRANCH  12  13
ENDBRANCH   1  12
TORSDOF 5
ENDMDL
MODEL 5
REMARK VINA RESULT:      -7.2      1.849      2.746
REMARK  Name = 
REMARK  6 active torsions:
REMARK  status: ('A' for Active; 'I' for Inactive)
REMARK    1  A    between atoms: C_1  and  C_2
REMARK    2  A    between atoms: C_5  and  O_6
REMARK    3  A    between atoms: O_6  and  C_7
REMARK    4  A    between atoms: C_7  and  C_8
REMARK    5  A    between atoms: C_8  and  C_9
REMARK    6  A    between atoms: C_17  and  N_18
REMARK                            x       y       z     vdW  Elec       q    Type
REMARK                         _______ _______ _______ _____ _____    ______ ____
ROOT
ATOM      1  O   UNL     1       5.514   3.473  16.977  0.00  0.00    +0.000 OA
ENDROOT
BRANCH   1   6
ATOM      2  C   UNL     1       8.317   8.260  18.061  0.00  0.00    +0.000 C 
ATOM      3  C   UNL     1       7.562   6.987  17.822  0.00  0.00    +0.000 A 
ATOM      4  C   UNL     1       7.194   6.169  18.880  0.00  0.00    +0.000 A 
ATOM      5  C   UNL     1       6.498   4.987  18.622  0.00  0.00    +0.000 A 
ATOM      6  C   UNL     1       6.171   4.628  17.310  0.00  0.00    +0.000 A 
ATOM      7  C   UNL     1       6.573   5.516  16.302  0.00  0.00    +0.000 A 
ATOM      8  N   UNL     1       7.263   6.679  16.542  0.00  0.00    +0.000 NA
BRANCH   7   9
ATOM      9  N   UNL     1       6.232   5.145  14.920  0.00  0.00    +0.000 N 
ATOM     10  O   UNL     1       5.067   5.350  14.538  0.00  0.00    +0.000 OA
ATOM     11  O   UNL     1       7.145   4.687  14.216  0.00  0.00    +0.000 OA
ENDBRANCH   7   9
ENDBRANCH   1   6
BRANCH   1  12
ATOM     12  C   UNL     1       4.396   3.090  17.786  0.00  0.00    +0.000 C 
BRANCH  12  13
ATOM     13  C   UNL     1       3.151   3.847  17.320  0.00  0.00    +0.000 C 
BRANCH  13  14
ATOM     14  C   UNL     1       2.702   4.881  18.330  0.00  0.00    +0.000 A 
ATOM     15  C   UNL     1       2.951   6.240  18.068  0.00  0.00    +0.000 A 
ATOM     16  C   UNL     1       2.561   7.228  18.975  0.00  0.00    +0.000 A 
ATOM     17  C   UNL     1       1.919   6.868  20.157  0.00  0.00    +0.000 A 
ATOM     18 CL   UNL     1       1.433   8.086  21.270  0.00  0.00    +0.000 Cl
ATOM     19  C   UNL     1       1.672   5.530  20.445  0.00  0.00    +0.000 A 
ATOM     20  C   UNL     1       2.067   4.541  19.539  0.00  0.00    +0.000 A 
ATOM     21 CL   UNL     1       1.756   2.897  19.971  0.00  0.00    +0.000 Cl
ENDBRANCH  13  14
ENDBRANCH  12  13
ENDBRANCH   1  12
TORSDOF 5
ENDMDL
MODEL 6
REMARK VINA RESULT:      -7.2      2.151      2.847
REMARK  Name = 
REMARK  6 active torsions:
REMARK  status: ('A' for Active; 'I' for Inactive)
REMARK    1  A    between atoms: C_1  and  C_2
REMARK    2  A    between atoms: C_5  and  O_6
REMARK    3  A    between atoms: O_6  and  C_7
REMARK    4  A    between atoms: C_7  and  C_8
REMARK    5  A    between atoms: C_8  and  C_9
REMARK    6  A    between atoms: C_17  and  N_18
REMARK                            x       y       z     vdW  Elec       q    Type
REMARK                         _______ _______ _______ _____ _____    ______ ____
ROOT
ATOM      1  O   UNL     1       5.079   5.816  18.378  0.00  0.00    +0.000 OA
ENDROOT
BRANCH   1   6
ATOM      2  C   UNL     1       7.325   4.574  13.343  0.00  0.00    +0.000 C 
ATOM      3  C   UNL     1       6.699   4.864  14.673  0.00  0.00    +0.000 A 
ATOM      4  C   UNL     1       5.509   4.257  15.046  0.00  0.00    +0.000 A 
ATOM      5  C   UNL     1       4.949   4.555  16.290  0.00  0.00    +0.000 A 
ATOM      6  C   UNL     1       5.580   5.455  17.155  0.00  0.00    +0.000 A 
ATOM      7  C   UNL     1       6.783   6.015  16.703  0.00  0.00    +0.000 A 
ATOM      8  N   UNL     1       7.342   5.735  15.480  0.00  0.00    +0.000 NA
BRANCH   7   9
ATOM      9  N   UNL     1       7.453   6.962  17.608  0.00  0.00    +0.000 N 
ATOM     10  O   UNL     1       8.016   6.499  18.615  0.00  0.00    +0.000 OA
ATOM     11  O   UNL     1       7.443   8.158  17.282  0.00  0.00    +0.000 OA
ENDBRANCH   7   9
ENDBRANCH   1   6
BRANCH   1  12
ATOM     12  C   UNL     1       3.657   5.777  18.548  0.00  0.00    +0.000 C 
BRANCH  12  13
ATOM     13  C   UNL     1       3.059   7.118  18.119  0.00  0.00    +0.000 C 
BRANCH  13  14
ATOM     14  C   UNL     1       2.182   7.721  19.196  0.00  0.00    +0.000 A 
ATOM     15  C   UNL     1       1.888   6.957  20.339  0.00  0.00    +0.000 A 
ATOM     16  C   UNL     1       1.078   7.470  21.355  0.00  0.00    +0.000 A 
ATOM     17  C   UNL     1       0.549   8.753  21.238  0.00  0.00    +0.000 A 
ATOM     18 CL   UNL     1      -0.443   9.385  22.492  0.00  0.00    +0.000 Cl
ATOM     19  C   UNL     1       0.815   9.523  20.110  0.00  0.00    +0.000 A 
ATOM     20  C   UNL     1       1.623   9.008  19.092  0.00  0.00    +0.000 A 
ATOM     21 CL   UNL     1       1.891  10.006  17.708  0.00  0.00    +0.000 Cl
ENDBRANCH  13  14
ENDBRANCH  12  13
ENDBRANCH   1  12
TORSDOF 5
ENDMDL
MODEL 7
REMARK VINA RESULT:      -7.1      1.252      2.454
REMARK  Name = 
REMARK  6 active torsions:
REMARK  status: ('A' for Active; 'I' for Inactive)
REMARK    1  A    between atoms: C_1  and  C_2
REMARK    2  A    between atoms: C_5  and  O_6
REMARK    3  A    between atoms: O_6  and  C_7
REMARK    4  A    between atoms: C_7  and  C_8
REMARK    5  A    between atoms: C_8  and  C_9
REMARK    6  A    between atoms: C_17  and  N_18
REMARK                            x       y       z     vdW  Elec       q    Type
REMARK                         _______ _______ _______ _____ _____    ______ ____
ROOT
ATOM      1  O   UNL     1       5.103   4.970  17.596  0.00  0.00    +0.000 OA
ENDROOT
BRANCH   1   6
ATOM      2  C   UNL     1       7.795   4.873  12.627  0.00  0.00    +0.000 C 
ATOM      3  C   UNL     1       7.054   4.859  13.931  0.00  0.00    +0.000 A 
ATOM      4  C   UNL     1       5.898   4.109  14.083  0.00  0.00    +0.000 A 
ATOM      5  C   UNL     1       5.228   4.124  15.308  0.00  0.00    +0.000 A 
ATOM      6  C   UNL     1       5.718   4.885  16.374  0.00  0.00    +0.000 A 
ATOM      7  C   UNL     1       6.897   5.605  16.137  0.00  0.00    +0.000 A 
ATOM      8  N   UNL     1       7.562   5.604  14.936  0.00  0.00    +0.000 NA
BRANCH   7   9
ATOM      9  N   UNL     1       7.418   6.407  17.255  0.00  0.00    +0.000 N 
ATOM     10  O   UNL     1       7.836   5.800  18.256  0.00  0.00    +0.000 OA
ATOM     11  O   UNL     1       7.441   7.638  17.105  0.00  0.00    +0.000 OA
ENDBRANCH   7   9
ENDBRANCH   1   6
BRANCH   1  12
ATOM     12  C   UNL     1       4.116   5.994  17.770  0.00  0.00    +0.000 C 
BRANCH  12  13
ATOM     13  C   UNL     1       2.722   5.384  17.617  0.00  0.00    +0.000 C 
BRANCH  13  14
ATOM     14  C   UNL     1       2.312   4.585  18.835  0.00  0.00    +0.000 A 
ATOM     15  C   UNL     1       2.218   3.185  18.730  0.00  0.00    +0.000 A 
ATOM     16  C   UNL     1       1.837   2.409  19.827  0.00  0.00    +0.000 A 
ATOM     17  C   UNL     1       1.541   3.023  21.041  0.00  0.00    +0.000 A 
ATOM     18 CL   UNL     1       1.078   2.064  22.392  0.00  0.00    +0.000 Cl
ATOM     19  C   UNL     1       1.614   4.406  21.166  0.00  0.00    +0.000 A 
ATOM     20  C   UNL     1       1.992   5.184  20.067  0.00  0.00    +0.000 A 
ATOM     21 CL   UNL     1       2.035   6.897  20.283  0.00  0.00    +0.000 Cl
ENDBRANCH  13  14
ENDBRANCH  12  13
ENDBRANCH   1  12
TORSDOF 5
ENDMDL
MODEL 8
REMARK VINA RESULT:      -7.1      1.123      1.244
REMARK  Name = 
REMARK  6 active torsions:
REMARK  status: ('A' for Active; 'I' for Inactive)
REMARK    1  A    between atoms: C_1  and  C_2
REMARK    2  A    between atoms: C_5  and  O_6
REMARK    3  A    between atoms: O_6  and  C_7
REMARK    4  A    between atoms: C_7  and  C_8
REMARK    5  A    between atoms: C_8  and  C_9
REMARK    6  A    between atoms: C_17  and  N_18
REMARK                            x       y       z     vdW  Elec       q    Type
REMARK                         _______ _______ _______ _____ _____    ______ ____
ROOT
ATOM      1  O   UNL     1       5.657   4.826  18.478  0.00  0.00    +0.000 OA
ENDROOT
BRANCH   1   6
ATOM      2  C   UNL     1       7.359   4.845  13.088  0.00  0.00    +0.000 C 
ATOM      3  C   UNL     1       6.891   4.793  14.512  0.00  0.00    +0.000 A 
ATOM      4  C   UNL     1       6.028   3.795  14.940  0.00  0.00    +0.000 A 
ATOM      5  C   UNL     1       5.605   3.780  16.271  0.00  0.00    +0.000 A 
ATOM      6  C   UNL     1       6.048   4.760  17.166  0.00  0.00    +0.000 A 
ATOM      7  C   UNL     1       6.925   5.725  16.652  0.00  0.00    +0.000 A 
ATOM      8  N   UNL     1       7.344   5.755  15.344  0.00  0.00    +0.000 NA
BRANCH   7   9
ATOM      9  N   UNL     1       7.395   6.758  17.589  0.00  0.00    +0.000 N 
ATOM     10  O   UNL     1       7.949   6.380  18.634  0.00  0.00    +0.000 OA
ATOM     11  O   UNL     1       7.239   7.941  17.249  0.00  0.00    +0.000 OA
ENDBRANCH   7   9
ENDBRANCH   1   6
BRANCH   1  12
ATOM     12  C   UNL     1       4.522   4.045  18.871  0.00  0.00    +0.000 C 
BRANCH  12  13
ATOM     13  C   UNL     1       3.278   4.559  18.143  0.00  0.00    +0.000 C 
BRANCH  13  14
ATOM     14  C   UNL     1       2.691   5.783  18.814  0.00  0.00    +0.000 A 
ATOM     15  C   UNL     1       2.740   7.016  18.139  0.00  0.00    +0.000 A 
ATOM     16  C   UNL     1       2.217   8.172  18.723  0.00  0.00    +0.000 A 
ATOM     17  C   UNL     1       1.643   8.110  19.989  0.00  0.00    +0.000 A 
ATOM     18 CL   UNL     1       0.994   9.534  20.703  0.00  0.00    +0.000 Cl
ATOM     19  C   UNL     1       1.595   6.905  20.682  0.00  0.00    +0.000 A 
ATOM     20  C   UNL     1       2.122   5.748  20.100  0.00  0.00    +0.000 A 
ATOM     21 CL   UNL     1       2.055   4.291  21.025  0.00  0.00    +0.000 Cl
ENDBRANCH  13  14
ENDBRANCH  12  13
ENDBRANCH   1  12
TORSDOF 5
ENDMDL
MODEL 9
REMARK VINA RESULT:      -6.9      2.151      3.162
REMARK  Name = 
REMARK  6 active torsions:
REMARK  status: ('A' for Active; 'I' for Inactive)
REMARK    1  A    between atoms: C_1  and  C_2
REMARK    2  A    between atoms: C_5  and  O_6
REMARK    3  A    between atoms: O_6  and  C_7
REMARK    4  A    between atoms: C_7  and  C_8
REMARK    5  A    between atoms: C_8  and  C_9
REMARK    6  A    between atoms: C_17  and  N_18
REMARK                            x       y       z     vdW  Elec       q    Type
REMARK                         _______ _______ _______ _____ _____    ______ ____
ROOT
ATOM      1  O   UNL     1       5.428   3.582  17.115  0.00  0.00    +0.000 OA
ENDROOT
BRANCH   1   6
ATOM      2  C   UNL     1       8.427   8.263  18.134  0.00  0.00    +0.000 C 
ATOM      3  C   UNL     1       7.617   7.020  17.912  0.00  0.00    +0.000 A 
ATOM      4  C   UNL     1       7.160   6.269  18.985  0.00  0.00    +0.000 A 
ATOM      5  C   UNL     1       6.414   5.113  18.742  0.00  0.00    +0.000 A 
ATOM      6  C   UNL     1       6.129   4.716  17.432  0.00  0.00    +0.000 A 
ATOM      7  C   UNL     1       6.622   5.537  16.409  0.00  0.00    +0.000 A 
ATOM      8  N   UNL     1       7.361   6.673  16.633  0.00  0.00    +0.000 NA
BRANCH   7   9
ATOM      9  N   UNL     1       6.324   5.125  15.028  0.00  0.00    +0.000 N 
ATOM     10  O   UNL     1       7.241   4.605  14.370  0.00  0.00    +0.000 OA
ATOM     11  O   UNL     1       5.162   5.291  14.628  0.00  0.00    +0.000 OA
ENDBRANCH   7   9
ENDBRANCH   1   6
BRANCH   1  12
ATOM     12  C   UNL     1       4.258   3.289  17.889  0.00  0.00    +0.000 C 
BRANCH  12  13
ATOM     13  C   UNL     1       3.098   4.160  17.402  0.00  0.00    +0.000 C 
BRANCH  13  14
ATOM     14  C   UNL     1       2.644   5.145  18.457  0.00  0.00    +0.000 A 
ATOM     15  C   UNL     1       1.958   4.663  19.586  0.00  0.00    +0.000 A 
ATOM     16  C   UNL     1       1.513   5.537  20.582  0.00  0.00    +0.000 A 
ATOM     17  C   UNL     1       1.747   6.903  20.458  0.00  0.00    +0.000 A 
ATOM     18 CL   UNL     1       1.204   7.976  21.688  0.00  0.00    +0.000 Cl
ATOM     19  C   UNL     1       2.412   7.406  19.345  0.00  0.00    +0.000 A 
ATOM     20  C   UNL     1       2.853   6.532  18.347  0.00  0.00    +0.000 A 
ATOM     21 CL   UNL     1       3.647   7.225  16.978  0.00  0.00    +0.000 Cl
ENDBRANCH  13  14
ENDBRANCH  12  13
ENDBRANCH   1  12
TORSDOF 5
ENDMDL
