MODEL 1
REMARK VINA RESULT:      -7.7      0.000      0.000
REMARK  Name = 
REMARK  11 active torsions:
REMARK  status: ('A' for Active; 'I' for Inactive)
REMARK    1  A    between atoms: C_1  and  C_2
REMARK    2  A    between atoms: C_2  and  O_3
REMARK    3  A    between atoms: O_3  and  C_4
REMARK    4  A    between atoms: C_4  and  C_6
REMARK    5  A    between atoms: C_7  and  C_8
REMARK    6  A    between atoms: C_8  and  O_9
REMARK    7  A    between atoms: O_9  and  C_10
REMARK    8  A    between atoms: C_10  and  C_12
REMARK    9  A    between atoms: C_12  and  C_13
REMARK   10  A    between atoms: C_13  and  C_14
REMARK   11  A    between atoms: C_25  and  C_26
REMARK                            x       y       z     vdW  Elec       q    Type
REMARK                         _______ _______ _______ _____ _____    ______ ____
ROOT
ATOM      1  C   UNL     1       5.130   4.174  17.153  0.00  0.00    +0.000 C 
ATOM      2  C   UNL     1       5.974   4.347  18.192  0.00  0.00    +0.000 C 
ATOM      3  N   UNL     1       5.700   3.688  19.374  0.00  0.00    +0.000 N 
ATOM      4  C   UNL     1       4.701   2.786  19.564  0.00  0.00    +0.000 C 
ATOM      5  O   UNL     1       4.542   2.204  20.629  0.00  0.00    +0.000 OA
ATOM      6  N   UNL     1       3.913   2.538  18.487  0.00  0.00    +0.000 N 
ATOM      7  C   UNL     1       3.861   3.368  17.289  0.00  0.00    +0.000 C 
ATOM      8  C   UNL     1       2.591   4.223  17.349  0.00  0.00    +0.000 C 
ATOM      9  H   UNL     1       6.321   3.819  20.165  0.00  0.00    +0.000 HD
ATOM     10  H   UNL     1       3.158   1.892  18.674  0.00  0.00    +0.000 HD
ENDROOT
BRANCH   1  11
ATOM     11  C   UNL     1       5.470   4.766  15.835  0.00  0.00    +0.000 C 
ATOM     12  O   UNL     1       4.995   5.806  15.401  0.00  0.00    +0.000 OA
BRANCH  11  13
ATOM     13  O   UNL     1       6.316   3.952  15.166  0.00  0.00    +0.000 OA
BRANCH  13  15
ATOM     14  C   UNL     1       5.729   3.518  12.891  0.00  0.00    +0.000 C 
ATOM     15  C   UNL     1       6.610   4.339  13.817  0.00  0.00    +0.000 C 
ENDBRANCH  13  15
ENDBRANCH  11  13
ENDBRANCH   1  11
BRANCH   2  16
ATOM     16  C   UNL     1       7.203   5.239  18.211  0.00  0.00    +0.000 C 
BRANCH  16  17
ATOM     17  O   UNL     1       6.809   6.626  18.120  0.00  0.00    +0.000 OA
BRANCH  17  18
ATOM     18  C   UNL     1       7.542   7.385  17.259  0.00  0.00    +0.000 C 
ATOM     19  O   UNL     1       8.020   6.997  16.202  0.00  0.00    +0.000 OA
BRANCH  18  20
ATOM     20  C   UNL     1       7.673   8.793  17.788  0.00  0.00    +0.000 C 
BRANCH  20  21
ATOM     21  C   UNL     1       8.804   8.857  18.807  0.00  0.00    +0.000 C 
BRANCH  21  22
ATOM     22  C   UNL     1       9.268  10.270  19.058  0.00  0.00    +0.000 A 
ATOM     23  C   UNL     1       9.549  11.132  17.988  0.00  0.00    +0.000 A 
ATOM     24  C   UNL     1       9.959  12.445  18.228  0.00  0.00    +0.000 A 
ATOM     25  C   UNL     1      10.094  12.893  19.536  0.00  0.00    +0.000 A 
ATOM     26  F   UNL     1      10.480  14.156  19.765  0.00  0.00    +0.000 F 
ATOM     27  C   UNL     1       9.833  12.052  20.610  0.00  0.00    +0.000 A 
ATOM     28  C   UNL     1       9.423  10.739  20.372  0.00  0.00    +0.000 A 
ENDBRANCH  21  22
ENDBRANCH  20  21
ENDBRANCH  18  20
ENDBRANCH  17  18
ENDBRANCH  16  17
ENDBRANCH   2  16
TORSDOF 9
ENDMDL
MODEL 2
REMARK VINA RESULT:      -7.4      5.002      6.896
REMARK  Name = 
REMARK  11 active torsions:
REMARK  status: ('A' for Active; 'I' for Inactive)
REMARK    1  A    between atoms: C_1  and  C_2
REMARK    2  A    between atoms: C_2  and  O_3
REMARK    3  A    between atoms: O_3  and  C_4
REMARK    4  A    between atoms: C_4  and  C_6
REMARK    5  A    between atoms: C_7  and  C_8
REMARK    6  A    between atoms: C_8  and  O_9
REMARK    7  A    between atoms: O_9  and  C_10
REMARK    8  A    between atoms: C_10  and  C_12
REMARK    9  A    between atoms: C_12  and  C_13
REMARK   10  A    between atoms: C_13  and  C_14
REMARK   11  A    between atoms: C_25  and  C_26
REMARK                            x       y       z     vdW  Elec       q    Type
REMARK                         _______ _______ _______ _____ _____    ______ ____
ROOT
ATOM      1  C   UNL     1       2.814   4.704  18.804  0.00  0.00    +0.000 C 
ATOM      2  C   UNL     1       4.107   4.316  18.817  0.00  0.00    +0.000 C 
ATOM      3  N   UNL     1       4.387   2.971  18.684  0.00  0.00    +0.000 N 
ATOM      4  C   UNL     1       3.476   1.994  18.434  0.00  0.00    +0.000 C 
ATOM      5  O   UNL     1       3.800   0.823  18.283  0.00  0.00    +0.000 OA
ATOM      6  N   UNL     1       2.186   2.401  18.321  0.00  0.00    +0.000 N 
ATOM      7  C   UNL     1       1.686   3.703  18.747  0.00  0.00    +0.000 C 
ATOM      8  C   UNL     1       0.952   3.525  20.081  0.00  0.00    +0.000 C 
ATOM      9  H   UNL     1       5.354   2.667  18.704  0.00  0.00    +0.000 HD
ATOM     10  H   UNL     1       1.531   1.644  18.173  0.00  0.00    +0.000 HD
ENDROOT
BRANCH   1  11
ATOM     11  C   UNL     1       2.490   6.153  18.815  0.00  0.00    +0.000 C 
ATOM     12  O   UNL     1       2.173   6.798  17.826  0.00  0.00    +0.000 OA
BRANCH  11  13
ATOM     13  O   UNL     1       2.670   6.659  20.055  0.00  0.00    +0.000 OA
BRANCH  13  15
ATOM     14  C   UNL     1       1.256   8.349  20.976  0.00  0.00    +0.000 C 
ATOM     15  C   UNL     1       1.475   6.854  20.823  0.00  0.00    +0.000 C 
ENDBRANCH  13  15
ENDBRANCH  11  13
ENDBRANCH   1  11
BRANCH   2  16
ATOM     16  C   UNL     1       5.313   5.220  19.004  0.00  0.00    +0.000 C 
BRANCH  16  17
ATOM     17  O   UNL     1       6.529   4.439  18.957  0.00  0.00    +0.000 OA
BRANCH  17  18
ATOM     18  C   UNL     1       7.308   4.640  17.859  0.00  0.00    +0.000 C 
ATOM     19  O   UNL     1       8.401   4.127  17.661  0.00  0.00    +0.000 OA
BRANCH  18  20
ATOM     20  C   UNL     1       6.624   5.584  16.900  0.00  0.00    +0.000 C 
BRANCH  20  21
ATOM     21  C   UNL     1       7.450   5.711  15.625  0.00  0.00    +0.000 C 
BRANCH  21  22
ATOM     22  C   UNL     1       6.856   4.929  14.480  0.00  0.00    +0.000 A 
ATOM     23  C   UNL     1       7.570   4.755  13.286  0.00  0.00    +0.000 A 
ATOM     24  C   UNL     1       7.022   4.013  12.237  0.00  0.00    +0.000 A 
ATOM     25  C   UNL     1       5.759   3.452  12.380  0.00  0.00    +0.000 A 
ATOM     26  F   UNL     1       5.237   2.734  11.376  0.00  0.00    +0.000 F 
ATOM     27  C   UNL     1       5.030   3.623  13.550  0.00  0.00    +0.000 A 
ATOM     28  C   UNL     1       5.576   4.364  14.600  0.00  0.00    +0.000 A 
ENDBRANCH  21  22
ENDBRANCH  20  21
ENDBRANCH  18  20
ENDBRANCH  17  18
ENDBRANCH  16  17
ENDBRANCH   2  16
TORSDOF 9
ENDMDL
MODEL 3
REMARK VINA RESULT:      -7.4      1.606      2.009
REMARK  Name = 
REMARK  11 active torsions:
REMARK  status: ('A' for Active; 'I' for Inactive)
REMARK    1  A    between atoms: C_1  and  C_2
REMARK    2  A    between atoms: C_2  and  O_3
REMARK    3  A    between atoms: O_3  and  C_4
REMARK    4  A    between atoms: C_4  and  C_6
REMARK    5  A    between atoms: C_7  and  C_8
REMARK    6  A    between atoms: C_8  and  O_9
REMARK    7  A    between atoms: O_9  and  C_10
REMARK    8  A    between atoms: C_10  and  C_12
REMARK    9  A    between atoms: C_12  and  C_13
REMARK   10  A    between atoms: C_13  and  C_14
REMARK   11  A    between atoms: C_25  and  C_26
REMARK                            x       y       z     vdW  Elec       q    Type
REMARK                         _______ _______ _______ _____ _____    ______ ____
ROOT
ATOM      1  C   UNL     1       4.677   4.503  17.275  0.00  0.00    +0.000 C 
ATOM      2  C   UNL     1       4.476   5.802  17.583  0.00  0.00    +0.000 C 
ATOM      3  N   UNL     1       3.624   6.104  18.625  0.00  0.00    +0.000 N 
ATOM      4  C   UNL     1       3.035   5.200  19.452  0.00  0.00    +0.000 C 
ATOM      5  O   UNL     1       2.322   5.540  20.388  0.00  0.00    +0.000 OA
ATOM      6  N   UNL     1       3.318   3.896  19.203  0.00  0.00    +0.000 N 
ATOM      7  C   UNL     1       3.922   3.399  17.972  0.00  0.00    +0.000 C 
ATOM      8  C   UNL     1       2.819   2.768  17.114  0.00  0.00    +0.000 C 
ATOM      9  H   UNL     1       3.457   7.076  18.858  0.00  0.00    +0.000 HD
ATOM     10  H   UNL     1       2.833   3.250  19.813  0.00  0.00    +0.000 HD
ENDROOT
BRANCH   1  11
ATOM     11  C   UNL     1       5.686   4.148  16.245  0.00  0.00    +0.000 C 
ATOM     12  O   UNL     1       6.852   3.872  16.487  0.00  0.00    +0.000 OA
BRANCH  11  13
ATOM     13  O   UNL     1       5.144   4.247  15.011  0.00  0.00    +0.000 OA
BRANCH  13  15
ATOM     14  C   UNL     1       5.858   3.451  12.876  0.00  0.00    +0.000 C 
ATOM     15  C   UNL     1       6.070   4.505  13.948  0.00  0.00    +0.000 C 
ENDBRANCH  13  15
ENDBRANCH  11  13
ENDBRANCH   1  11
BRANCH   2  16
ATOM     16  C   UNL     1       5.077   6.998  16.863  0.00  0.00    +0.000 C 
BRANCH  16  17
ATOM     17  O   UNL     1       6.037   7.659  17.717  0.00  0.00    +0.000 OA
BRANCH  17  18
ATOM     18  C   UNL     1       7.340   7.519  17.347  0.00  0.00    +0.000 C 
ATOM     19  O   UNL     1       7.741   6.852  16.403  0.00  0.00    +0.000 OA
BRANCH  18  20
ATOM     20  C   UNL     1       8.231   8.319  18.265  0.00  0.00    +0.000 C 
BRANCH  20  21
ATOM     21  C   UNL     1       8.171   9.794  17.884  0.00  0.00    +0.000 C 
BRANCH  21  22
ATOM     22  C   UNL     1       9.272  10.597  18.532  0.00  0.00    +0.000 A 
ATOM     23  C   UNL     1       9.350  10.708  19.928  0.00  0.00    +0.000 A 
ATOM     24  C   UNL     1      10.384  11.436  20.521  0.00  0.00    +0.000 A 
ATOM     25  C   UNL     1      11.333  12.058  19.719  0.00  0.00    +0.000 A 
ATOM     26  F   UNL     1      12.328  12.751  20.289  0.00  0.00    +0.000 F 
ATOM     27  C   UNL     1      11.265  11.971  18.334  0.00  0.00    +0.000 A 
ATOM     28  C   UNL     1      10.233  11.243  17.739  0.00  0.00    +0.000 A 
ENDBRANCH  21  22
ENDBRANCH  20  21
ENDBRANCH  18  20
ENDBRANCH  17  18
ENDBRANCH  16  17
ENDBRANCH   2  16
TORSDOF 9
ENDMDL
MODEL 4
REMARK VINA RESULT:      -7.2      5.108      6.561
REMARK  Name = 
REMARK  11 active torsions:
REMARK  status: ('A' for Active; 'I' for Inactive)
REMARK    1  A    between atoms: C_1  and  C_2
REMARK    2  A    between atoms: C_2  and  O_3
REMARK    3  A    between atoms: O_3  and  C_4
REMARK    4  A    between atoms: C_4  and  C_6
REMARK    5  A    between atoms: C_7  and  C_8
REMARK    6  A    between atoms: C_8  and  O_9
REMARK    7  A    between atoms: O_9  and  C_10
REMARK    8  A    between atoms: C_10  and  C_12
REMARK    9  A    between atoms: C_12  and  C_13
REMARK   10  A    between atoms: C_13  and  C_14
REMARK   11  A    between atoms: C_25  and  C_26
REMARK                            x       y       z     vdW  Elec       q    Type
REMARK                         _______ _______ _______ _____ _____    ______ ____
ROOT
ATOM      1  C   UNL     1       4.108   4.033  19.145  0.00  0.00    +0.000 C 
ATOM      2  C   UNL     1       3.309   4.906  19.794  0.00  0.00    +0.000 C 
ATOM      3  N   UNL     1       2.485   4.422  20.790  0.00  0.00    +0.000 N 
ATOM      4  C   UNL     1       2.475   3.146  21.258  0.00  0.00    +0.000 C 
ATOM      5  O   UNL     1       1.746   2.794  22.177  0.00  0.00    +0.000 OA
ATOM      6  N   UNL     1       3.351   2.292  20.671  0.00  0.00    +0.000 N 
ATOM      7  C   UNL     1       4.046   2.550  19.415  0.00  0.00    +0.000 C 
ATOM      8  C   UNL     1       3.352   1.750  18.307  0.00  0.00    +0.000 C 
ATOM      9  H   UNL     1       1.872   5.067  21.277  0.00  0.00    +0.000 HD
ATOM     10  H   UNL     1       3.290   1.343  21.017  0.00  0.00    +0.000 HD
ENDROOT
BRANCH   1  11
ATOM     11  C   UNL     1       5.095   4.545  18.161  0.00  0.00    +0.000 C 
ATOM     12  O   UNL     1       4.807   4.975  17.053  0.00  0.00    +0.000 OA
BRANCH  11  13
ATOM     13  O   UNL     1       6.349   4.397  18.642  0.00  0.00    +0.000 OA
BRANCH  13  15
ATOM     14  C   UNL     1       7.659   6.377  18.380  0.00  0.00    +0.000 C 
ATOM     15  C   UNL     1       6.874   5.522  19.359  0.00  0.00    +0.000 C 
ENDBRANCH  13  15
ENDBRANCH  11  13
ENDBRANCH   1  11
BRANCH   2  16
ATOM     16  C   UNL     1       3.191   6.394  19.514  0.00  0.00    +0.000 C 
BRANCH  16  17
ATOM     17  O   UNL     1       2.293   6.619  18.404  0.00  0.00    +0.000 OA
BRANCH  17  18
ATOM     18  C   UNL     1       2.455   7.805  17.754  0.00  0.00    +0.000 C 
ATOM     19  O   UNL     1       3.458   8.147  17.142  0.00  0.00    +0.000 OA
BRANCH  18  20
ATOM     20  C   UNL     1       1.207   8.644  17.882  0.00  0.00    +0.000 C 
BRANCH  20  21
ATOM     21  C   UNL     1       1.529   9.934  18.627  0.00  0.00    +0.000 C 
BRANCH  21  22
ATOM     22  C   UNL     1       0.796  10.033  19.942  0.00  0.00    +0.000 A 
ATOM     23  C   UNL     1       0.788   8.955  20.840  0.00  0.00    +0.000 A 
ATOM     24  C   UNL     1       0.123   9.061  22.064  0.00  0.00    +0.000 A 
ATOM     25  C   UNL     1      -0.538  10.239  22.386  0.00  0.00    +0.000 A 
ATOM     26  F   UNL     1      -1.169  10.342  23.563  0.00  0.00    +0.000 F 
ATOM     27  C   UNL     1      -0.553  11.314  21.505  0.00  0.00    +0.000 A 
ATOM     28  C   UNL     1       0.111  11.210  20.281  0.00  0.00    +0.000 A 
ENDBRANCH  21  22
ENDBRANCH  20  21
ENDBRANCH  18  20
ENDBRANCH  17  18
ENDBRANCH  16  17
ENDBRANCH   2  16
TORSDOF 9
ENDMDL
MODEL 5
REMARK VINA RESULT:      -7.2      5.802      8.038
REMARK  Name = 
REMARK  11 active torsions:
REMARK  status: ('A' for Active; 'I' for Inactive)
REMARK    1  A    between atoms: C_1  and  C_2
REMARK    2  A    between atoms: C_2  and  O_3
REMARK    3  A    between atoms: O_3  and  C_4
REMARK    4  A    between atoms: C_4  and  C_6
REMARK    5  A    between atoms: C_7  and  C_8
REMARK    6  A    between atoms: C_8  and  O_9
REMARK    7  A    between atoms: O_9  and  C_10
REMARK    8  A    between atoms: C_10  and  C_12
REMARK    9  A    between atoms: C_12  and  C_13
REMARK   10  A    between atoms: C_13  and  C_14
REMARK   11  A    between atoms: C_25  and  C_26
REMARK                            x       y       z     vdW  Elec       q    Type
REMARK                         _______ _______ _______ _____ _____    ______ ____
ROOT
ATOM      1  C   UNL     1       3.195   4.068  18.712  0.00  0.00    +0.000 C 
ATOM      2  C   UNL     1       3.414   5.328  19.145  0.00  0.00    +0.000 C 
ATOM      3  N   UNL     1       4.710   5.706  19.429  0.00  0.00    +0.000 N 
ATOM      4  C   UNL     1       5.820   4.951  19.213  0.00  0.00    +0.000 C 
ATOM      5  O   UNL     1       6.947   5.367  19.447  0.00  0.00    +0.000 OA
ATOM      6  N   UNL     1       5.606   3.720  18.682  0.00  0.00    +0.000 N 
ATOM      7  C   UNL     1       4.309   3.054  18.628  0.00  0.00    +0.000 C 
ATOM      8  C   UNL     1       4.264   1.996  19.736  0.00  0.00    +0.000 C 
ATOM      9  H   UNL     1       4.885   6.646  19.766  0.00  0.00    +0.000 HD
ATOM     10  H   UNL     1       6.449   3.172  18.571  0.00  0.00    +0.000 HD
ENDROOT
BRANCH   1  11
ATOM     11  C   UNL     1       1.830   3.676  18.277  0.00  0.00    +0.000 C 
ATOM     12  O   UNL     1       1.235   4.178  17.335  0.00  0.00    +0.000 OA
BRANCH  11  13
ATOM     13  O   UNL     1       1.326   2.745  19.116  0.00  0.00    +0.000 OA
BRANCH  13  15
ATOM     14  C   UNL     1       1.372   2.782  21.504  0.00  0.00    +0.000 C 
ATOM     15  C   UNL     1       0.635   3.256  20.264  0.00  0.00    +0.000 C 
ENDBRANCH  13  15
ENDBRANCH  11  13
ENDBRANCH   1  11
BRANCH   2  16
ATOM     16  C   UNL     1       2.354   6.388  19.394  0.00  0.00    +0.000 C 
BRANCH  16  17
ATOM     17  O   UNL     1       2.886   7.698  19.097  0.00  0.00    +0.000 OA
BRANCH  17  18
ATOM     18  C   UNL     1       2.046   8.527  18.417  0.00  0.00    +0.000 C 
ATOM     19  O   UNL     1       2.135   8.810  17.230  0.00  0.00    +0.000 OA
BRANCH  18  20
ATOM     20  C   UNL     1       0.968   9.046  19.338  0.00  0.00    +0.000 C 
BRANCH  20  21
ATOM     21  C   UNL     1       0.623  10.484  18.968  0.00  0.00    +0.000 C 
BRANCH  21  22
ATOM     22  C   UNL     1      -0.799  10.622  18.482  0.00  0.00    +0.000 A 
ATOM     23  C   UNL     1      -1.672  11.544  19.078  0.00  0.00    +0.000 A 
ATOM     24  C   UNL     1      -2.981  11.682  18.609  0.00  0.00    +0.000 A 
ATOM     25  C   UNL     1      -3.417  10.893  17.552  0.00  0.00    +0.000 A 
ATOM     26  F   UNL     1      -4.671  11.031  17.099  0.00  0.00    +0.000 F 
ATOM     27  C   UNL     1      -2.572   9.966  16.956  0.00  0.00    +0.000 A 
ATOM     28  C   UNL     1      -1.263   9.827  17.423  0.00  0.00    +0.000 A 
ENDBRANCH  21  22
ENDBRANCH  20  21
ENDBRANCH  18  20
ENDBRANCH  17  18
ENDBRANCH  16  17
ENDBRANCH   2  16
TORSDOF 9
ENDMDL
MODEL 6
REMARK VINA RESULT:      -7.2      5.654      7.443
REMARK  Name = 
REMARK  11 active torsions:
REMARK  status: ('A' for Active; 'I' for Inactive)
REMARK    1  A    between atoms: C_1  and  C_2
REMARK    2  A    between atoms: C_2  and  O_3
REMARK    3  A    between atoms: O_3  and  C_4
REMARK    4  A    between atoms: C_4  and  C_6
REMARK    5  A    between atoms: C_7  and  C_8
REMARK    6  A    between atoms: C_8  and  O_9
REMARK    7  A    between atoms: O_9  and  C_10
REMARK    8  A    between atoms: C_10  and  C_12
REMARK    9  A    between atoms: C_12  and  C_13
REMARK   10  A    between atoms: C_13  and  C_14
REMARK   11  A    between atoms: C_25  and  C_26
REMARK                            x       y       z     vdW  Elec       q    Type
REMARK                         _______ _______ _______ _____ _____    ______ ____
ROOT
ATOM      1  C   UNL     1       3.963   4.120  19.296  0.00  0.00    +0.000 C 
ATOM      2  C   UNL     1       3.033   4.911  19.871  0.00  0.00    +0.000 C 
ATOM      3  N   UNL     1       2.216   4.363  20.839  0.00  0.00    +0.000 N 
ATOM      4  C   UNL     1       2.327   3.109  21.351  0.00  0.00    +0.000 C 
ATOM      5  O   UNL     1       1.593   2.700  22.242  0.00  0.00    +0.000 OA
ATOM      6  N   UNL     1       3.328   2.347  20.841  0.00  0.00    +0.000 N 
ATOM      7  C   UNL     1       4.058   2.648  19.615  0.00  0.00    +0.000 C 
ATOM      8  C   UNL     1       3.525   1.740  18.501  0.00  0.00    +0.000 C 
ATOM      9  H   UNL     1       1.506   4.945  21.269  0.00  0.00    +0.000 HD
ATOM     10  H   UNL     1       3.358   1.408  21.217  0.00  0.00    +0.000 HD
ENDROOT
BRANCH   1  11
ATOM     11  C   UNL     1       4.938   4.715  18.348  0.00  0.00    +0.000 C 
ATOM     12  O   UNL     1       4.689   4.991  17.183  0.00  0.00    +0.000 OA
BRANCH  11  13
ATOM     13  O   UNL     1       6.147   4.836  18.941  0.00  0.00    +0.000 OA
BRANCH  13  15
ATOM     14  C   UNL     1       7.874   6.456  18.630  0.00  0.00    +0.000 C 
ATOM     15  C   UNL     1       7.228   5.200  18.072  0.00  0.00    +0.000 C 
ENDBRANCH  13  15
ENDBRANCH  11  13
ENDBRANCH   1  11
BRANCH   2  16
ATOM     16  C   UNL     1       2.759   6.366  19.532  0.00  0.00    +0.000 C 
BRANCH  16  17
ATOM     17  O   UNL     1       1.775   6.910  20.441  0.00  0.00    +0.000 OA
BRANCH  17  18
ATOM     18  C   UNL     1       1.583   8.255  20.355  0.00  0.00    +0.000 C 
ATOM     19  O   UNL     1       1.400   9.007  21.303  0.00  0.00    +0.000 OA
BRANCH  18  20
ATOM     20  C   UNL     1       1.641   8.699  18.914  0.00  0.00    +0.000 C 
BRANCH  20  21
ATOM     21  C   UNL     1       1.322  10.187  18.820  0.00  0.00    +0.000 C 
BRANCH  21  22
ATOM     22  C   UNL     1      -0.139  10.442  18.545  0.00  0.00    +0.000 A 
ATOM     23  C   UNL     1      -0.806   9.748  17.524  0.00  0.00    +0.000 A 
ATOM     24  C   UNL     1      -2.164   9.976  17.288  0.00  0.00    +0.000 A 
ATOM     25  C   UNL     1      -2.851  10.899  18.066  0.00  0.00    +0.000 A 
ATOM     26  F   UNL     1      -4.155  11.111  17.843  0.00  0.00    +0.000 F 
ATOM     27  C   UNL     1      -2.205  11.605  19.073  0.00  0.00    +0.000 A 
ATOM     28  C   UNL     1      -0.848  11.380  19.311  0.00  0.00    +0.000 A 
ENDBRANCH  21  22
ENDBRANCH  20  21
ENDBRANCH  18  20
ENDBRANCH  17  18
ENDBRANCH  16  17
ENDBRANCH   2  16
TORSDOF 9
ENDMDL
MODEL 7
REMARK VINA RESULT:      -7.1      4.557      6.563
REMARK  Name = 
REMARK  11 active torsions:
REMARK  status: ('A' for Active; 'I' for Inactive)
REMARK    1  A    between atoms: C_1  and  C_2
REMARK    2  A    between atoms: C_2  and  O_3
REMARK    3  A    between atoms: O_3  and  C_4
REMARK    4  A    between atoms: C_4  and  C_6
REMARK    5  A    between atoms: C_7  and  C_8
REMARK    6  A    between atoms: C_8  and  O_9
REMARK    7  A    between atoms: O_9  and  C_10
REMARK    8  A    between atoms: C_10  and  C_12
REMARK    9  A    between atoms: C_12  and  C_13
REMARK   10  A    between atoms: C_13  and  C_14
REMARK   11  A    between atoms: C_25  and  C_26
REMARK                            x       y       z     vdW  Elec       q    Type
REMARK                         _______ _______ _______ _____ _____    ______ ____
ROOT
ATOM      1  C   UNL     1       2.742   4.312  19.553  0.00  0.00    +0.000 C 
ATOM      2  C   UNL     1       4.057   4.077  19.358  0.00  0.00    +0.000 C 
ATOM      3  N   UNL     1       4.446   2.807  18.981  0.00  0.00    +0.000 N 
ATOM      4  C   UNL     1       3.608   1.779  18.684  0.00  0.00    +0.000 C 
ATOM      5  O   UNL     1       4.021   0.688  18.313  0.00  0.00    +0.000 OA
ATOM      6  N   UNL     1       2.281   2.047  18.785  0.00  0.00    +0.000 N 
ATOM      7  C   UNL     1       1.718   3.207  19.467  0.00  0.00    +0.000 C 
ATOM      8  C   UNL     1       1.185   2.753  20.830  0.00  0.00    +0.000 C 
ATOM      9  H   UNL     1       5.432   2.616  18.842  0.00  0.00    +0.000 HD
ATOM     10  H   UNL     1       1.688   1.249  18.594  0.00  0.00    +0.000 HD
ENDROOT
BRANCH   1  11
ATOM     11  C   UNL     1       2.285   5.697  19.832  0.00  0.00    +0.000 C 
ATOM     12  O   UNL     1       1.937   6.101  20.932  0.00  0.00    +0.000 OA
BRANCH  11  13
ATOM     13  O   UNL     1       2.244   6.411  18.685  0.00  0.00    +0.000 OA
BRANCH  13  15
ATOM     14  C   UNL     1       2.821   8.468  17.619  0.00  0.00    +0.000 C 
ATOM     15  C   UNL     1       2.188   7.834  18.844  0.00  0.00    +0.000 C 
ENDBRANCH  13  15
ENDBRANCH  11  13
ENDBRANCH   1  11
BRANCH   2  16
ATOM     16  C   UNL     1       5.185   5.076  19.547  0.00  0.00    +0.000 C 
BRANCH  16  17
ATOM     17  O   UNL     1       5.419   5.798  18.316  0.00  0.00    +0.000 OA
BRANCH  17  18
ATOM     18  C   UNL     1       6.718   5.855  17.912  0.00  0.00    +0.000 C 
ATOM     19  O   UNL     1       7.507   6.749  18.185  0.00  0.00    +0.000 OA
BRANCH  18  20
ATOM     20  C   UNL     1       7.058   4.642  17.081  0.00  0.00    +0.000 C 
BRANCH  20  21
ATOM     21  C   UNL     1       5.923   4.352  16.105  0.00  0.00    +0.000 C 
BRANCH  21  22
ATOM     22  C   UNL     1       6.384   4.385  14.668  0.00  0.00    +0.000 A 
ATOM     23  C   UNL     1       5.825   3.517  13.718  0.00  0.00    +0.000 A 
ATOM     24  C   UNL     1       6.242   3.567  12.386  0.00  0.00    +0.000 A 
ATOM     25  C   UNL     1       7.220   4.478  12.007  0.00  0.00    +0.000 A 
ATOM     26  F   UNL     1       7.614   4.529  10.727  0.00  0.00    +0.000 F 
ATOM     27  C   UNL     1       7.795   5.337  12.935  0.00  0.00    +0.000 A 
ATOM     28  C   UNL     1       7.380   5.289  14.267  0.00  0.00    +0.000 A 
ENDBRANCH  21  22
ENDBRANCH  20  21
ENDBRANCH  18  20
ENDBRANCH  17  18
ENDBRANCH  16  17
ENDBRANCH   2  16
TORSDOF 9
ENDMDL
MODEL 8
REMARK VINA RESULT:      -7.0      5.220      6.915
REMARK  Name = 
REMARK  11 active torsions:
REMARK  status: ('A' for Active; 'I' for Inactive)
REMARK    1  A    between atoms: C_1  and  C_2
REMARK    2  A    between atoms: C_2  and  O_3
REMARK    3  A    between atoms: O_3  and  C_4
REMARK    4  A    between atoms: C_4  and  C_6
REMARK    5  A    between atoms: C_7  and  C_8
REMARK    6  A    between atoms: C_8  and  O_9
REMARK    7  A    between atoms: O_9  and  C_10
REMARK    8  A    between atoms: C_10  and  C_12
REMARK    9  A    between atoms: C_12  and  C_13
REMARK   10  A    between atoms: C_13  and  C_14
REMARK   11  A    between atoms: C_25  and  C_26
REMARK                            x       y       z     vdW  Elec       q    Type
REMARK                         _______ _______ _______ _____ _____    ______ ____
ROOT
ATOM      1  C   UNL     1       2.948   3.962  18.240  0.00  0.00    +0.000 C 
ATOM      2  C   UNL     1       3.434   5.103  18.775  0.00  0.00    +0.000 C 
ATOM      3  N   UNL     1       4.803   5.262  18.841  0.00  0.00    +0.000 N 
ATOM      4  C   UNL     1       5.725   4.411  18.319  0.00  0.00    +0.000 C 
ATOM      5  O   UNL     1       6.927   4.636  18.376  0.00  0.00    +0.000 OA
ATOM      6  N   UNL     1       5.231   3.313  17.692  0.00  0.00    +0.000 N 
ATOM      7  C   UNL     1       3.858   2.837  17.813  0.00  0.00    +0.000 C 
ATOM      8  C   UNL     1       3.845   1.638  18.768  0.00  0.00    +0.000 C 
ATOM      9  H   UNL     1       5.179   6.109  19.252  0.00  0.00    +0.000 HD
ATOM     10  H   UNL     1       5.944   2.683  17.349  0.00  0.00    +0.000 HD
ENDROOT
BRANCH   1  11
ATOM     11  C   UNL     1       1.484   3.821  18.038  0.00  0.00    +0.000 C 
ATOM     12  O   UNL     1       0.848   4.395  17.165  0.00  0.00    +0.000 OA
BRANCH  11  13
ATOM     13  O   UNL     1       0.957   3.029  18.998  0.00  0.00    +0.000 OA
BRANCH  13  15
ATOM     14  C   UNL     1       1.337   2.803  21.345  0.00  0.00    +0.000 C 
ATOM     15  C   UNL     1       0.716   3.665  20.261  0.00  0.00    +0.000 C 
ENDBRANCH  13  15
ENDBRANCH  11  13
ENDBRANCH   1  11
BRANCH   2  16
ATOM     16  C   UNL     1       2.614   6.241  19.357  0.00  0.00    +0.000 C 
BRANCH  16  17
ATOM     17  O   UNL     1       2.092   7.070  18.294  0.00  0.00    +0.000 OA
BRANCH  17  18
ATOM     18  C   UNL     1       2.934   8.043  17.848  0.00  0.00    +0.000 C 
ATOM     19  O   UNL     1       4.061   7.859  17.408  0.00  0.00    +0.000 OA
BRANCH  18  20
ATOM     20  C   UNL     1       2.273   9.395  17.960  0.00  0.00    +0.000 C 
BRANCH  20  21
ATOM     21  C   UNL     1       0.779   9.219  18.206  0.00  0.00    +0.000 C 
BRANCH  21  22
ATOM     22  C   UNL     1       0.346   9.789  19.534  0.00  0.00    +0.000 A 
ATOM     23  C   UNL     1      -0.389  10.981  19.595  0.00  0.00    +0.000 A 
ATOM     24  C   UNL     1      -0.803  11.492  20.828  0.00  0.00    +0.000 A 
ATOM     25  C   UNL     1      -0.475  10.816  21.996  0.00  0.00    +0.000 A 
ATOM     26  F   UNL     1      -0.879  11.303  23.177  0.00  0.00    +0.000 F 
ATOM     27  C   UNL     1       0.264   9.640  21.957  0.00  0.00    +0.000 A 
ATOM     28  C   UNL     1       0.678   9.127  20.727  0.00  0.00    +0.000 A 
ENDBRANCH  21  22
ENDBRANCH  20  21
ENDBRANCH  18  20
ENDBRANCH  17  18
ENDBRANCH  16  17
ENDBRANCH   2  16
TORSDOF 9
ENDMDL
MODEL 9
REMARK VINA RESULT:      -7.0      6.047      7.934
REMARK  Name = 
REMARK  11 active torsions:
REMARK  status: ('A' for Active; 'I' for Inactive)
REMARK    1  A    between atoms: C_1  and  C_2
REMARK    2  A    between atoms: C_2  and  O_3
REMARK    3  A    between atoms: O_3  and  C_4
REMARK    4  A    between atoms: C_4  and  C_6
REMARK    5  A    between atoms: C_7  and  C_8
REMARK    6  A    between atoms: C_8  and  O_9
REMARK    7  A    between atoms: O_9  and  C_10
REMARK    8  A    between atoms: C_10  and  C_12
REMARK    9  A    between atoms: C_12  and  C_13
REMARK   10  A    between atoms: C_13  and  C_14
REMARK   11  A    between atoms: C_25  and  C_26
REMARK                            x       y       z     vdW  Elec       q    Type
REMARK                         _______ _______ _______ _____ _____    ______ ____
ROOT
ATOM      1  C   UNL     1       3.991   4.891  18.264  0.00  0.00    +0.000 C 
ATOM      2  C   UNL     1       2.990   5.722  18.624  0.00  0.00    +0.000 C 
ATOM      3  N   UNL     1       2.124   5.311  19.617  0.00  0.00    +0.000 N 
ATOM      4  C   UNL     1       2.245   4.173  20.351  0.00  0.00    +0.000 C 
ATOM      5  O   UNL     1       1.463   3.891  21.250  0.00  0.00    +0.000 OA
ATOM      6  N   UNL     1       3.311   3.387  20.055  0.00  0.00    +0.000 N 
ATOM      7  C   UNL     1       4.119   3.505  18.847  0.00  0.00    +0.000 C 
ATOM      8  C   UNL     1       3.706   2.390  17.880  0.00  0.00    +0.000 C 
ATOM      9  H   UNL     1       1.361   5.922  19.888  0.00  0.00    +0.000 HD
ATOM     10  H   UNL     1       3.349   2.531  20.593  0.00  0.00    +0.000 HD
ENDROOT
BRANCH   1  11
ATOM     11  C   UNL     1       5.011   5.361  17.293  0.00  0.00    +0.000 C 
ATOM     12  O   UNL     1       5.079   4.991  16.129  0.00  0.00    +0.000 OA
BRANCH  11  13
ATOM     13  O   UNL     1       5.884   6.192  17.903  0.00  0.00    +0.000 OA
BRANCH  13  15
ATOM     14  C   UNL     1       7.715   7.690  17.571  0.00  0.00    +0.000 C 
ATOM     15  C   UNL     1       7.171   6.302  17.281  0.00  0.00    +0.000 C 
ENDBRANCH  13  15
ENDBRANCH  11  13
ENDBRANCH   1  11
BRANCH   2  16
ATOM     16  C   UNL     1       2.686   7.079  18.013  0.00  0.00    +0.000 C 
BRANCH  16  17
ATOM     17  O   UNL     1       2.081   7.943  19.001  0.00  0.00    +0.000 OA
BRANCH  17  18
ATOM     18  C   UNL     1       1.630   9.139  18.532  0.00  0.00    +0.000 C 
ATOM     19  O   UNL     1       1.994   9.677  17.495  0.00  0.00    +0.000 OA
BRANCH  18  20
ATOM     20  C   UNL     1       0.597   9.711  19.472  0.00  0.00    +0.000 C 
BRANCH  20  21
ATOM     21  C   UNL     1       0.091  11.044  18.932  0.00  0.00    +0.000 C 
BRANCH  21  22
ATOM     22  C   UNL     1      -1.351  10.973  18.494  0.00  0.00    +0.000 A 
ATOM     23  C   UNL     1      -2.312  11.825  19.056  0.00  0.00    +0.000 A 
ATOM     24  C   UNL     1      -3.641  11.767  18.630  0.00  0.00    +0.000 A 
ATOM     25  C   UNL     1      -4.009  10.854  17.651  0.00  0.00    +0.000 A 
ATOM     26  F   UNL     1      -5.284  10.804  17.239  0.00  0.00    +0.000 F 
ATOM     27  C   UNL     1      -3.075   9.992  17.091  0.00  0.00    +0.000 A 
ATOM     28  C   UNL     1      -1.746  10.048  17.514  0.00  0.00    +0.000 A 
ENDBRANCH  21  22
ENDBRANCH  20  21
ENDBRANCH  18  20
ENDBRANCH  17  18
ENDBRANCH  16  17
ENDBRANCH   2  16
TORSDOF 9
ENDMDL
