MODEL 1
REMARK VINA RESULT:      -7.9      0.000      0.000
REMARK  Name = 
REMARK  4 active torsions:
REMARK  status: ('A' for Active; 'I' for Inactive)
REMARK    1  A    between atoms: C_1  and  O_2
REMARK    2  A    between atoms: O_2  and  C_3
REMARK    3  A    between atoms: C_9  and  C_10
REMARK    4  A    between atoms: C_16  and  C_17
REMARK                            x       y       z     vdW  Elec       q    Type
REMARK                         _______ _______ _______ _____ _____    ______ ____
ROOT
ATOM      1  C   UNL     1       4.010   4.088  18.806  0.00  0.00    +0.000 A 
ATOM      2  C   UNL     1       3.805   2.824  19.391  0.00  0.00    +0.000 A 
ATOM      3  C   UNL     1       2.871   2.652  20.404  0.00  0.00    +0.000 A 
ATOM      4  N   UNL     1       2.117   3.626  20.946  0.00  0.00    +0.000 NA
ATOM      5  C   UNL     1       2.351   4.828  20.396  0.00  0.00    +0.000 A 
ATOM      6  N   UNL     1       1.727   5.975  20.806  0.00  0.00    +0.000 N 
ATOM      7  C   UNL     1       2.206   7.043  20.096  0.00  0.00    +0.000 A 
ATOM      8  C   UNL     1       3.089   6.554  19.158  0.00  0.00    +0.000 A 
ATOM      9  C   UNL     1       3.233   5.142  19.362  0.00  0.00    +0.000 A 
ATOM     10  H   UNL     1       1.052   5.997  21.557  0.00  0.00    +0.000 HD
ENDROOT
BRANCH   1  17
ATOM     11  C   UNL     1       6.335   4.701  17.907  0.00  0.00    +0.000 A 
ATOM     12  C   UNL     1       7.218   4.876  16.825  0.00  0.00    +0.000 A 
ATOM     13  C   UNL     1       6.788   4.671  15.518  0.00  0.00    +0.000 A 
ATOM     14  C   UNL     1       5.471   4.311  15.295  0.00  0.00    +0.000 A 
ATOM     15  F   UNL     1       5.050   4.097  14.041  0.00  0.00    +0.000 F 
ATOM     16  C   UNL     1       4.578   4.159  16.352  0.00  0.00    +0.000 A 
ATOM     17  C   UNL     1       4.983   4.311  17.694  0.00  0.00    +0.000 A 
BRANCH  11  19
ATOM     18  C   UNL     1       7.850   5.742  19.412  0.00  0.00    +0.000 C 
ATOM     19  O   UNL     1       6.776   4.827  19.205  0.00  0.00    +0.000 OA
ENDBRANCH  11  19
ENDBRANCH   1  17
BRANCH   7  20
ATOM     20  C   UNL     1       1.812   8.489  20.353  0.00  0.00    +0.000 C 
ATOM     21  C   UNL     1       1.126   9.187  19.139  0.00  0.00    +0.000 C 
ATOM     22  N   UNL     1       0.231   9.872  20.098  0.00  0.00    +0.000 NA
ATOM     23  C   UNL     1       0.432   8.733  21.024  0.00  0.00    +0.000 C 
ATOM     24  H   UNL     1      -0.727   9.993  19.774  0.00  0.00    +0.000 HD
ENDBRANCH   7  20
TORSDOF 3
ENDMDL
MODEL 2
REMARK VINA RESULT:      -7.6      4.012      6.978
REMARK  Name = 
REMARK  4 active torsions:
REMARK  status: ('A' for Active; 'I' for Inactive)
REMARK    1  A    between atoms: C_1  and  O_2
REMARK    2  A    between atoms: O_2  and  C_3
REMARK    3  A    between atoms: C_9  and  C_10
REMARK    4  A    between atoms: C_16  and  C_17
REMARK                            x       y       z     vdW  Elec       q    Type
REMARK                         _______ _______ _______ _____ _____    ______ ____
ROOT
ATOM      1  C   UNL     1       5.196   4.889  17.309  0.00  0.00    +0.000 A 
ATOM      2  C   UNL     1       6.054   5.637  18.138  0.00  0.00    +0.000 A 
ATOM      3  C   UNL     1       7.191   6.245  17.621  0.00  0.00    +0.000 A 
ATOM      4  N   UNL     1       7.607   6.166  16.344  0.00  0.00    +0.000 NA
ATOM      5  C   UNL     1       6.793   5.422  15.578  0.00  0.00    +0.000 A 
ATOM      6  N   UNL     1       7.030   5.172  14.254  0.00  0.00    +0.000 N 
ATOM      7  C   UNL     1       6.057   4.347  13.757  0.00  0.00    +0.000 A 
ATOM      8  C   UNL     1       5.138   4.138  14.762  0.00  0.00    +0.000 A 
ATOM      9  C   UNL     1       5.613   4.779  15.953  0.00  0.00    +0.000 A 
ATOM     10  H   UNL     1       7.839   5.524  13.763  0.00  0.00    +0.000 HD
ENDROOT
BRANCH   1  17
ATOM     11  C   UNL     1       2.740   4.957  18.052  0.00  0.00    +0.000 A 
ATOM     12  C   UNL     1       1.585   4.296  18.511  0.00  0.00    +0.000 A 
ATOM     13  C   UNL     1       1.599   2.925  18.745  0.00  0.00    +0.000 A 
ATOM     14  C   UNL     1       2.772   2.222  18.541  0.00  0.00    +0.000 A 
ATOM     15  F   UNL     1       2.791   0.899  18.750  0.00  0.00    +0.000 F 
ATOM     16  C   UNL     1       3.930   2.864  18.112  0.00  0.00    +0.000 A 
ATOM     17  C   UNL     1       3.949   4.243  17.817  0.00  0.00    +0.000 A 
BRANCH  11  19
ATOM     18  C   UNL     1       2.572   7.188  18.850  0.00  0.00    +0.000 C 
ATOM     19  O   UNL     1       2.710   6.298  17.744  0.00  0.00    +0.000 OA
ENDBRANCH  11  19
ENDBRANCH   1  17
BRANCH   7  20
ATOM     20  C   UNL     1       6.053   3.780  12.346  0.00  0.00    +0.000 C 
ATOM     21  C   UNL     1       6.403   2.263  12.268  0.00  0.00    +0.000 C 
ATOM     22  N   UNL     1       5.390   2.132  11.198  0.00  0.00    +0.000 NA
ATOM     23  C   UNL     1       4.687   3.295  11.787  0.00  0.00    +0.000 C 
ATOM     24  H   UNL     1       4.862   1.261  11.216  0.00  0.00    +0.000 HD
ENDBRANCH   7  20
TORSDOF 3
ENDMDL
MODEL 3
REMARK VINA RESULT:      -7.4      1.158      1.447
REMARK  Name = 
REMARK  4 active torsions:
REMARK  status: ('A' for Active; 'I' for Inactive)
REMARK    1  A    between atoms: C_1  and  O_2
REMARK    2  A    between atoms: O_2  and  C_3
REMARK    3  A    between atoms: C_9  and  C_10
REMARK    4  A    between atoms: C_16  and  C_17
REMARK                            x       y       z     vdW  Elec       q    Type
REMARK                         _______ _______ _______ _____ _____    ______ ____
ROOT
ATOM      1  C   UNL     1       3.974   5.061  18.608  0.00  0.00    +0.000 A 
ATOM      2  C   UNL     1       3.733   4.136  19.642  0.00  0.00    +0.000 A 
ATOM      3  C   UNL     1       2.753   4.374  20.596  0.00  0.00    +0.000 A 
ATOM      4  N   UNL     1       1.982   5.474  20.666  0.00  0.00    +0.000 NA
ATOM      5  C   UNL     1       2.250   6.358  19.691  0.00  0.00    +0.000 A 
ATOM      6  N   UNL     1       1.616   7.565  19.578  0.00  0.00    +0.000 N 
ATOM      7  C   UNL     1       2.134   8.264  18.521  0.00  0.00    +0.000 A 
ATOM      8  C   UNL     1       3.056   7.450  17.899  0.00  0.00    +0.000 A 
ATOM      9  C   UNL     1       3.180   6.241  18.659  0.00  0.00    +0.000 A 
ATOM     10  H   UNL     1       0.907   7.879  20.226  0.00  0.00    +0.000 HD
ENDROOT
BRANCH   1  17
ATOM     11  C   UNL     1       6.398   4.804  17.802  0.00  0.00    +0.000 A 
ATOM     12  C   UNL     1       7.321   4.560  16.768  0.00  0.00    +0.000 A 
ATOM     13  C   UNL     1       6.884   4.339  15.466  0.00  0.00    +0.000 A 
ATOM     14  C   UNL     1       5.529   4.382  15.197  0.00  0.00    +0.000 A 
ATOM     15  F   UNL     1       5.097   4.156  13.949  0.00  0.00    +0.000 F 
ATOM     16  C   UNL     1       4.604   4.648  16.203  0.00  0.00    +0.000 A 
ATOM     17  C   UNL     1       4.999   4.831  17.545  0.00  0.00    +0.000 A 
BRANCH  11  19
ATOM     18  C   UNL     1       7.910   5.841  19.312  0.00  0.00    +0.000 C 
ATOM     19  O   UNL     1       6.819   4.946  19.105  0.00  0.00    +0.000 OA
ENDBRANCH  11  19
ENDBRANCH   1  17
BRANCH   7  20
ATOM     20  C   UNL     1       1.739   9.687  18.158  0.00  0.00    +0.000 C 
ATOM     21  C   UNL     1       0.233   9.856  17.793  0.00  0.00    +0.000 C 
ATOM     22  N   UNL     1       0.257  11.159  18.494  0.00  0.00    +0.000 NA
ATOM     23  C   UNL     1       1.361  10.633  19.330  0.00  0.00    +0.000 C 
ATOM     24  H   UNL     1      -0.595  11.384  19.005  0.00  0.00    +0.000 HD
ENDBRANCH   7  20
TORSDOF 3
ENDMDL
MODEL 4
REMARK VINA RESULT:      -7.4      3.728      6.577
REMARK  Name = 
REMARK  4 active torsions:
REMARK  status: ('A' for Active; 'I' for Inactive)
REMARK    1  A    between atoms: C_1  and  O_2
REMARK    2  A    between atoms: O_2  and  C_3
REMARK    3  A    between atoms: C_9  and  C_10
REMARK    4  A    between atoms: C_16  and  C_17
REMARK                            x       y       z     vdW  Elec       q    Type
REMARK                         _______ _______ _______ _____ _____    ______ ____
ROOT
ATOM      1  C   UNL     1       5.298   4.920  18.519  0.00  0.00    +0.000 A 
ATOM      2  C   UNL     1       6.249   5.300  19.485  0.00  0.00    +0.000 A 
ATOM      3  C   UNL     1       7.490   5.795  19.106  0.00  0.00    +0.000 A 
ATOM      4  N   UNL     1       7.924   5.928  17.839  0.00  0.00    +0.000 NA
ATOM      5  C   UNL     1       7.015   5.531  16.935  0.00  0.00    +0.000 A 
ATOM      6  N   UNL     1       7.243   5.543  15.586  0.00  0.00    +0.000 N 
ATOM      7  C   UNL     1       6.156   5.036  14.927  0.00  0.00    +0.000 A 
ATOM      8  C   UNL     1       5.184   4.776  15.869  0.00  0.00    +0.000 A 
ATOM      9  C   UNL     1       5.730   5.041  17.169  0.00  0.00    +0.000 A 
ATOM     10  H   UNL     1       8.115   5.845  15.177  0.00  0.00    +0.000 HD
ENDROOT
BRANCH   1  17
ATOM     11  C   UNL     1       2.877   5.255  19.304  0.00  0.00    +0.000 A 
ATOM     12  C   UNL     1       1.611   4.726  19.615  0.00  0.00    +0.000 A 
ATOM     13  C   UNL     1       1.369   3.360  19.515  0.00  0.00    +0.000 A 
ATOM     14  C   UNL     1       2.399   2.524  19.127  0.00  0.00    +0.000 A 
ATOM     15  F   UNL     1       2.173   1.208  19.014  0.00  0.00    +0.000 F 
ATOM     16  C   UNL     1       3.666   3.027  18.841  0.00  0.00    +0.000 A 
ATOM     17  C   UNL     1       3.942   4.410  18.883  0.00  0.00    +0.000 A 
BRANCH  11  19
ATOM     18  C   UNL     1       2.566   7.349  18.227  0.00  0.00    +0.000 C 
ATOM     19  O   UNL     1       3.099   6.614  19.326  0.00  0.00    +0.000 OA
ENDBRANCH  11  19
ENDBRANCH   1  17
BRANCH   7  20
ATOM     20  C   UNL     1       6.094   4.806  13.425  0.00  0.00    +0.000 C 
ATOM     21  C   UNL     1       7.479   4.874  12.712  0.00  0.00    +0.000 C 
ATOM     22  N   UNL     1       7.033   3.763  11.842  0.00  0.00    +0.000 NA
ATOM     23  C   UNL     1       6.133   3.332  12.936  0.00  0.00    +0.000 C 
ATOM     24  H   UNL     1       7.762   3.093  11.601  0.00  0.00    +0.000 HD
ENDBRANCH   7  20
TORSDOF 3
ENDMDL
MODEL 5
REMARK VINA RESULT:      -7.3      1.480      3.729
REMARK  Name = 
REMARK  4 active torsions:
REMARK  status: ('A' for Active; 'I' for Inactive)
REMARK    1  A    between atoms: C_1  and  O_2
REMARK    2  A    between atoms: O_2  and  C_3
REMARK    3  A    between atoms: C_9  and  C_10
REMARK    4  A    between atoms: C_16  and  C_17
REMARK                            x       y       z     vdW  Elec       q    Type
REMARK                         _______ _______ _______ _____ _____    ______ ____
ROOT
ATOM      1  C   UNL     1       4.054   6.623  17.599  0.00  0.00    +0.000 A 
ATOM      2  C   UNL     1       3.579   7.879  17.174  0.00  0.00    +0.000 A 
ATOM      3  C   UNL     1       2.611   8.557  17.902  0.00  0.00    +0.000 A 
ATOM      4  N   UNL     1       2.015   8.105  19.020  0.00  0.00    +0.000 NA
ATOM      5  C   UNL     1       2.458   6.893  19.390  0.00  0.00    +0.000 A 
ATOM      6  N   UNL     1       1.975   6.217  20.477  0.00  0.00    +0.000 N 
ATOM      7  C   UNL     1       2.582   4.993  20.570  0.00  0.00    +0.000 A 
ATOM      8  C   UNL     1       3.531   4.925  19.572  0.00  0.00    +0.000 A 
ATOM      9  C   UNL     1       3.437   6.113  18.775  0.00  0.00    +0.000 A 
ATOM     10  H   UNL     1       1.245   6.580  21.073  0.00  0.00    +0.000 HD
ENDROOT
BRANCH   1  17
ATOM     11  C   UNL     1       6.444   5.722  17.346  0.00  0.00    +0.000 A 
ATOM     12  C   UNL     1       7.401   4.986  16.621  0.00  0.00    +0.000 A 
ATOM     13  C   UNL     1       7.066   4.385  15.412  0.00  0.00    +0.000 A 
ATOM     14  C   UNL     1       5.784   4.540  14.919  0.00  0.00    +0.000 A 
ATOM     15  F   UNL     1       5.448   3.954  13.762  0.00  0.00    +0.000 F 
ATOM     16  C   UNL     1       4.833   5.287  15.609  0.00  0.00    +0.000 A 
ATOM     17  C   UNL     1       5.115   5.873  16.861  0.00  0.00    +0.000 A 
BRANCH  11  19
ATOM     18  C   UNL     1       7.885   5.694  19.234  0.00  0.00    +0.000 C 
ATOM     19  O   UNL     1       6.748   6.251  18.579  0.00  0.00    +0.000 OA
ENDBRANCH  11  19
ENDBRANCH   1  17
BRANCH   7  20
ATOM     20  C   UNL     1       2.221   3.933  21.598  0.00  0.00    +0.000 C 
ATOM     21  C   UNL     1       1.033   3.015  21.177  0.00  0.00    +0.000 C 
ATOM     22  N   UNL     1       1.748   1.881  21.804  0.00  0.00    +0.000 NA
ATOM     23  C   UNL     1       3.016   2.600  21.543  0.00  0.00    +0.000 C 
ATOM     24  H   UNL     1       1.651   0.994  21.313  0.00  0.00    +0.000 HD
ENDBRANCH   7  20
TORSDOF 3
ENDMDL
MODEL 6
REMARK VINA RESULT:      -7.3      1.041      1.133
REMARK  Name = 
REMARK  4 active torsions:
REMARK  status: ('A' for Active; 'I' for Inactive)
REMARK    1  A    between atoms: C_1  and  O_2
REMARK    2  A    between atoms: O_2  and  C_3
REMARK    3  A    between atoms: C_9  and  C_10
REMARK    4  A    between atoms: C_16  and  C_17
REMARK                            x       y       z     vdW  Elec       q    Type
REMARK                         _______ _______ _______ _____ _____    ______ ____
ROOT
ATOM      1  C   UNL     1       4.287   4.440  17.907  0.00  0.00    +0.000 A 
ATOM      2  C   UNL     1       4.108   3.238  18.620  0.00  0.00    +0.000 A 
ATOM      3  C   UNL     1       3.179   3.153  19.649  0.00  0.00    +0.000 A 
ATOM      4  N   UNL     1       2.406   4.162  20.089  0.00  0.00    +0.000 NA
ATOM      5  C   UNL     1       2.615   5.306  19.418  0.00  0.00    +0.000 A 
ATOM      6  N   UNL     1       1.968   6.476  19.710  0.00  0.00    +0.000 N 
ATOM      7  C   UNL     1       2.423   7.474  18.892  0.00  0.00    +0.000 A 
ATOM      8  C   UNL     1       3.316   6.909  18.006  0.00  0.00    +0.000 A 
ATOM      9  C   UNL     1       3.489   5.529  18.354  0.00  0.00    +0.000 A 
ATOM     10  H   UNL     1       1.293   6.561  20.456  0.00  0.00    +0.000 HD
ENDROOT
BRANCH   1  17
ATOM     11  C   UNL     1       6.552   5.131  16.918  0.00  0.00    +0.000 A 
ATOM     12  C   UNL     1       7.434   5.208  15.824  0.00  0.00    +0.000 A 
ATOM     13  C   UNL     1       7.055   4.729  14.574  0.00  0.00    +0.000 A 
ATOM     14  C   UNL     1       5.789   4.196  14.415  0.00  0.00    +0.000 A 
ATOM     15  F   UNL     1       5.420   3.720  13.219  0.00  0.00    +0.000 F 
ATOM     16  C   UNL     1       4.895   4.138  15.481  0.00  0.00    +0.000 A 
ATOM     17  C   UNL     1       5.254   4.567  16.776  0.00  0.00    +0.000 A 
BRANCH  11  19
ATOM     18  C   UNL     1       7.750   6.710  18.228  0.00  0.00    +0.000 C 
ATOM     19  O   UNL     1       6.950   5.531  18.174  0.00  0.00    +0.000 OA
ENDBRANCH  11  19
ENDBRANCH   1  17
BRANCH   7  20
ATOM     20  C   UNL     1       2.000   8.931  18.999  0.00  0.00    +0.000 C 
ATOM     21  C   UNL     1       0.903   9.352  17.975  0.00  0.00    +0.000 C 
ATOM     22  N   UNL     1       0.300  10.190  19.036  0.00  0.00    +0.000 NA
ATOM     23  C   UNL     1       0.889   9.266  20.032  0.00  0.00    +0.000 C 
ATOM     24  H   UNL     1      -0.718  10.217  19.030  0.00  0.00    +0.000 HD
ENDBRANCH   7  20
TORSDOF 3
ENDMDL
MODEL 7
REMARK VINA RESULT:      -7.1      4.042      6.751
REMARK  Name = 
REMARK  4 active torsions:
REMARK  status: ('A' for Active; 'I' for Inactive)
REMARK    1  A    between atoms: C_1  and  O_2
REMARK    2  A    between atoms: O_2  and  C_3
REMARK    3  A    between atoms: C_9  and  C_10
REMARK    4  A    between atoms: C_16  and  C_17
REMARK                            x       y       z     vdW  Elec       q    Type
REMARK                         _______ _______ _______ _____ _____    ______ ____
ROOT
ATOM      1  C   UNL     1       5.313   4.588  17.694  0.00  0.00    +0.000 A 
ATOM      2  C   UNL     1       6.202   5.192  18.604  0.00  0.00    +0.000 A 
ATOM      3  C   UNL     1       7.384   5.772  18.164  0.00  0.00    +0.000 A 
ATOM      4  N   UNL     1       7.817   5.794  16.891  0.00  0.00    +0.000 NA
ATOM      5  C   UNL     1       6.971   5.185  16.045  0.00  0.00    +0.000 A 
ATOM      6  N   UNL     1       7.214   5.054  14.705  0.00  0.00    +0.000 N 
ATOM      7  C   UNL     1       6.200   4.348  14.116  0.00  0.00    +0.000 A 
ATOM      8  C   UNL     1       5.251   4.100  15.085  0.00  0.00    +0.000 A 
ATOM      9  C   UNL     1       5.746   4.587  16.339  0.00  0.00    +0.000 A 
ATOM     10  H   UNL     1       8.053   5.399  14.260  0.00  0.00    +0.000 HD
ENDROOT
BRANCH   1  17
ATOM     11  C   UNL     1       3.920   2.980  19.131  0.00  0.00    +0.000 A 
ATOM     12  C   UNL     1       2.671   2.453  19.512  0.00  0.00    +0.000 A 
ATOM     13  C   UNL     1       1.500   2.899  18.909  0.00  0.00    +0.000 A 
ATOM     14  C   UNL     1       1.581   3.854  17.912  0.00  0.00    +0.000 A 
ATOM     15  F   UNL     1       0.458   4.301  17.335  0.00  0.00    +0.000 F 
ATOM     16  C   UNL     1       2.810   4.366  17.505  0.00  0.00    +0.000 A 
ATOM     17  C   UNL     1       4.017   3.978  18.121  0.00  0.00    +0.000 A 
BRANCH  11  19
ATOM     18  C   UNL     1       4.930   1.566  20.751  0.00  0.00    +0.000 C 
ATOM     19  O   UNL     1       5.073   2.599  19.778  0.00  0.00    +0.000 OA
ENDBRANCH  11  19
ENDBRANCH   1  17
BRANCH   7  20
ATOM     20  C   UNL     1       6.185   3.926  12.655  0.00  0.00    +0.000 C 
ATOM     21  C   UNL     1       6.508   2.418  12.424  0.00  0.00    +0.000 C 
ATOM     22  N   UNL     1       5.492   2.413  11.349  0.00  0.00    +0.000 NA
ATOM     23  C   UNL     1       4.810   3.523  12.054  0.00  0.00    +0.000 C 
ATOM     24  H   UNL     1       4.948   1.554  11.280  0.00  0.00    +0.000 HD
ENDBRANCH   7  20
TORSDOF 3
ENDMDL
MODEL 8
REMARK VINA RESULT:      -7.1      3.767      6.628
REMARK  Name = 
REMARK  4 active torsions:
REMARK  status: ('A' for Active; 'I' for Inactive)
REMARK    1  A    between atoms: C_1  and  O_2
REMARK    2  A    between atoms: O_2  and  C_3
REMARK    3  A    between atoms: C_9  and  C_10
REMARK    4  A    between atoms: C_16  and  C_17
REMARK                            x       y       z     vdW  Elec       q    Type
REMARK                         _______ _______ _______ _____ _____    ______ ____
ROOT
ATOM      1  C   UNL     1       5.395   5.179  18.819  0.00  0.00    +0.000 A 
ATOM      2  C   UNL     1       6.462   5.470  19.690  0.00  0.00    +0.000 A 
ATOM      3  C   UNL     1       7.725   5.769  19.194  0.00  0.00    +0.000 A 
ATOM      4  N   UNL     1       8.070   5.779  17.894  0.00  0.00    +0.000 NA
ATOM      5  C   UNL     1       7.047   5.467  17.083  0.00  0.00    +0.000 A 
ATOM      6  N   UNL     1       7.167   5.382  15.722  0.00  0.00    +0.000 N 
ATOM      7  C   UNL     1       5.973   4.999  15.174  0.00  0.00    +0.000 A 
ATOM      8  C   UNL     1       5.053   4.923  16.198  0.00  0.00    +0.000 A 
ATOM      9  C   UNL     1       5.730   5.174  17.437  0.00  0.00    +0.000 A 
ATOM     10  H   UNL     1       8.037   5.540  15.235  0.00  0.00    +0.000 HD
ENDROOT
BRANCH   1  17
ATOM     11  C   UNL     1       3.452   3.575  19.310  0.00  0.00    +0.000 A 
ATOM     12  C   UNL     1       2.154   3.345  19.804  0.00  0.00    +0.000 A 
ATOM     13  C   UNL     1       1.391   4.393  20.306  0.00  0.00    +0.000 A 
ATOM     14  C   UNL     1       1.917   5.672  20.294  0.00  0.00    +0.000 A 
ATOM     15  F   UNL     1       1.196   6.686  20.789  0.00  0.00    +0.000 F 
ATOM     16  C   UNL     1       3.189   5.921  19.785  0.00  0.00    +0.000 A 
ATOM     17  C   UNL     1       4.015   4.881  19.309  0.00  0.00    +0.000 A 
BRANCH  11  19
ATOM     18  C   UNL     1       3.589   1.542  18.089  0.00  0.00    +0.000 C 
ATOM     19  O   UNL     1       4.240   2.530  18.884  0.00  0.00    +0.000 OA
ENDBRANCH  11  19
ENDBRANCH   1  17
BRANCH   7  20
ATOM     20  C   UNL     1       5.761   4.707  13.697  0.00  0.00    +0.000 C 
ATOM     21  C   UNL     1       7.077   4.666  12.861  0.00  0.00    +0.000 C 
ATOM     22  N   UNL     1       6.496   3.544  12.090  0.00  0.00    +0.000 NA
ATOM     23  C   UNL     1       5.679   3.213  13.280  0.00  0.00    +0.000 C 
ATOM     24  H   UNL     1       7.164   2.824  11.818  0.00  0.00    +0.000 HD
ENDBRANCH   7  20
TORSDOF 3
ENDMDL
MODEL 9
REMARK VINA RESULT:      -7.0      3.981      6.909
REMARK  Name = 
REMARK  4 active torsions:
REMARK  status: ('A' for Active; 'I' for Inactive)
REMARK    1  A    between atoms: C_1  and  O_2
REMARK    2  A    between atoms: O_2  and  C_3
REMARK    3  A    between atoms: C_9  and  C_10
REMARK    4  A    between atoms: C_16  and  C_17
REMARK                            x       y       z     vdW  Elec       q    Type
REMARK                         _______ _______ _______ _____ _____    ______ ____
ROOT
ATOM      1  C   UNL     1       5.492   5.408  17.958  0.00  0.00    +0.000 A 
ATOM      2  C   UNL     1       6.338   6.371  18.540  0.00  0.00    +0.000 A 
ATOM      3  C   UNL     1       7.396   6.915  17.823  0.00  0.00    +0.000 A 
ATOM      4  N   UNL     1       7.744   6.578  16.568  0.00  0.00    +0.000 NA
ATOM      5  C   UNL     1       6.944   5.636  16.043  0.00  0.00    +0.000 A 
ATOM      6  N   UNL     1       7.123   5.111  14.792  0.00  0.00    +0.000 N 
ATOM      7  C   UNL     1       6.187   4.140  14.558  0.00  0.00    +0.000 A 
ATOM      8  C   UNL     1       5.344   4.106  15.648  0.00  0.00    +0.000 A 
ATOM      9  C   UNL     1       5.838   5.024  16.633  0.00  0.00    +0.000 A 
ATOM     10  H   UNL     1       7.875   5.392  14.179  0.00  0.00    +0.000 HD
ENDROOT
BRANCH   1  17
ATOM     11  C   UNL     1       3.008   5.351  18.606  0.00  0.00    +0.000 A 
ATOM     12  C   UNL     1       1.940   4.744  19.293  0.00  0.00    +0.000 A 
ATOM     13  C   UNL     1       2.148   3.606  20.064  0.00  0.00    +0.000 A 
ATOM     14  C   UNL     1       3.426   3.089  20.164  0.00  0.00    +0.000 A 
ATOM     15  F   UNL     1       3.635   1.984  20.893  0.00  0.00    +0.000 F 
ATOM     16  C   UNL     1       4.499   3.691  19.513  0.00  0.00    +0.000 A 
ATOM     17  C   UNL     1       4.326   4.819  18.684  0.00  0.00    +0.000 A 
BRANCH  11  19
ATOM     18  C   UNL     1       2.498   7.664  18.432  0.00  0.00    +0.000 C 
ATOM     19  O   UNL     1       2.794   6.431  17.780  0.00  0.00    +0.000 OA
ENDBRANCH  11  19
ENDBRANCH   1  17
BRANCH   7  20
ATOM     20  C   UNL     1       6.145   3.273  13.309  0.00  0.00    +0.000 C 
ATOM     21  C   UNL     1       4.853   3.451  12.455  0.00  0.00    +0.000 C 
ATOM     22  N   UNL     1       5.693   3.321  11.243  0.00  0.00    +0.000 NA
ATOM     23  C   UNL     1       6.831   3.840  12.036  0.00  0.00    +0.000 C 
ATOM     24  H   UNL     1       5.411   3.915  10.464  0.00  0.00    +0.000 HD
ENDBRANCH   7  20
TORSDOF 3
ENDMDL
