MODEL 1
REMARK VINA RESULT:      -9.2      0.000      0.000
REMARK  Name = 
REMARK  3 active torsions:
REMARK  status: ('A' for Active; 'I' for Inactive)
REMARK    1  A    between atoms: C_6  and  N_7
REMARK    2  A    between atoms: N_7  and  C_8
REMARK    3  A    between atoms: N_17  and  C_18
REMARK                            x       y       z     vdW  Elec       q    Type
REMARK                         _______ _______ _______ _____ _____    ______ ____
ROOT
ATOM      1  C   UNL     1       2.192   7.421  19.731  0.00  0.00    +0.000 A 
ATOM      2  C   UNL     1       2.162   8.177  18.541  0.00  0.00    +0.000 A 
ATOM      3  C   UNL     1       1.388   9.340  18.421  0.00  0.00    +0.000 A 
ATOM      4  C   UNL     1       0.697   9.718  19.562  0.00  0.00    +0.000 A 
ATOM      5  O   UNL     1      -0.062  10.833  19.726  0.00  0.00    +0.000 OA
ATOM      6  C   UNL     1      -0.456  10.787  21.038  0.00  0.00    +0.000 A 
ATOM      7  N   UNL     1      -1.109  11.870  21.498  0.00  0.00    +0.000 N 
ATOM      8  C   UNL     1      -1.523  11.943  22.901  0.00  0.00    +0.000 C 
ATOM      9  C   UNL     1      -1.448  13.410  23.393  0.00  0.00    +0.000 C 
ATOM     10  N   UNL     1      -2.224  14.274  22.484  0.00  0.00    +0.000 N 
ATOM     11  C   UNL     1      -1.820  14.198  21.066  0.00  0.00    +0.000 C 
ATOM     12  C   UNL     1      -1.866  12.734  20.582  0.00  0.00    +0.000 C 
ATOM     13  N   UNL     1      -0.050   9.711  21.686  0.00  0.00    +0.000 NA
ATOM     14  C   UNL     1       0.694   9.027  20.756  0.00  0.00    +0.000 A 
ATOM     15  C   UNL     1       1.436   7.842  20.844  0.00  0.00    +0.000 A 
ENDROOT
BRANCH  10  16
ATOM     16  C   UNL     1      -2.991  15.324  22.942  0.00  0.00    +0.000 A 
ATOM     17  C   UNL     1      -3.610  15.317  24.199  0.00  0.00    +0.000 A 
ATOM     18  C   UNL     1      -4.457  16.355  24.603  0.00  0.00    +0.000 A 
ATOM     19  C   UNL     1      -4.708  17.424  23.749  0.00  0.00    +0.000 A 
ATOM     20  C   UNL     1      -4.094  17.464  22.504  0.00  0.00    +0.000 A 
ATOM     21  C   UNL     1      -3.241  16.429  22.114  0.00  0.00    +0.000 A 
ENDBRANCH  10  16
BRANCH   1  22
ATOM     22  N   UNL     1       3.087   6.320  19.837  0.00  0.00    +0.000 N 
ATOM     23  H   UNL     1       4.034   6.631  20.055  0.00  0.00    +0.000 HD
BRANCH  22  29
ATOM     24 CL   UNL     1       7.006   4.922  14.434  0.00  0.00    +0.000 Cl
ATOM     25  C   UNL     1       5.939   4.998  15.783  0.00  0.00    +0.000 A 
ATOM     26  C   UNL     1       6.077   6.021  16.713  0.00  0.00    +0.000 A 
ATOM     27  C   UNL     1       5.181   6.097  17.782  0.00  0.00    +0.000 A 
ATOM     28  C   UNL     1       4.136   5.154  17.931  0.00  0.00    +0.000 A 
ATOM     29  C   UNL     1       3.166   5.194  18.967  0.00  0.00    +0.000 A 
ATOM     30  C   UNL     1       2.195   4.192  19.027  0.00  0.00    +0.000 A 
ATOM     31  C   UNL     1       2.229   3.185  18.086  0.00  0.00    +0.000 A 
ATOM     32  N   UNL     1       3.123   3.126  17.080  0.00  0.00    +0.000 NA
ATOM     33  C   UNL     1       4.044   4.091  16.996  0.00  0.00    +0.000 A 
ATOM     34  C   UNL     1       4.944   4.036  15.938  0.00  0.00    +0.000 A 
ENDBRANCH  22  29
ENDBRANCH   1  22
TORSDOF 3
ENDMDL
MODEL 2
REMARK VINA RESULT:      -9.0      1.935      3.512
REMARK  Name = 
REMARK  3 active torsions:
REMARK  status: ('A' for Active; 'I' for Inactive)
REMARK    1  A    between atoms: C_6  and  N_7
REMARK    2  A    between atoms: N_7  and  C_8
REMARK    3  A    between atoms: N_17  and  C_18
REMARK                            x       y       z     vdW  Elec       q    Type
REMARK                         _______ _______ _______ _____ _____    ______ ____
ROOT
ATOM      1  C   UNL     1       3.182   5.274  18.709  0.00  0.00    +0.000 A 
ATOM      2  C   UNL     1       2.505   4.530  19.697  0.00  0.00    +0.000 A 
ATOM      3  C   UNL     1       1.768   5.149  20.716  0.00  0.00    +0.000 A 
ATOM      4  C   UNL     1       1.711   6.533  20.657  0.00  0.00    +0.000 A 
ATOM      5  O   UNL     1       1.011   7.359  21.478  0.00  0.00    +0.000 OA
ATOM      6  C   UNL     1       1.218   8.610  20.960  0.00  0.00    +0.000 A 
ATOM      7  N   UNL     1       0.504   9.606  21.516  0.00  0.00    +0.000 N 
ATOM      8  C   UNL     1       0.611  10.972  20.996  0.00  0.00    +0.000 C 
ATOM      9  C   UNL     1      -0.754  11.691  21.130  0.00  0.00    +0.000 C 
ATOM     10  N   UNL     1      -1.220  11.606  22.527  0.00  0.00    +0.000 N 
ATOM     11  C   UNL     1      -1.320  10.234  23.061  0.00  0.00    +0.000 C 
ATOM     12  C   UNL     1       0.031   9.506  22.903  0.00  0.00    +0.000 C 
ATOM     13  N   UNL     1       2.030   8.636  19.920  0.00  0.00    +0.000 NA
ATOM     14  C   UNL     1       2.343   7.315  19.712  0.00  0.00    +0.000 A 
ATOM     15  C   UNL     1       3.114   6.682  18.728  0.00  0.00    +0.000 A 
ENDROOT
BRANCH  10  16
ATOM     16  C   UNL     1      -1.857  12.655  23.156  0.00  0.00    +0.000 A 
ATOM     17  C   UNL     1      -1.229  13.883  23.402  0.00  0.00    +0.000 A 
ATOM     18  C   UNL     1      -1.868  14.899  24.122  0.00  0.00    +0.000 A 
ATOM     19  C   UNL     1      -3.152  14.702  24.619  0.00  0.00    +0.000 A 
ATOM     20  C   UNL     1      -3.803  13.499  24.375  0.00  0.00    +0.000 A 
ATOM     21  C   UNL     1      -3.163  12.496  23.645  0.00  0.00    +0.000 A 
ENDBRANCH  10  16
BRANCH   1  22
ATOM     22  N   UNL     1       3.813   4.593  17.631  0.00  0.00    +0.000 N 
ATOM     23  H   UNL     1       3.518   3.618  17.585  0.00  0.00    +0.000 HD
BRANCH  22  29
ATOM     24 CL   UNL     1       7.022   3.779  11.669  0.00  0.00    +0.000 Cl
ATOM     25  C   UNL     1       6.464   4.086  13.268  0.00  0.00    +0.000 A 
ATOM     26  C   UNL     1       5.101   4.214  13.510  0.00  0.00    +0.000 A 
ATOM     27  C   UNL     1       4.656   4.423  14.817  0.00  0.00    +0.000 A 
ATOM     28  C   UNL     1       5.568   4.504  15.897  0.00  0.00    +0.000 A 
ATOM     29  C   UNL     1       5.185   4.674  17.254  0.00  0.00    +0.000 A 
ATOM     30  C   UNL     1       6.177   4.765  18.232  0.00  0.00    +0.000 A 
ATOM     31  C   UNL     1       7.498   4.710  17.840  0.00  0.00    +0.000 A 
ATOM     32  N   UNL     1       7.895   4.531  16.565  0.00  0.00    +0.000 NA
ATOM     33  C   UNL     1       6.957   4.418  15.620  0.00  0.00    +0.000 A 
ATOM     34  C   UNL     1       7.377   4.207  14.312  0.00  0.00    +0.000 A 
ENDBRANCH  22  29
ENDBRANCH   1  22
TORSDOF 3
ENDMDL
MODEL 3
REMARK VINA RESULT:      -9.0      6.840      9.649
REMARK  Name = 
REMARK  3 active torsions:
REMARK  status: ('A' for Active; 'I' for Inactive)
REMARK    1  A    between atoms: C_6  and  N_7
REMARK    2  A    between atoms: N_7  and  C_8
REMARK    3  A    between atoms: N_17  and  C_18
REMARK                            x       y       z     vdW  Elec       q    Type
REMARK                         _______ _______ _______ _____ _____    ______ ____
ROOT
ATOM      1  C   UNL     1       6.207   5.721  17.671  0.00  0.00    +0.000 A 
ATOM      2  C   UNL     1       7.143   5.346  18.656  0.00  0.00    +0.000 A 
ATOM      3  C   UNL     1       8.143   6.222  19.100  0.00  0.00    +0.000 A 
ATOM      4  C   UNL     1       8.118   7.490  18.542  0.00  0.00    +0.000 A 
ATOM      5  O   UNL     1       8.928   8.536  18.853  0.00  0.00    +0.000 OA
ATOM      6  C   UNL     1       8.453   9.573  18.092  0.00  0.00    +0.000 A 
ATOM      7  N   UNL     1       9.001  10.779  18.326  0.00  0.00    +0.000 N 
ATOM      8  C   UNL     1       8.524  11.961  17.605  0.00  0.00    +0.000 C 
ATOM      9  C   UNL     1       8.614  13.205  18.523  0.00  0.00    +0.000 C 
ATOM     10  N   UNL     1       9.986  13.328  19.052  0.00  0.00    +0.000 N 
ATOM     11  C   UNL     1      10.478  12.137  19.770  0.00  0.00    +0.000 C 
ATOM     12  C   UNL     1      10.362  10.891  18.868  0.00  0.00    +0.000 C 
ATOM     13  N   UNL     1       7.452   9.243  17.297  0.00  0.00    +0.000 NA
ATOM     14  C   UNL     1       7.224   7.920  17.583  0.00  0.00    +0.000 A 
ATOM     15  C   UNL     1       6.260   7.017  17.116  0.00  0.00    +0.000 A 
ENDROOT
BRANCH  10  16
ATOM     16  C   UNL     1      10.612  14.548  19.197  0.00  0.00    +0.000 A 
ATOM     17  C   UNL     1      11.295  14.913  20.364  0.00  0.00    +0.000 A 
ATOM     18  C   UNL     1      11.844  16.191  20.521  0.00  0.00    +0.000 A 
ATOM     19  C   UNL     1      11.712  17.136  19.510  0.00  0.00    +0.000 A 
ATOM     20  C   UNL     1      11.053  16.795  18.335  0.00  0.00    +0.000 A 
ATOM     21  C   UNL     1      10.519  15.514  18.183  0.00  0.00    +0.000 A 
ENDBRANCH  10  16
BRANCH   1  22
ATOM     22  N   UNL     1       5.141   4.837  17.345  0.00  0.00    +0.000 N 
ATOM     23  H   UNL     1       4.687   5.109  16.472  0.00  0.00    +0.000 HD
BRANCH  22  29
ATOM     24 CL   UNL     1       0.565   7.859  21.399  0.00  0.00    +0.000 Cl
ATOM     25  C   UNL     1       1.577   6.855  20.435  0.00  0.00    +0.000 A 
ATOM     26  C   UNL     1       2.354   7.420  19.431  0.00  0.00    +0.000 A 
ATOM     27  C   UNL     1       3.201   6.601  18.681  0.00  0.00    +0.000 A 
ATOM     28  C   UNL     1       3.283   5.210  18.928  0.00  0.00    +0.000 A 
ATOM     29  C   UNL     1       4.151   4.326  18.234  0.00  0.00    +0.000 A 
ATOM     30  C   UNL     1       4.127   2.965  18.548  0.00  0.00    +0.000 A 
ATOM     31  C   UNL     1       3.240   2.526  19.509  0.00  0.00    +0.000 A 
ATOM     32  N   UNL     1       2.416   3.340  20.199  0.00  0.00    +0.000 NA
ATOM     33  C   UNL     1       2.446   4.648  19.925  0.00  0.00    +0.000 A 
ATOM     34  C   UNL     1       1.612   5.481  20.662  0.00  0.00    +0.000 A 
ENDBRANCH  22  29
ENDBRANCH   1  22
TORSDOF 3
ENDMDL
MODEL 4
REMARK VINA RESULT:      -9.0      0.777      1.155
REMARK  Name = 
REMARK  3 active torsions:
REMARK  status: ('A' for Active; 'I' for Inactive)
REMARK    1  A    between atoms: C_6  and  N_7
REMARK    2  A    between atoms: N_7  and  C_8
REMARK    3  A    between atoms: N_17  and  C_18
REMARK                            x       y       z     vdW  Elec       q    Type
REMARK                         _______ _______ _______ _____ _____    ______ ____
ROOT
ATOM      1  C   UNL     1       1.858   7.837  20.041  0.00  0.00    +0.000 A 
ATOM      2  C   UNL     1       1.775   8.540  18.822  0.00  0.00    +0.000 A 
ATOM      3  C   UNL     1       0.984   9.690  18.683  0.00  0.00    +0.000 A 
ATOM      4  C   UNL     1       0.333  10.111  19.832  0.00  0.00    +0.000 A 
ATOM      5  O   UNL     1      -0.430  11.225  19.977  0.00  0.00    +0.000 OA
ATOM      6  C   UNL     1      -0.774  11.232  21.304  0.00  0.00    +0.000 A 
ATOM      7  N   UNL     1      -1.420  12.328  21.742  0.00  0.00    +0.000 N 
ATOM      8  C   UNL     1      -1.782  12.458  23.156  0.00  0.00    +0.000 C 
ATOM      9  C   UNL     1      -1.703  13.945  23.581  0.00  0.00    +0.000 C 
ATOM     10  N   UNL     1      -2.522  14.762  22.667  0.00  0.00    +0.000 N 
ATOM     11  C   UNL     1      -2.172  14.628  21.240  0.00  0.00    +0.000 C 
ATOM     12  C   UNL     1      -2.221  13.145  20.820  0.00  0.00    +0.000 C 
ATOM     13  N   UNL     1      -0.332  10.189  21.981  0.00  0.00    +0.000 NA
ATOM     14  C   UNL     1       0.383   9.472  21.054  0.00  0.00    +0.000 A 
ATOM     15  C   UNL     1       1.140   8.298  21.163  0.00  0.00    +0.000 A 
ENDROOT
BRANCH  10  16
ATOM     16  C   UNL     1      -3.282  15.824  23.109  0.00  0.00    +0.000 A 
ATOM     17  C   UNL     1      -3.173  17.111  22.567  0.00  0.00    +0.000 A 
ATOM     18  C   UNL     1      -3.890  18.190  23.095  0.00  0.00    +0.000 A 
ATOM     19  C   UNL     1      -4.730  18.003  24.188  0.00  0.00    +0.000 A 
ATOM     20  C   UNL     1      -4.869  16.734  24.735  0.00  0.00    +0.000 A 
ATOM     21  C   UNL     1      -4.159  15.660  24.194  0.00  0.00    +0.000 A 
ENDBRANCH  10  16
BRANCH   1  22
ATOM     22  N   UNL     1       2.768   6.749  20.160  0.00  0.00    +0.000 N 
ATOM     23  H   UNL     1       3.736   7.067  20.103  0.00  0.00    +0.000 HD
BRANCH  22  29
ATOM     24 CL   UNL     1       5.938   4.003  14.783  0.00  0.00    +0.000 Cl
ATOM     25  C   UNL     1       5.039   4.430  16.187  0.00  0.00    +0.000 A 
ATOM     26  C   UNL     1       5.354   5.594  16.879  0.00  0.00    +0.000 A 
ATOM     27  C   UNL     1       4.594   5.952  17.994  0.00  0.00    +0.000 A 
ATOM     28  C   UNL     1       3.509   5.153  18.428  0.00  0.00    +0.000 A 
ATOM     29  C   UNL     1       2.668   5.476  19.526  0.00  0.00    +0.000 A 
ATOM     30  C   UNL     1       1.642   4.597  19.877  0.00  0.00    +0.000 A 
ATOM     31  C   UNL     1       1.498   3.430  19.156  0.00  0.00    +0.000 A 
ATOM     32  N   UNL     1       2.265   3.101  18.099  0.00  0.00    +0.000 NA
ATOM     33  C   UNL     1       3.236   3.945  17.736  0.00  0.00    +0.000 A 
ATOM     34  C   UNL     1       4.004   3.610  16.627  0.00  0.00    +0.000 A 
ENDBRANCH  22  29
ENDBRANCH   1  22
TORSDOF 3
ENDMDL
MODEL 5
REMARK VINA RESULT:      -8.9      3.877     11.721
REMARK  Name = 
REMARK  3 active torsions:
REMARK  status: ('A' for Active; 'I' for Inactive)
REMARK    1  A    between atoms: C_6  and  N_7
REMARK    2  A    between atoms: N_7  and  C_8
REMARK    3  A    between atoms: N_17  and  C_18
REMARK                            x       y       z     vdW  Elec       q    Type
REMARK                         _______ _______ _______ _____ _____    ______ ____
ROOT
ATOM      1  C   UNL     1      -1.320  11.249  22.251  0.00  0.00    +0.000 A 
ATOM      2  C   UNL     1      -0.893  10.380  23.275  0.00  0.00    +0.000 A 
ATOM      3  C   UNL     1      -0.070   9.274  23.014  0.00  0.00    +0.000 A 
ATOM      4  C   UNL     1       0.329   9.125  21.695  0.00  0.00    +0.000 A 
ATOM      5  O   UNL     1       1.176   8.185  21.199  0.00  0.00    +0.000 OA
ATOM      6  C   UNL     1       1.308   8.510  19.875  0.00  0.00    +0.000 A 
ATOM      7  N   UNL     1       2.222   7.807  19.181  0.00  0.00    +0.000 N 
ATOM      8  C   UNL     1       2.478   8.116  17.772  0.00  0.00    +0.000 C 
ATOM      9  C   UNL     1       3.972   7.868  17.446  0.00  0.00    +0.000 C 
ATOM     10  N   UNL     1       4.341   6.496  17.845  0.00  0.00    +0.000 N 
ATOM     11  C   UNL     1       4.074   6.173  19.260  0.00  0.00    +0.000 C 
ATOM     12  C   UNL     1       2.594   6.448  19.595  0.00  0.00    +0.000 C 
ATOM     13  N   UNL     1       0.574   9.540  19.496  0.00  0.00    +0.000 NA
ATOM     14  C   UNL     1      -0.047   9.946  20.652  0.00  0.00    +0.000 A 
ATOM     15  C   UNL     1      -0.907  11.018  20.922  0.00  0.00    +0.000 A 
ENDROOT
BRANCH  10  16
ATOM     16  C   UNL     1       5.190   5.713  17.091  0.00  0.00    +0.000 A 
ATOM     17  C   UNL     1       4.744   4.929  16.020  0.00  0.00    +0.000 A 
ATOM     18  C   UNL     1       5.611   4.074  15.329  0.00  0.00    +0.000 A 
ATOM     19  C   UNL     1       6.947   3.982  15.705  0.00  0.00    +0.000 A 
ATOM     20  C   UNL     1       7.419   4.762  16.754  0.00  0.00    +0.000 A 
ATOM     21  C   UNL     1       6.549   5.620  17.429  0.00  0.00    +0.000 A 
ENDBRANCH  10  16
BRANCH   1  22
ATOM     22  N   UNL     1      -2.053  12.421  22.588  0.00  0.00    +0.000 N 
ATOM     23  H   UNL     1      -1.520  13.023  23.217  0.00  0.00    +0.000 HD
BRANCH  22  29
ATOM     24 CL   UNL     1      -7.711  13.524  18.946  0.00  0.00    +0.000 Cl
ATOM     25  C   UNL     1      -6.463  13.176  20.078  0.00  0.00    +0.000 A 
ATOM     26  C   UNL     1      -5.180  12.893  19.625  0.00  0.00    +0.000 A 
ATOM     27  C   UNL     1      -4.165  12.651  20.553  0.00  0.00    +0.000 A 
ATOM     28  C   UNL     1      -4.420  12.692  21.945  0.00  0.00    +0.000 A 
ATOM     29  C   UNL     1      -3.431  12.497  22.944  0.00  0.00    +0.000 A 
ATOM     30  C   UNL     1      -3.807  12.536  24.288  0.00  0.00    +0.000 A 
ATOM     31  C   UNL     1      -5.136  12.740  24.596  0.00  0.00    +0.000 A 
ATOM     32  N   UNL     1      -6.097  12.946  23.674  0.00  0.00    +0.000 NA
ATOM     33  C   UNL     1      -5.747  12.935  22.384  0.00  0.00    +0.000 A 
ATOM     34  C   UNL     1      -6.741  13.177  21.443  0.00  0.00    +0.000 A 
ENDBRANCH  22  29
ENDBRANCH   1  22
TORSDOF 3
ENDMDL
MODEL 6
REMARK VINA RESULT:      -8.8      1.597      2.296
REMARK  Name = 
REMARK  3 active torsions:
REMARK  status: ('A' for Active; 'I' for Inactive)
REMARK    1  A    between atoms: C_6  and  N_7
REMARK    2  A    between atoms: N_7  and  C_8
REMARK    3  A    between atoms: N_17  and  C_18
REMARK                            x       y       z     vdW  Elec       q    Type
REMARK                         _______ _______ _______ _____ _____    ______ ____
ROOT
ATOM      1  C   UNL     1       3.055   6.499  18.929  0.00  0.00    +0.000 A 
ATOM      2  C   UNL     1       3.100   7.399  17.846  0.00  0.00    +0.000 A 
ATOM      3  C   UNL     1       2.322   8.566  17.820  0.00  0.00    +0.000 A 
ATOM      4  C   UNL     1       1.548   8.794  18.947  0.00  0.00    +0.000 A 
ATOM      5  O   UNL     1       0.766   9.878  19.196  0.00  0.00    +0.000 OA
ATOM      6  C   UNL     1       0.281   9.664  20.460  0.00  0.00    +0.000 A 
ATOM      7  N   UNL     1      -0.415  10.678  21.006  0.00  0.00    +0.000 N 
ATOM      8  C   UNL     1      -0.928  10.570  22.374  0.00  0.00    +0.000 C 
ATOM      9  C   UNL     1      -0.905  11.963  23.052  0.00  0.00    +0.000 C 
ATOM     10  N   UNL     1      -1.626  12.933  22.207  0.00  0.00    +0.000 N 
ATOM     11  C   UNL     1      -1.122  13.039  20.824  0.00  0.00    +0.000 C 
ATOM     12  C   UNL     1      -1.116  11.649  20.156  0.00  0.00    +0.000 C 
ATOM     13  N   UNL     1       0.653   8.515  20.994  0.00  0.00    +0.000 NA
ATOM     14  C   UNL     1       1.469   7.956  20.041  0.00  0.00    +0.000 A 
ATOM     15  C   UNL     1       2.217   6.772  20.030  0.00  0.00    +0.000 A 
ENDROOT
BRANCH  10  16
ATOM     16  C   UNL     1      -2.435  13.914  22.739  0.00  0.00    +0.000 A 
ATOM     17  C   UNL     1      -2.375  14.297  24.085  0.00  0.00    +0.000 A 
ATOM     18  C   UNL     1      -3.270  15.230  24.620  0.00  0.00    +0.000 A 
ATOM     19  C   UNL     1      -4.253  15.797  23.815  0.00  0.00    +0.000 A 
ATOM     20  C   UNL     1      -4.324  15.447  22.473  0.00  0.00    +0.000 A 
ATOM     21  C   UNL     1      -3.419  14.524  21.944  0.00  0.00    +0.000 A 
ENDBRANCH  10  16
BRANCH   1  22
ATOM     22  N   UNL     1       3.953   5.395  18.959  0.00  0.00    +0.000 N 
ATOM     23  H   UNL     1       3.926   4.919  19.861  0.00  0.00    +0.000 HD
BRANCH  22  29
ATOM     24 CL   UNL     1       6.619   3.725  12.909  0.00  0.00    +0.000 Cl
ATOM     25  C   UNL     1       6.208   4.246  14.497  0.00  0.00    +0.000 A 
ATOM     26  C   UNL     1       4.877   4.465  14.828  0.00  0.00    +0.000 A 
ATOM     27  C   UNL     1       4.551   4.850  16.130  0.00  0.00    +0.000 A 
ATOM     28  C   UNL     1       5.552   5.018  17.117  0.00  0.00    +0.000 A 
ATOM     29  C   UNL     1       5.290   5.367  18.468  0.00  0.00    +0.000 A 
ATOM     30  C   UNL     1       6.364   5.529  19.347  0.00  0.00    +0.000 A 
ATOM     31  C   UNL     1       7.644   5.366  18.861  0.00  0.00    +0.000 A 
ATOM     32  N   UNL     1       7.927   5.018  17.590  0.00  0.00    +0.000 NA
ATOM     33  C   UNL     1       6.908   4.836  16.744  0.00  0.00    +0.000 A 
ATOM     34  C   UNL     1       7.210   4.450  15.443  0.00  0.00    +0.000 A 
ENDBRANCH  22  29
ENDBRANCH   1  22
TORSDOF 3
ENDMDL
MODEL 7
REMARK VINA RESULT:      -8.5      1.930      2.916
REMARK  Name = 
REMARK  3 active torsions:
REMARK  status: ('A' for Active; 'I' for Inactive)
REMARK    1  A    between atoms: C_6  and  N_7
REMARK    2  A    between atoms: N_7  and  C_8
REMARK    3  A    between atoms: N_17  and  C_18
REMARK                            x       y       z     vdW  Elec       q    Type
REMARK                         _______ _______ _______ _____ _____    ______ ____
ROOT
ATOM      1  C   UNL     1       2.113   8.302  18.488  0.00  0.00    +0.000 A 
ATOM      2  C   UNL     1       2.076   7.673  19.748  0.00  0.00    +0.000 A 
ATOM      3  C   UNL     1       1.394   8.234  20.838  0.00  0.00    +0.000 A 
ATOM      4  C   UNL     1       0.724   9.419  20.576  0.00  0.00    +0.000 A 
ATOM      5  O   UNL     1      -0.061  10.121  21.436  0.00  0.00    +0.000 OA
ATOM      6  C   UNL     1      -0.548  11.157  20.683  0.00  0.00    +0.000 A 
ATOM      7  N   UNL     1      -1.481  11.929  21.272  0.00  0.00    +0.000 N 
ATOM      8  C   UNL     1      -2.105  13.029  20.532  0.00  0.00    +0.000 C 
ATOM      9  C   UNL     1      -3.577  13.193  20.983  0.00  0.00    +0.000 C 
ATOM     10  N   UNL     1      -3.628  13.341  22.450  0.00  0.00    +0.000 N 
ATOM     11  C   UNL     1      -2.991  12.243  23.203  0.00  0.00    +0.000 C 
ATOM     12  C   UNL     1      -1.533  12.057  22.734  0.00  0.00    +0.000 C 
ATOM     13  N   UNL     1      -0.090  11.187  19.446  0.00  0.00    +0.000 NA
ATOM     14  C   UNL     1       0.715  10.078  19.364  0.00  0.00    +0.000 A 
ATOM     15  C   UNL     1       1.440   9.527  18.299  0.00  0.00    +0.000 A 
ENDROOT
BRANCH  10  16
ATOM     16  C   UNL     1      -4.500  14.209  23.073  0.00  0.00    +0.000 A 
ATOM     17  C   UNL     1      -5.883  13.991  23.115  0.00  0.00    +0.000 A 
ATOM     18  C   UNL     1      -6.754  14.932  23.674  0.00  0.00    +0.000 A 
ATOM     19  C   UNL     1      -6.256  16.121  24.198  0.00  0.00    +0.000 A 
ATOM     20  C   UNL     1      -4.887  16.354  24.184  0.00  0.00    +0.000 A 
ATOM     21  C   UNL     1      -4.024  15.404  23.635  0.00  0.00    +0.000 A 
ENDBRANCH  10  16
BRANCH   1  22
ATOM     22  N   UNL     1       2.716   7.630  17.388  0.00  0.00    +0.000 N 
ATOM     23  H   UNL     1       2.014   7.193  16.791  0.00  0.00    +0.000 HD
BRANCH  22  29
ATOM     24 CL   UNL     1       3.568   0.981  18.637  0.00  0.00    +0.000 Cl
ATOM     25  C   UNL     1       3.627   2.654  18.237  0.00  0.00    +0.000 A 
ATOM     26  C   UNL     1       2.447   3.348  17.999  0.00  0.00    +0.000 A 
ATOM     27  C   UNL     1       2.504   4.714  17.714  0.00  0.00    +0.000 A 
ATOM     28  C   UNL     1       3.740   5.401  17.666  0.00  0.00    +0.000 A 
ATOM     29  C   UNL     1       3.870   6.794  17.423  0.00  0.00    +0.000 A 
ATOM     30  C   UNL     1       5.146   7.359  17.375  0.00  0.00    +0.000 A 
ATOM     31  C   UNL     1       6.239   6.534  17.541  0.00  0.00    +0.000 A 
ATOM     32  N   UNL     1       6.151   5.212  17.791  0.00  0.00    +0.000 NA
ATOM     33  C   UNL     1       4.935   4.663  17.864  0.00  0.00    +0.000 A 
ATOM     34  C   UNL     1       4.855   3.305  18.149  0.00  0.00    +0.000 A 
ENDBRANCH  22  29
ENDBRANCH   1  22
TORSDOF 3
ENDMDL
MODEL 8
REMARK VINA RESULT:      -8.4      4.008     12.179
REMARK  Name = 
REMARK  3 active torsions:
REMARK  status: ('A' for Active; 'I' for Inactive)
REMARK    1  A    between atoms: C_6  and  N_7
REMARK    2  A    between atoms: N_7  and  C_8
REMARK    3  A    between atoms: N_17  and  C_18
REMARK                            x       y       z     vdW  Elec       q    Type
REMARK                         _______ _______ _______ _____ _____    ______ ____
ROOT
ATOM      1  C   UNL     1      -0.938  11.431  22.464  0.00  0.00    +0.000 A 
ATOM      2  C   UNL     1      -0.712  10.390  23.387  0.00  0.00    +0.000 A 
ATOM      3  C   UNL     1      -0.068   9.200  23.020  0.00  0.00    +0.000 A 
ATOM      4  C   UNL     1       0.370   9.139  21.706  0.00  0.00    +0.000 A 
ATOM      5  O   UNL     1       1.077   8.133  21.126  0.00  0.00    +0.000 OA
ATOM      6  C   UNL     1       1.329   8.582  19.856  0.00  0.00    +0.000 A 
ATOM      7  N   UNL     1       2.151   7.820  19.111  0.00  0.00    +0.000 N 
ATOM      8  C   UNL     1       2.528   8.242  17.760  0.00  0.00    +0.000 C 
ATOM      9  C   UNL     1       3.976   7.786  17.455  0.00  0.00    +0.000 C 
ATOM     10  N   UNL     1       4.095   6.335  17.694  0.00  0.00    +0.000 N 
ATOM     11  C   UNL     1       3.706   5.901  19.050  0.00  0.00    +0.000 C 
ATOM     12  C   UNL     1       2.275   6.379  19.368  0.00  0.00    +0.000 C 
ATOM     13  N   UNL     1       0.793   9.758  19.584  0.00  0.00    +0.000 NA
ATOM     14  C   UNL     1       0.187  10.126  20.759  0.00  0.00    +0.000 A 
ATOM     15  C   UNL     1      -0.499  11.289  21.131  0.00  0.00    +0.000 A 
ENDROOT
BRANCH  10  16
ATOM     16  C   UNL     1       4.843   5.513  16.878  0.00  0.00    +0.000 A 
ATOM     17  C   UNL     1       5.930   5.979  16.128  0.00  0.00    +0.000 A 
ATOM     18  C   UNL     1       6.616   5.143  15.239  0.00  0.00    +0.000 A 
ATOM     19  C   UNL     1       6.219   3.820  15.076  0.00  0.00    +0.000 A 
ATOM     20  C   UNL     1       5.154   3.328  15.821  0.00  0.00    +0.000 A 
ATOM     21  C   UNL     1       4.483   4.166  16.715  0.00  0.00    +0.000 A 
ENDBRANCH  10  16
BRANCH   1  22
ATOM     22  N   UNL     1      -1.486  12.662  22.919  0.00  0.00    +0.000 N 
ATOM     23  H   UNL     1      -1.241  12.840  23.893  0.00  0.00    +0.000 HD
BRANCH  22  29
ATOM     24 CL   UNL     1      -5.044  17.827  25.598  0.00  0.00    +0.000 Cl
ATOM     25  C   UNL     1      -4.358  16.509  24.729  0.00  0.00    +0.000 A 
ATOM     26  C   UNL     1      -3.001  16.236  24.849  0.00  0.00    +0.000 A 
ATOM     27  C   UNL     1      -2.462  15.140  24.170  0.00  0.00    +0.000 A 
ATOM     28  C   UNL     1      -3.274  14.304  23.367  0.00  0.00    +0.000 A 
ATOM     29  C   UNL     1      -2.804  13.152  22.683  0.00  0.00    +0.000 A 
ATOM     30  C   UNL     1      -3.695  12.418  21.898  0.00  0.00    +0.000 A 
ATOM     31  C   UNL     1      -4.999  12.855  21.797  0.00  0.00    +0.000 A 
ATOM     32  N   UNL     1      -5.483  13.932  22.446  0.00  0.00    +0.000 NA
ATOM     33  C   UNL     1      -4.647  14.631  23.220  0.00  0.00    +0.000 A 
ATOM     34  C   UNL     1      -5.163  15.724  23.907  0.00  0.00    +0.000 A 
ENDBRANCH  22  29
ENDBRANCH   1  22
TORSDOF 3
ENDMDL
MODEL 9
REMARK VINA RESULT:      -8.4      2.080      3.115
REMARK  Name = 
REMARK  3 active torsions:
REMARK  status: ('A' for Active; 'I' for Inactive)
REMARK    1  A    between atoms: C_6  and  N_7
REMARK    2  A    between atoms: N_7  and  C_8
REMARK    3  A    between atoms: N_17  and  C_18
REMARK                            x       y       z     vdW  Elec       q    Type
REMARK                         _______ _______ _______ _____ _____    ______ ____
ROOT
ATOM      1  C   UNL     1       2.195   8.419  18.446  0.00  0.00    +0.000 A 
ATOM      2  C   UNL     1       2.113   7.812  19.716  0.00  0.00    +0.000 A 
ATOM      3  C   UNL     1       1.371   8.378  20.762  0.00  0.00    +0.000 A 
ATOM      4  C   UNL     1       0.689   9.543  20.448  0.00  0.00    +0.000 A 
ATOM      5  O   UNL     1      -0.149  10.243  21.257  0.00  0.00    +0.000 OA
ATOM      6  C   UNL     1      -0.623  11.255  20.464  0.00  0.00    +0.000 A 
ATOM      7  N   UNL     1      -1.598  12.016  20.994  0.00  0.00    +0.000 N 
ATOM      8  C   UNL     1      -2.210  13.088  20.206  0.00  0.00    +0.000 C 
ATOM      9  C   UNL     1      -3.705  13.228  20.587  0.00  0.00    +0.000 C 
ATOM     10  N   UNL     1      -3.826  13.402  22.047  0.00  0.00    +0.000 N 
ATOM     11  C   UNL     1      -3.201  12.332  22.848  0.00  0.00    +0.000 C 
ATOM     12  C   UNL     1      -1.720  12.170  22.450  0.00  0.00    +0.000 C 
ATOM     13  N   UNL     1      -0.110  11.272  19.248  0.00  0.00    +0.000 NA
ATOM     14  C   UNL     1       0.722  10.179  19.224  0.00  0.00    +0.000 A 
ATOM     15  C   UNL     1       1.506   9.625  18.204  0.00  0.00    +0.000 A 
ENDROOT
BRANCH  10  16
ATOM     16  C   UNL     1      -4.743  14.262  22.613  0.00  0.00    +0.000 A 
ATOM     17  C   UNL     1      -4.494  15.630  22.781  0.00  0.00    +0.000 A 
ATOM     18  C   UNL     1      -5.406  16.463  23.440  0.00  0.00    +0.000 A 
ATOM     19  C   UNL     1      -6.587  15.939  23.953  0.00  0.00    +0.000 A 
ATOM     20  C   UNL     1      -6.866  14.588  23.786  0.00  0.00    +0.000 A 
ATOM     21  C   UNL     1      -5.956  13.766  23.117  0.00  0.00    +0.000 A 
ENDBRANCH  10  16
BRANCH   1  22
ATOM     22  N   UNL     1       2.862   7.741  17.388  0.00  0.00    +0.000 N 
ATOM     23  H   UNL     1       2.230   7.559  16.608  0.00  0.00    +0.000 HD
BRANCH  22  29
ATOM     24 CL   UNL     1       1.963   1.168  18.971  0.00  0.00    +0.000 Cl
ATOM     25  C   UNL     1       2.457   2.748  18.498  0.00  0.00    +0.000 A 
ATOM     26  C   UNL     1       1.498   3.703  18.181  0.00  0.00    +0.000 A 
ATOM     27  C   UNL     1       1.907   4.994  17.837  0.00  0.00    +0.000 A 
ATOM     28  C   UNL     1       3.279   5.344  17.808  0.00  0.00    +0.000 A 
ATOM     29  C   UNL     1       3.764   6.644  17.508  0.00  0.00    +0.000 A 
ATOM     30  C   UNL     1       5.143   6.865  17.486  0.00  0.00    +0.000 A 
ATOM     31  C   UNL     1       5.985   5.802  17.734  0.00  0.00    +0.000 A 
ATOM     32  N   UNL     1       5.558   4.561  18.039  0.00  0.00    +0.000 NA
ATOM     33  C   UNL     1       4.241   4.340  18.088  0.00  0.00    +0.000 A 
ATOM     34  C   UNL     1       3.811   3.063  18.431  0.00  0.00    +0.000 A 
ENDBRANCH  22  29
ENDBRANCH   1  22
TORSDOF 3
ENDMDL
