MODEL 1
REMARK VINA RESULT:      -8.4      0.000      0.000
REMARK  Name = 
REMARK  4 active torsions:
REMARK  status: ('A' for Active; 'I' for Inactive)
REMARK    1  A    between atoms: C_1  and  C_2
REMARK    2  A    between atoms: C_4  and  C_5
REMARK    3  A    between atoms: C_10  and  C_11
REMARK    4  A    between atoms: C_20  and  O_21
REMARK                            x       y       z     vdW  Elec       q    Type
REMARK                         _______ _______ _______ _____ _____    ______ ____
ROOT
ATOM      1  C   UNL     1       2.632   5.716  18.381  0.00  0.00    +0.000 C 
ATOM      2  O   UNL     1       1.874   4.801  18.699  0.00  0.00    +0.000 OA
ATOM      3  N   UNL     1       3.827   5.496  17.687  0.00  0.00    +0.000 N 
ATOM      4  C   UNL     1       4.022   4.197  17.044  0.00  0.00    +0.000 C 
ATOM      5  C   UNL     1       5.388   3.602  17.373  0.00  0.00    +0.000 C 
ATOM      6  C   UNL     1       6.534   4.579  17.105  0.00  0.00    +0.000 C 
ATOM      7  C   UNL     1       6.266   5.936  17.757  0.00  0.00    +0.000 C 
ATOM      8  C   UNL     1       4.877   6.486  17.451  0.00  0.00    +0.000 C 
ENDROOT
BRANCH   1  12
ATOM      9  C   UNL     1       0.961   8.898  21.846  0.00  0.00    +0.000 C 
ATOM     10  C   UNL     1       1.448   8.600  20.461  0.00  0.00    +0.000 A 
ATOM     11  C   UNL     1       1.858   7.324  20.100  0.00  0.00    +0.000 A 
ATOM     12  C   UNL     1       2.222   7.092  18.771  0.00  0.00    +0.000 A 
ATOM     13  C   UNL     1       2.105   8.121  17.841  0.00  0.00    +0.000 A 
ATOM     14  C   UNL     1       1.751   9.369  18.308  0.00  0.00    +0.000 A 
ATOM     15  N   UNL     1       1.428   9.630  19.583  0.00  0.00    +0.000 NA
BRANCH  14  16
ATOM     16  O   UNL     1       1.717  10.447  17.476  0.00  0.00    +0.000 OA
ATOM     17  H   UNL     1       2.350  11.104  17.797  0.00  0.00    +0.000 HD
ENDBRANCH  14  16
ENDBRANCH   1  12
BRANCH   6  18
ATOM     18  C   UNL     1       6.810   4.709  15.634  0.00  0.00    +0.000 A 
ATOM     19  N   UNL     1       7.504   5.624  15.037  0.00  0.00    +0.000 NA
ATOM     20  N   UNL     1       7.410   5.253  13.737  0.00  0.00    +0.000 N 
ATOM     21  C   UNL     1       6.658   4.123  13.589  0.00  0.00    +0.000 A 
ATOM     22  O   UNL     1       6.384   3.535  12.561  0.00  0.00    +0.000 OA
ATOM     23  O   UNL     1       6.256   3.766  14.839  0.00  0.00    +0.000 OA
ATOM     24  H   UNL     1       7.857   5.760  12.984  0.00  0.00    +0.000 HD
ENDBRANCH   6  18
TORSDOF 3
ENDMDL
MODEL 2
REMARK VINA RESULT:      -8.1      1.104      1.104
REMARK  Name = 
REMARK  4 active torsions:
REMARK  status: ('A' for Active; 'I' for Inactive)
REMARK    1  A    between atoms: C_1  and  C_2
REMARK    2  A    between atoms: C_4  and  C_5
REMARK    3  A    between atoms: C_10  and  C_11
REMARK    4  A    between atoms: C_20  and  O_21
REMARK                            x       y       z     vdW  Elec       q    Type
REMARK                         _______ _______ _______ _____ _____    ______ ____
ROOT
ATOM      1  C   UNL     1       2.799   5.836  19.124  0.00  0.00    +0.000 C 
ATOM      2  O   UNL     1       2.224   4.970  19.783  0.00  0.00    +0.000 OA
ATOM      3  N   UNL     1       3.906   5.554  18.316  0.00  0.00    +0.000 N 
ATOM      4  C   UNL     1       4.187   4.155  17.993  0.00  0.00    +0.000 C 
ATOM      5  C   UNL     1       5.654   3.804  18.225  0.00  0.00    +0.000 C 
ATOM      6  C   UNL     1       6.607   4.780  17.533  0.00  0.00    +0.000 C 
ATOM      7  C   UNL     1       6.248   6.229  17.862  0.00  0.00    +0.000 C 
ATOM      8  C   UNL     1       4.768   6.541  17.667  0.00  0.00    +0.000 C 
ENDROOT
BRANCH   1  12
ATOM      9  C   UNL     1       0.442   9.370  21.745  0.00  0.00    +0.000 C 
ATOM     10  C   UNL     1       1.155   8.903  20.513  0.00  0.00    +0.000 A 
ATOM     11  C   UNL     1       1.682   7.622  20.427  0.00  0.00    +0.000 A 
ATOM     12  C   UNL     1       2.262   7.219  19.222  0.00  0.00    +0.000 A 
ATOM     13  C   UNL     1       2.239   8.083  18.130  0.00  0.00    +0.000 A 
ATOM     14  C   UNL     1       1.753   9.357  18.333  0.00  0.00    +0.000 A 
ATOM     15  N   UNL     1       1.220   9.783  19.487  0.00  0.00    +0.000 NA
BRANCH  14  16
ATOM     16  O   UNL     1       1.794  10.291  17.341  0.00  0.00    +0.000 OA
ATOM     17  H   UNL     1       2.687  10.661  17.303  0.00  0.00    +0.000 HD
ENDBRANCH  14  16
ENDBRANCH   1  12
BRANCH   6  18
ATOM     18  C   UNL     1       6.658   4.538  16.051  0.00  0.00    +0.000 A 
ATOM     19  N   UNL     1       6.095   3.581  15.385  0.00  0.00    +0.000 NA
ATOM     20  N   UNL     1       6.478   3.851  14.115  0.00  0.00    +0.000 N 
ATOM     21  C   UNL     1       7.267   4.965  14.053  0.00  0.00    +0.000 A 
ATOM     22  O   UNL     1       7.771   5.471  13.069  0.00  0.00    +0.000 OA
ATOM     23  O   UNL     1       7.392   5.415  15.330  0.00  0.00    +0.000 OA
ATOM     24  H   UNL     1       6.198   3.289  13.322  0.00  0.00    +0.000 HD
ENDBRANCH   6  18
TORSDOF 3
ENDMDL
MODEL 3
REMARK VINA RESULT:      -7.6      1.160      1.776
REMARK  Name = 
REMARK  4 active torsions:
REMARK  status: ('A' for Active; 'I' for Inactive)
REMARK    1  A    between atoms: C_1  and  C_2
REMARK    2  A    between atoms: C_4  and  C_5
REMARK    3  A    between atoms: C_10  and  C_11
REMARK    4  A    between atoms: C_20  and  O_21
REMARK                            x       y       z     vdW  Elec       q    Type
REMARK                         _______ _______ _______ _____ _____    ______ ____
ROOT
ATOM      1  C   UNL     1       2.445   5.538  18.517  0.00  0.00    +0.000 C 
ATOM      2  O   UNL     1       1.630   4.627  18.665  0.00  0.00    +0.000 OA
ATOM      3  N   UNL     1       3.676   5.350  17.880  0.00  0.00    +0.000 N 
ATOM      4  C   UNL     1       3.864   4.134  17.088  0.00  0.00    +0.000 C 
ATOM      5  C   UNL     1       5.179   3.438  17.424  0.00  0.00    +0.000 C 
ATOM      6  C   UNL     1       6.378   4.385  17.359  0.00  0.00    +0.000 C 
ATOM      7  C   UNL     1       6.119   5.659  18.163  0.00  0.00    +0.000 C 
ATOM      8  C   UNL     1       4.778   6.310  17.841  0.00  0.00    +0.000 C 
ENDROOT
BRANCH   1  12
ATOM      9  C   UNL     1       1.800  10.440  17.831  0.00  0.00    +0.000 C 
ATOM     10  C   UNL     1       1.735   9.214  18.689  0.00  0.00    +0.000 A 
ATOM     11  C   UNL     1       2.063   7.963  18.184  0.00  0.00    +0.000 A 
ATOM     12  C   UNL     1       2.063   6.871  19.055  0.00  0.00    +0.000 A 
ATOM     13  C   UNL     1       1.798   7.076  20.407  0.00  0.00    +0.000 A 
ATOM     14  C   UNL     1       1.420   8.341  20.800  0.00  0.00    +0.000 A 
ATOM     15  N   UNL     1       1.378   9.402  19.980  0.00  0.00    +0.000 NA
BRANCH  14  16
ATOM     16  O   UNL     1       1.044   8.595  22.085  0.00  0.00    +0.000 OA
ATOM     17  H   UNL     1       0.943   9.551  22.194  0.00  0.00    +0.000 HD
ENDBRANCH  14  16
ENDBRANCH   1  12
BRANCH   6  18
ATOM     18  C   UNL     1       6.762   4.686  15.938  0.00  0.00    +0.000 A 
ATOM     19  N   UNL     1       7.484   5.669  15.504  0.00  0.00    +0.000 NA
ATOM     20  N   UNL     1       7.494   5.450  14.168  0.00  0.00    +0.000 N 
ATOM     21  C   UNL     1       6.773   4.339  13.834  0.00  0.00    +0.000 A 
ATOM     22  O   UNL     1       6.587   3.872  12.727  0.00  0.00    +0.000 OA
ATOM     23  O   UNL     1       6.284   3.837  15.000  0.00  0.00    +0.000 OA
ATOM     24  H   UNL     1       7.988   6.044  13.514  0.00  0.00    +0.000 HD
ENDBRANCH   6  18
TORSDOF 3
ENDMDL
MODEL 4
REMARK VINA RESULT:      -7.3      1.955      7.226
REMARK  Name = 
REMARK  4 active torsions:
REMARK  status: ('A' for Active; 'I' for Inactive)
REMARK    1  A    between atoms: C_1  and  C_2
REMARK    2  A    between atoms: C_4  and  C_5
REMARK    3  A    between atoms: C_10  and  C_11
REMARK    4  A    between atoms: C_20  and  O_21
REMARK                            x       y       z     vdW  Elec       q    Type
REMARK                         _______ _______ _______ _____ _____    ______ ____
ROOT
ATOM      1  C   UNL     1       6.974   4.485  16.419  0.00  0.00    +0.000 C 
ATOM      2  O   UNL     1       8.020   4.163  16.982  0.00  0.00    +0.000 OA
ATOM      3  N   UNL     1       5.800   4.776  17.123  0.00  0.00    +0.000 N 
ATOM      4  C   UNL     1       5.901   5.018  18.562  0.00  0.00    +0.000 C 
ATOM      5  C   UNL     1       4.863   4.217  19.344  0.00  0.00    +0.000 C 
ATOM      6  C   UNL     1       3.445   4.408  18.803  0.00  0.00    +0.000 C 
ATOM      7  C   UNL     1       3.398   4.190  17.291  0.00  0.00    +0.000 C 
ATOM      8  C   UNL     1       4.474   4.965  16.538  0.00  0.00    +0.000 C 
ENDROOT
BRANCH   1  12
ATOM      9  C   UNL     1       5.538   2.691  11.988  0.00  0.00    +0.000 C 
ATOM     10  C   UNL     1       6.278   3.689  12.823  0.00  0.00    +0.000 A 
ATOM     11  C   UNL     1       6.228   3.646  14.210  0.00  0.00    +0.000 A 
ATOM     12  C   UNL     1       7.007   4.554  14.933  0.00  0.00    +0.000 A 
ATOM     13  C   UNL     1       7.851   5.425  14.251  0.00  0.00    +0.000 A 
ATOM     14  C   UNL     1       7.782   5.437  12.874  0.00  0.00    +0.000 A 
ATOM     15  N   UNL     1       7.020   4.601  12.153  0.00  0.00    +0.000 NA
BRANCH  14  16
ATOM     16  O   UNL     1       8.500   6.333  12.142  0.00  0.00    +0.000 OA
ATOM     17  H   UNL     1       8.824   7.026  12.734  0.00  0.00    +0.000 HD
ENDBRANCH  14  16
ENDBRANCH   1  12
BRANCH   6  18
ATOM     18  C   UNL     1       2.885   5.746  19.195  0.00  0.00    +0.000 A 
ATOM     19  N   UNL     1       2.490   6.126  20.367  0.00  0.00    +0.000 NA
ATOM     20  N   UNL     1       2.084   7.397  20.135  0.00  0.00    +0.000 N 
ATOM     21  C   UNL     1       2.244   7.746  18.824  0.00  0.00    +0.000 A 
ATOM     22  O   UNL     1       1.979   8.807  18.293  0.00  0.00    +0.000 OA
ATOM     23  O   UNL     1       2.767   6.655  18.201  0.00  0.00    +0.000 OA
ATOM     24  H   UNL     1       1.717   8.001  20.859  0.00  0.00    +0.000 HD
ENDBRANCH   6  18
TORSDOF 3
ENDMDL
MODEL 5
REMARK VINA RESULT:      -7.2      2.128      7.386
REMARK  Name = 
REMARK  4 active torsions:
REMARK  status: ('A' for Active; 'I' for Inactive)
REMARK    1  A    between atoms: C_1  and  C_2
REMARK    2  A    between atoms: C_4  and  C_5
REMARK    3  A    between atoms: C_10  and  C_11
REMARK    4  A    between atoms: C_20  and  O_21
REMARK                            x       y       z     vdW  Elec       q    Type
REMARK                         _______ _______ _______ _____ _____    ______ ____
ROOT
ATOM      1  C   UNL     1       6.919   4.560  16.438  0.00  0.00    +0.000 C 
ATOM      2  O   UNL     1       7.947   4.237  17.034  0.00  0.00    +0.000 OA
ATOM      3  N   UNL     1       5.734   4.885  17.107  0.00  0.00    +0.000 N 
ATOM      4  C   UNL     1       5.805   5.162  18.542  0.00  0.00    +0.000 C 
ATOM      5  C   UNL     1       4.737   4.397  19.319  0.00  0.00    +0.000 C 
ATOM      6  C   UNL     1       3.336   4.595  18.741  0.00  0.00    +0.000 C 
ATOM      7  C   UNL     1       3.319   4.340  17.234  0.00  0.00    +0.000 C 
ATOM      8  C   UNL     1       4.424   5.079  16.487  0.00  0.00    +0.000 C 
ENDROOT
BRANCH   1  12
ATOM      9  C   UNL     1       5.605   2.639  12.022  0.00  0.00    +0.000 C 
ATOM     10  C   UNL     1       6.317   3.665  12.850  0.00  0.00    +0.000 A 
ATOM     11  C   UNL     1       6.234   3.658  14.235  0.00  0.00    +0.000 A 
ATOM     12  C   UNL     1       6.987   4.590  14.953  0.00  0.00    +0.000 A 
ATOM     13  C   UNL     1       7.841   5.452  14.269  0.00  0.00    +0.000 A 
ATOM     14  C   UNL     1       7.804   5.427  12.891  0.00  0.00    +0.000 A 
ATOM     15  N   UNL     1       7.067   4.566  12.174  0.00  0.00    +0.000 NA
BRANCH  14  16
ATOM     16  O   UNL     1       8.533   6.311  12.153  0.00  0.00    +0.000 OA
ATOM     17  H   UNL     1       9.293   5.846  11.777  0.00  0.00    +0.000 HD
ENDBRANCH  14  16
ENDBRANCH   1  12
BRANCH   6  18
ATOM     18  C   UNL     1       2.787   5.950  19.086  0.00  0.00    +0.000 A 
ATOM     19  N   UNL     1       2.781   7.013  18.347  0.00  0.00    +0.000 NA
ATOM     20  N   UNL     1       2.180   7.920  19.155  0.00  0.00    +0.000 N 
ATOM     21  C   UNL     1       1.844   7.376  20.361  0.00  0.00    +0.000 A 
ATOM     22  O   UNL     1       1.296   7.919  21.301  0.00  0.00    +0.000 OA
ATOM     23  O   UNL     1       2.250   6.078  20.320  0.00  0.00    +0.000 OA
ATOM     24  H   UNL     1       2.005   8.877  18.876  0.00  0.00    +0.000 HD
ENDBRANCH   6  18
TORSDOF 3
ENDMDL
MODEL 6
REMARK VINA RESULT:      -7.1      2.741      7.580
REMARK  Name = 
REMARK  4 active torsions:
REMARK  status: ('A' for Active; 'I' for Inactive)
REMARK    1  A    between atoms: C_1  and  C_2
REMARK    2  A    between atoms: C_4  and  C_5
REMARK    3  A    between atoms: C_10  and  C_11
REMARK    4  A    between atoms: C_20  and  O_21
REMARK                            x       y       z     vdW  Elec       q    Type
REMARK                         _______ _______ _______ _____ _____    ______ ____
ROOT
ATOM      1  C   UNL     1       1.975   6.527  20.091  0.00  0.00    +0.000 C 
ATOM      2  O   UNL     1       1.536   6.006  21.116  0.00  0.00    +0.000 OA
ATOM      3  N   UNL     1       1.759   7.874  19.780  0.00  0.00    +0.000 N 
ATOM      4  C   UNL     1       1.282   8.760  20.842  0.00  0.00    +0.000 C 
ATOM      5  C   UNL     1       0.096   9.604  20.385  0.00  0.00    +0.000 C 
ATOM      6  C   UNL     1       0.370  10.339  19.072  0.00  0.00    +0.000 C 
ATOM      7  C   UNL     1       0.908   9.383  18.007  0.00  0.00    +0.000 C 
ATOM      8  C   UNL     1       2.062   8.519  18.504  0.00  0.00    +0.000 C 
ENDROOT
BRANCH   1  12
ATOM      9  C   UNL     1       6.375   5.061  18.244  0.00  0.00    +0.000 C 
ATOM     10  C   UNL     1       4.884   4.950  18.332  0.00  0.00    +0.000 A 
ATOM     11  C   UNL     1       4.152   5.744  19.203  0.00  0.00    +0.000 A 
ATOM     12  C   UNL     1       2.758   5.652  19.178  0.00  0.00    +0.000 A 
ATOM     13  C   UNL     1       2.145   4.820  18.245  0.00  0.00    +0.000 A 
ATOM     14  C   UNL     1       2.957   4.022  17.468  0.00  0.00    +0.000 A 
ATOM     15  N   UNL     1       4.298   4.065  17.493  0.00  0.00    +0.000 NA
BRANCH  14  16
ATOM     16  O   UNL     1       2.429   3.108  16.607  0.00  0.00    +0.000 OA
ATOM     17  H   UNL     1       2.929   3.139  15.779  0.00  0.00    +0.000 HD
ENDBRANCH  14  16
ENDBRANCH   1  12
BRANCH   6  18
ATOM     18  C   UNL     1       1.280  11.515  19.282  0.00  0.00    +0.000 A 
ATOM     19  N   UNL     1       2.049  12.086  18.412  0.00  0.00    +0.000 NA
ATOM     20  N   UNL     1       2.632  13.066  19.143  0.00  0.00    +0.000 N 
ATOM     21  C   UNL     1       2.197  13.055  20.438  0.00  0.00    +0.000 A 
ATOM     22  O   UNL     1       2.523  13.798  21.344  0.00  0.00    +0.000 OA
ATOM     23  O   UNL     1       1.310  12.028  20.533  0.00  0.00    +0.000 OA
ATOM     24  H   UNL     1       3.299  13.722  18.756  0.00  0.00    +0.000 HD
ENDBRANCH   6  18
TORSDOF 3
ENDMDL
MODEL 7
REMARK VINA RESULT:      -7.0      2.655      3.580
REMARK  Name = 
REMARK  4 active torsions:
REMARK  status: ('A' for Active; 'I' for Inactive)
REMARK    1  A    between atoms: C_1  and  C_2
REMARK    2  A    between atoms: C_4  and  C_5
REMARK    3  A    between atoms: C_10  and  C_11
REMARK    4  A    between atoms: C_20  and  O_21
REMARK                            x       y       z     vdW  Elec       q    Type
REMARK                         _______ _______ _______ _____ _____    ______ ____
ROOT
ATOM      1  C   UNL     1       5.249   4.399  18.617  0.00  0.00    +0.000 C 
ATOM      2  O   UNL     1       6.156   4.217  19.427  0.00  0.00    +0.000 OA
ATOM      3  N   UNL     1       5.478   4.487  17.239  0.00  0.00    +0.000 N 
ATOM      4  C   UNL     1       6.768   4.031  16.724  0.00  0.00    +0.000 C 
ATOM      5  C   UNL     1       7.393   5.052  15.777  0.00  0.00    +0.000 C 
ATOM      6  C   UNL     1       6.431   5.494  14.673  0.00  0.00    +0.000 C 
ATOM      7  C   UNL     1       5.082   5.918  15.254  0.00  0.00    +0.000 C 
ATOM      8  C   UNL     1       4.502   4.901  16.232  0.00  0.00    +0.000 C 
ENDROOT
BRANCH   1  12
ATOM      9  C   UNL     1       0.672   2.516  19.270  0.00  0.00    +0.000 C 
ATOM     10  C   UNL     1       1.696   3.587  19.490  0.00  0.00    +0.000 A 
ATOM     11  C   UNL     1       2.989   3.459  19.002  0.00  0.00    +0.000 A 
ATOM     12  C   UNL     1       3.873   4.528  19.168  0.00  0.00    +0.000 A 
ATOM     13  C   UNL     1       3.419   5.705  19.758  0.00  0.00    +0.000 A 
ATOM     14  C   UNL     1       2.139   5.712  20.269  0.00  0.00    +0.000 A 
ATOM     15  N   UNL     1       1.279   4.690  20.154  0.00  0.00    +0.000 NA
BRANCH  14  16
ATOM     16  O   UNL     1       1.661   6.790  20.952  0.00  0.00    +0.000 OA
ATOM     17  H   UNL     1       2.409   7.340  21.222  0.00  0.00    +0.000 HD
ENDBRANCH  14  16
ENDBRANCH   1  12
BRANCH   6  18
ATOM     18  C   UNL     1       6.280   4.432  13.621  0.00  0.00    +0.000 A 
ATOM     19  N   UNL     1       7.198   3.653  13.146  0.00  0.00    +0.000 NA
ATOM     20  N   UNL     1       6.509   2.919  12.239  0.00  0.00    +0.000 N 
ATOM     21  C   UNL     1       5.193   3.281  12.193  0.00  0.00    +0.000 A 
ATOM     22  O   UNL     1       4.313   2.820  11.491  0.00  0.00    +0.000 OA
ATOM     23  O   UNL     1       5.041   4.284  13.100  0.00  0.00    +0.000 OA
ATOM     24  H   UNL     1       6.934   2.190  11.680  0.00  0.00    +0.000 HD
ENDBRANCH   6  18
TORSDOF 3
ENDMDL
MODEL 8
REMARK VINA RESULT:      -7.0      3.285      4.414
REMARK  Name = 
REMARK  4 active torsions:
REMARK  status: ('A' for Active; 'I' for Inactive)
REMARK    1  A    between atoms: C_1  and  C_2
REMARK    2  A    between atoms: C_4  and  C_5
REMARK    3  A    between atoms: C_10  and  C_11
REMARK    4  A    between atoms: C_20  and  O_21
REMARK                            x       y       z     vdW  Elec       q    Type
REMARK                         _______ _______ _______ _____ _____    ______ ____
ROOT
ATOM      1  C   UNL     1       2.764   8.154  18.014  0.00  0.00    +0.000 C 
ATOM      2  O   UNL     1       3.563   8.825  17.363  0.00  0.00    +0.000 OA
ATOM      3  N   UNL     1       2.929   6.780  18.222  0.00  0.00    +0.000 N 
ATOM      4  C   UNL     1       4.239   6.192  17.939  0.00  0.00    +0.000 C 
ATOM      5  C   UNL     1       4.120   4.931  17.088  0.00  0.00    +0.000 C 
ATOM      6  C   UNL     1       3.126   3.923  17.667  0.00  0.00    +0.000 C 
ATOM      7  C   UNL     1       1.789   4.591  17.989  0.00  0.00    +0.000 C 
ATOM      8  C   UNL     1       1.938   5.874  18.801  0.00  0.00    +0.000 C 
ENDROOT
BRANCH   1  12
ATOM      9  C   UNL     1      -0.093   9.324  21.937  0.00  0.00    +0.000 C 
ATOM     10  C   UNL     1       0.256   9.439  20.485  0.00  0.00    +0.000 A 
ATOM     11  C   UNL     1       1.366   8.793  19.957  0.00  0.00    +0.000 A 
ATOM     12  C   UNL     1       1.591   8.872  18.581  0.00  0.00    +0.000 A 
ATOM     13  C   UNL     1       0.670   9.537  17.775  0.00  0.00    +0.000 A 
ATOM     14  C   UNL     1      -0.363  10.201  18.399  0.00  0.00    +0.000 A 
ATOM     15  N   UNL     1      -0.586  10.172  19.721  0.00  0.00    +0.000 NA
BRANCH  14  16
ATOM     16  O   UNL     1      -1.244  10.960  17.687  0.00  0.00    +0.000 OA
ATOM     17  H   UNL     1      -1.001  10.916  16.751  0.00  0.00    +0.000 HD
ENDBRANCH  14  16
ENDBRANCH   1  12
BRANCH   6  18
ATOM     18  C   UNL     1       3.699   3.211  18.858  0.00  0.00    +0.000 A 
ATOM     19  N   UNL     1       4.892   2.726  18.993  0.00  0.00    +0.000 NA
ATOM     20  N   UNL     1       4.849   2.202  20.241  0.00  0.00    +0.000 N 
ATOM     21  C   UNL     1       3.627   2.384  20.822  0.00  0.00    +0.000 A 
ATOM     22  O   UNL     1       3.264   2.034  21.929  0.00  0.00    +0.000 OA
ATOM     23  O   UNL     1       2.864   3.044  19.909  0.00  0.00    +0.000 OA
ATOM     24  H   UNL     1       5.639   1.742  20.675  0.00  0.00    +0.000 HD
ENDBRANCH   6  18
TORSDOF 3
ENDMDL
MODEL 9
REMARK VINA RESULT:      -7.0      2.693      7.400
REMARK  Name = 
REMARK  4 active torsions:
REMARK  status: ('A' for Active; 'I' for Inactive)
REMARK    1  A    between atoms: C_1  and  C_2
REMARK    2  A    between atoms: C_4  and  C_5
REMARK    3  A    between atoms: C_10  and  C_11
REMARK    4  A    between atoms: C_20  and  O_21
REMARK                            x       y       z     vdW  Elec       q    Type
REMARK                         _______ _______ _______ _____ _____    ______ ____
ROOT
ATOM      1  C   UNL     1       1.921   6.568  20.144  0.00  0.00    +0.000 C 
ATOM      2  O   UNL     1       1.464   6.039  21.157  0.00  0.00    +0.000 OA
ATOM      3  N   UNL     1       1.706   7.916  19.838  0.00  0.00    +0.000 N 
ATOM      4  C   UNL     1       1.205   8.793  20.896  0.00  0.00    +0.000 C 
ATOM      5  C   UNL     1       0.025   9.636  20.422  0.00  0.00    +0.000 C 
ATOM      6  C   UNL     1       0.321  10.381  19.120  0.00  0.00    +0.000 C 
ATOM      7  C   UNL     1       0.884   9.435  18.059  0.00  0.00    +0.000 C 
ATOM      8  C   UNL     1       2.032   8.571  18.572  0.00  0.00    +0.000 C 
ENDROOT
BRANCH   1  12
ATOM      9  C   UNL     1       6.364   5.112  18.394  0.00  0.00    +0.000 C 
ATOM     10  C   UNL     1       4.870   5.004  18.441  0.00  0.00    +0.000 A 
ATOM     11  C   UNL     1       4.118   5.790  19.303  0.00  0.00    +0.000 A 
ATOM     12  C   UNL     1       2.725   5.702  19.241  0.00  0.00    +0.000 A 
ATOM     13  C   UNL     1       2.134   4.884  18.281  0.00  0.00    +0.000 A 
ATOM     14  C   UNL     1       2.964   4.094  17.516  0.00  0.00    +0.000 A 
ATOM     15  N   UNL     1       4.304   4.132  17.576  0.00  0.00    +0.000 NA
BRANCH  14  16
ATOM     16  O   UNL     1       2.456   3.192  16.629  0.00  0.00    +0.000 OA
ATOM     17  H   UNL     1       1.943   3.670  15.963  0.00  0.00    +0.000 HD
ENDBRANCH  14  16
ENDBRANCH   1  12
BRANCH   6  18
ATOM     18  C   UNL     1       1.223  11.559  19.356  0.00  0.00    +0.000 A 
ATOM     19  N   UNL     1       1.402  12.210  20.460  0.00  0.00    +0.000 NA
ATOM     20  N   UNL     1       2.299  13.157  20.092  0.00  0.00    +0.000 N 
ATOM     21  C   UNL     1       2.632  13.049  18.773  0.00  0.00    +0.000 A 
ATOM     22  O   UNL     1       3.405  13.740  18.137  0.00  0.00    +0.000 OA
ATOM     23  O   UNL     1       1.918  12.000  18.283  0.00  0.00    +0.000 OA
ATOM     24  H   UNL     1       2.669  13.845  20.734  0.00  0.00    +0.000 HD
ENDBRANCH   6  18
TORSDOF 3
ENDMDL
