MODEL 1
REMARK VINA RESULT:      -6.8      0.000      0.000
REMARK  Name = 
REMARK  14 active torsions:
REMARK  status: ('A' for Active; 'I' for Inactive)
REMARK    1  A    between atoms: N_1  and  C_2
REMARK    2  A    between atoms: C_2  and  N_3
REMARK    3  A    between atoms: C_2  and  C_4
REMARK    4  A    between atoms: C_7  and  N_8
REMARK    5  A    between atoms: N_8  and  C_9
REMARK    6  A    between atoms: C_9  and  C_10
REMARK    7  A    between atoms: C_10  and  C_11
REMARK    8  A    between atoms: C_11  and  C_12
REMARK    9  A    between atoms: C_12  and  C_13
REMARK   10  A    between atoms: C_13  and  N_14
REMARK   11  A    between atoms: N_14  and  C_15
REMARK   12  A    between atoms: C_18  and  C_19
REMARK   13  A    between atoms: C_19  and  N_20
REMARK   14  A    between atoms: C_19  and  N_21
REMARK                            x       y       z     vdW  Elec       q    Type
REMARK                         _______ _______ _______ _____ _____    ______ ____
ROOT
ATOM      1  C   UNL     1       1.317   3.199  18.849  0.00  0.00    +0.000 C 
ENDROOT
BRANCH   1   2
ATOM      2  C   UNL     1       0.911   4.183  19.952  0.00  0.00    +0.000 C 
BRANCH   2   3
ATOM      3  C   UNL     1       2.047   4.449  20.943  0.00  0.00    +0.000 C 
BRANCH   3   4
ATOM      4  N   UNL     1       2.975   5.422  20.379  0.00  0.00    +0.000 N 
ATOM      5  H   UNL     1       3.747   5.634  21.006  0.00  0.00    +0.000 HD
BRANCH   4   9
ATOM      6  C   UNL     1       1.395   9.093  18.923  0.00  0.00    +0.000 A 
ATOM      7  C   UNL     1       1.222   8.684  20.254  0.00  0.00    +0.000 A 
ATOM      8  C   UNL     1       1.748   7.470  20.712  0.00  0.00    +0.000 A 
ATOM      9  C   UNL     1       2.419   6.597  19.850  0.00  0.00    +0.000 A 
ATOM     10  C   UNL     1       2.603   7.009  18.525  0.00  0.00    +0.000 A 
ATOM     11  C   UNL     1       2.081   8.223  18.063  0.00  0.00    +0.000 A 
BRANCH   6  12
ATOM     12  C   UNL     1       0.818  10.405  18.419  0.00  0.00    +0.000 C 
BRANCH  12  13
ATOM     13  N   UNL     1      -0.457  10.240  17.774  0.00  0.00    +0.000 NA
ATOM     14  H   UNL     1      -1.175  10.704  18.317  0.00  0.00    +0.000 HD
ATOM     15  H   UNL     1      -0.680   9.251  17.738  0.00  0.00    +0.000 HD
ENDBRANCH  12  13
BRANCH  12  16
ATOM     16  N   UNL     1       0.521  11.326  19.480  0.00  0.00    +0.000 NA
ATOM     17  H   UNL     1       0.790  12.261  19.190  0.00  0.00    +0.000 HD
ATOM     18  H   UNL     1       1.058  11.087  20.304  0.00  0.00    +0.000 HD
ENDBRANCH  12  16
ENDBRANCH   6  12
ENDBRANCH   4   9
ENDBRANCH   3   4
ENDBRANCH   2   3
ENDBRANCH   1   2
BRANCH   1  19
ATOM     19  C   UNL     1       2.247   2.067  19.298  0.00  0.00    +0.000 C 
BRANCH  19  20
ATOM     20  C   UNL     1       3.531   2.004  18.472  0.00  0.00    +0.000 C 
BRANCH  20  21
ATOM     21  N   UNL     1       3.490   3.007  17.417  0.00  0.00    +0.000 N 
ATOM     22  H   UNL     1       3.414   2.601  16.489  0.00  0.00    +0.000 HD
BRANCH  21  23
ATOM     23  C   UNL     1       4.452   4.025  17.455  0.00  0.00    +0.000 A 
ATOM     24  C   UNL     1       5.310   4.093  18.555  0.00  0.00    +0.000 A 
ATOM     25  C   UNL     1       6.343   5.036  18.614  0.00  0.00    +0.000 A 
ATOM     26  C   UNL     1       6.588   5.914  17.547  0.00  0.00    +0.000 A 
ATOM     27  C   UNL     1       5.732   5.842  16.441  0.00  0.00    +0.000 A 
ATOM     28  C   UNL     1       4.695   4.901  16.389  0.00  0.00    +0.000 A 
BRANCH  26  29
ATOM     29  C   UNL     1       7.752   6.879  17.623  0.00  0.00    +0.000 C 
BRANCH  29  30
ATOM     30  N   UNL     1       7.352   8.232  17.330  0.00  0.00    +0.000 NA
ATOM     31  H   UNL     1       8.197   8.780  17.177  0.00  0.00    +0.000 HD
ATOM     32  H   UNL     1       6.935   8.631  18.169  0.00  0.00    +0.000 HD
ENDBRANCH  29  30
BRANCH  29  33
ATOM     33  N   UNL     1       8.327   7.044  18.931  0.00  0.00    +0.000 NA
ATOM     34  H   UNL     1       9.095   6.384  19.011  0.00  0.00    +0.000 HD
ATOM     35  H   UNL     1       7.627   6.685  19.576  0.00  0.00    +0.000 HD
ENDBRANCH  29  33
ENDBRANCH  26  29
ENDBRANCH  21  23
ENDBRANCH  20  21
ENDBRANCH  19  20
ENDBRANCH   1  19
TORSDOF 14
ENDMDL
MODEL 2
REMARK VINA RESULT:      -6.8      0.797      1.299
REMARK  Name = 
REMARK  14 active torsions:
REMARK  status: ('A' for Active; 'I' for Inactive)
REMARK    1  A    between atoms: N_1  and  C_2
REMARK    2  A    between atoms: C_2  and  N_3
REMARK    3  A    between atoms: C_2  and  C_4
REMARK    4  A    between atoms: C_7  and  N_8
REMARK    5  A    between atoms: N_8  and  C_9
REMARK    6  A    between atoms: C_9  and  C_10
REMARK    7  A    between atoms: C_10  and  C_11
REMARK    8  A    between atoms: C_11  and  C_12
REMARK    9  A    between atoms: C_12  and  C_13
REMARK   10  A    between atoms: C_13  and  N_14
REMARK   11  A    between atoms: N_14  and  C_15
REMARK   12  A    between atoms: C_18  and  C_19
REMARK   13  A    between atoms: C_19  and  N_20
REMARK   14  A    between atoms: C_19  and  N_21
REMARK                            x       y       z     vdW  Elec       q    Type
REMARK                         _______ _______ _______ _____ _____    ______ ____
ROOT
ATOM      1  C   UNL     1       1.134   2.962  20.235  0.00  0.00    +0.000 C 
ENDROOT
BRANCH   1   2
ATOM      2  C   UNL     1       1.074   4.491  20.157  0.00  0.00    +0.000 C 
BRANCH   2   3
ATOM      3  C   UNL     1       2.178   5.162  20.979  0.00  0.00    +0.000 C 
BRANCH   3   4
ATOM      4  N   UNL     1       2.931   6.080  20.134  0.00  0.00    +0.000 N 
ATOM      5  H   UNL     1       3.851   6.293  20.512  0.00  0.00    +0.000 HD
BRANCH   4   9
ATOM      6  C   UNL     1       1.033   9.729  19.050  0.00  0.00    +0.000 A 
ATOM      7  C   UNL     1       0.904   9.175  20.333  0.00  0.00    +0.000 A 
ATOM      8  C   UNL     1       1.534   7.972  20.668  0.00  0.00    +0.000 A 
ATOM      9  C   UNL     1       2.273   7.251  19.724  0.00  0.00    +0.000 A 
ATOM     10  C   UNL     1       2.414   7.808  18.448  0.00  0.00    +0.000 A 
ATOM     11  C   UNL     1       1.786   9.013  18.109  0.00  0.00    +0.000 A 
BRANCH   6  12
ATOM     12  C   UNL     1       0.343  11.031  18.679  0.00  0.00    +0.000 C 
BRANCH  12  13
ATOM     13  N   UNL     1      -0.258  11.683  19.812  0.00  0.00    +0.000 NA
ATOM     14  H   UNL     1      -0.339  11.027  20.579  0.00  0.00    +0.000 HD
ATOM     15  H   UNL     1      -1.192  11.986  19.558  0.00  0.00    +0.000 HD
ENDBRANCH  12  13
BRANCH  12  16
ATOM     16  N   UNL     1       1.257  12.025  18.189  0.00  0.00    +0.000 NA
ATOM     17  H   UNL     1       0.829  12.941  18.283  0.00  0.00    +0.000 HD
ATOM     18  H   UNL     1       1.443  11.866  17.207  0.00  0.00    +0.000 HD
ENDBRANCH  12  16
ENDBRANCH   6  12
ENDBRANCH   4   9
ENDBRANCH   3   4
ENDBRANCH   2   3
ENDBRANCH   1   2
BRANCH   1  19
ATOM     19  C   UNL     1       1.253   2.247  18.885  0.00  0.00    +0.000 C 
BRANCH  19  20
ATOM     20  C   UNL     1       2.699   2.157  18.398  0.00  0.00    +0.000 C 
BRANCH  20  21
ATOM     21  N   UNL     1       2.938   3.163  17.374  0.00  0.00    +0.000 N 
ATOM     22  H   UNL     1       2.779   2.815  16.432  0.00  0.00    +0.000 HD
BRANCH  21  23
ATOM     23  C   UNL     1       4.129   3.898  17.454  0.00  0.00    +0.000 A 
ATOM     24  C   UNL     1       4.465   4.743  16.393  0.00  0.00    +0.000 A 
ATOM     25  C   UNL     1       5.597   5.563  16.447  0.00  0.00    +0.000 A 
ATOM     26  C   UNL     1       6.410   5.607  17.591  0.00  0.00    +0.000 A 
ATOM     27  C   UNL     1       6.070   4.764  18.657  0.00  0.00    +0.000 A 
ATOM     28  C   UNL     1       4.938   3.940  18.596  0.00  0.00    +0.000 A 
BRANCH  26  29
ATOM     29  C   UNL     1       7.593   6.551  17.634  0.00  0.00    +0.000 C 
BRANCH  29  30
ATOM     30  N   UNL     1       7.218   7.901  17.303  0.00  0.00    +0.000 NA
ATOM     31  H   UNL     1       6.598   7.862  16.495  0.00  0.00    +0.000 HD
ATOM     32  H   UNL     1       8.046   8.390  16.967  0.00  0.00    +0.000 HD
ENDBRANCH  29  30
BRANCH  29  33
ATOM     33  N   UNL     1       8.176   6.743  18.934  0.00  0.00    +0.000 NA
ATOM     34  H   UNL     1       7.866   5.976  19.524  0.00  0.00    +0.000 HD
ATOM     35  H   UNL     1       7.703   7.557  19.321  0.00  0.00    +0.000 HD
ENDBRANCH  29  33
ENDBRANCH  26  29
ENDBRANCH  21  23
ENDBRANCH  20  21
ENDBRANCH  19  20
ENDBRANCH   1  19
TORSDOF 14
ENDMDL
MODEL 3
REMARK VINA RESULT:      -6.7      1.095      1.694
REMARK  Name = 
REMARK  14 active torsions:
REMARK  status: ('A' for Active; 'I' for Inactive)
REMARK    1  A    between atoms: N_1  and  C_2
REMARK    2  A    between atoms: C_2  and  N_3
REMARK    3  A    between atoms: C_2  and  C_4
REMARK    4  A    between atoms: C_7  and  N_8
REMARK    5  A    between atoms: N_8  and  C_9
REMARK    6  A    between atoms: C_9  and  C_10
REMARK    7  A    between atoms: C_10  and  C_11
REMARK    8  A    between atoms: C_11  and  C_12
REMARK    9  A    between atoms: C_12  and  C_13
REMARK   10  A    between atoms: C_13  and  N_14
REMARK   11  A    between atoms: N_14  and  C_15
REMARK   12  A    between atoms: C_18  and  C_19
REMARK   13  A    between atoms: C_19  and  N_20
REMARK   14  A    between atoms: C_19  and  N_21
REMARK                            x       y       z     vdW  Elec       q    Type
REMARK                         _______ _______ _______ _____ _____    ______ ____
ROOT
ATOM      1  C   UNL     1       1.169   3.195  20.855  0.00  0.00    +0.000 C 
ENDROOT
BRANCH   1   2
ATOM      2  C   UNL     1       1.209   4.573  20.184  0.00  0.00    +0.000 C 
BRANCH   2   3
ATOM      3  C   UNL     1       2.221   5.513  20.843  0.00  0.00    +0.000 C 
BRANCH   3   4
ATOM      4  N   UNL     1       2.796   6.399  19.839  0.00  0.00    +0.000 N 
ATOM      5  H   UNL     1       3.794   6.545  19.973  0.00  0.00    +0.000 HD
BRANCH   4   9
ATOM      6  C   UNL     1       0.686   9.995  19.000  0.00  0.00    +0.000 A 
ATOM      7  C   UNL     1       1.419   9.315  18.016  0.00  0.00    +0.000 A 
ATOM      8  C   UNL     1       2.108   8.135  18.313  0.00  0.00    +0.000 A 
ATOM      9  C   UNL     1       2.136   7.617  19.612  0.00  0.00    +0.000 A 
ATOM     10  C   UNL     1       1.397   8.287  20.593  0.00  0.00    +0.000 A 
ATOM     11  C   UNL     1       0.704   9.467  20.299  0.00  0.00    +0.000 A 
BRANCH   6  12
ATOM     12  C   UNL     1      -0.056  11.283  18.684  0.00  0.00    +0.000 C 
BRANCH  12  13
ATOM     13  N   UNL     1      -0.679  11.864  19.843  0.00  0.00    +0.000 NA
ATOM     14  H   UNL     1      -0.285  11.455  20.682  0.00  0.00    +0.000 HD
ATOM     15  H   UNL     1      -1.670  11.649  19.825  0.00  0.00    +0.000 HD
ENDBRANCH  12  13
BRANCH  12  16
ATOM     16  N   UNL     1       0.815  12.331  18.233  0.00  0.00    +0.000 NA
ATOM     17  H   UNL     1       0.497  12.656  17.324  0.00  0.00    +0.000 HD
ATOM     18  H   UNL     1       1.756  11.974  18.126  0.00  0.00    +0.000 HD
ENDBRANCH  12  16
ENDBRANCH   6  12
ENDBRANCH   4   9
ENDBRANCH   3   4
ENDBRANCH   2   3
ENDBRANCH   1   2
BRANCH   1  19
ATOM     19  C   UNL     1       1.749   2.049  20.019  0.00  0.00    +0.000 C 
BRANCH  19  20
ATOM     20  C   UNL     1       1.758   2.363  18.524  0.00  0.00    +0.000 C 
BRANCH  20  21
ATOM     21  N   UNL     1       3.103   2.196  17.992  0.00  0.00    +0.000 N 
ATOM     22  H   UNL     1       3.601   1.416  18.412  0.00  0.00    +0.000 HD
BRANCH  21  23
ATOM     23  C   UNL     1       3.914   3.337  17.912  0.00  0.00    +0.000 A 
ATOM     24  C   UNL     1       4.826   3.581  18.942  0.00  0.00    +0.000 A 
ATOM     25  C   UNL     1       5.718   4.657  18.883  0.00  0.00    +0.000 A 
ATOM     26  C   UNL     1       5.767   5.501  17.761  0.00  0.00    +0.000 A 
ATOM     27  C   UNL     1       4.858   5.253  16.726  0.00  0.00    +0.000 A 
ATOM     28  C   UNL     1       3.961   4.177  16.793  0.00  0.00    +0.000 A 
BRANCH  26  29
ATOM     29  C   UNL     1       6.788   6.618  17.709  0.00  0.00    +0.000 C 
BRANCH  29  30
ATOM     30  N   UNL     1       7.842   6.433  18.673  0.00  0.00    +0.000 NA
ATOM     31  H   UNL     1       8.539   5.817  18.257  0.00  0.00    +0.000 HD
ATOM     32  H   UNL     1       7.468   5.903  19.458  0.00  0.00    +0.000 HD
ENDBRANCH  29  30
BRANCH  29  33
ATOM     33  N   UNL     1       7.546   6.699  16.490  0.00  0.00    +0.000 NA
ATOM     34  H   UNL     1       8.476   6.341  16.686  0.00  0.00    +0.000 HD
ATOM     35  H   UNL     1       7.694   7.694  16.334  0.00  0.00    +0.000 HD
ENDBRANCH  29  33
ENDBRANCH  26  29
ENDBRANCH  21  23
ENDBRANCH  20  21
ENDBRANCH  19  20
ENDBRANCH   1  19
TORSDOF 14
ENDMDL
MODEL 4
REMARK VINA RESULT:      -6.7      0.758      5.744
REMARK  Name = 
REMARK  14 active torsions:
REMARK  status: ('A' for Active; 'I' for Inactive)
REMARK    1  A    between atoms: N_1  and  C_2
REMARK    2  A    between atoms: C_2  and  N_3
REMARK    3  A    between atoms: C_2  and  C_4
REMARK    4  A    between atoms: C_7  and  N_8
REMARK    5  A    between atoms: N_8  and  C_9
REMARK    6  A    between atoms: C_9  and  C_10
REMARK    7  A    between atoms: C_10  and  C_11
REMARK    8  A    between atoms: C_11  and  C_12
REMARK    9  A    between atoms: C_12  and  C_13
REMARK   10  A    between atoms: C_13  and  N_14
REMARK   11  A    between atoms: N_14  and  C_15
REMARK   12  A    between atoms: C_18  and  C_19
REMARK   13  A    between atoms: C_19  and  N_20
REMARK   14  A    between atoms: C_19  and  N_21
REMARK                            x       y       z     vdW  Elec       q    Type
REMARK                         _______ _______ _______ _____ _____    ______ ____
ROOT
ATOM      1  C   UNL     1       1.956   2.376  19.713  0.00  0.00    +0.000 C 
ENDROOT
BRANCH   1   2
ATOM      2  C   UNL     1       1.201   2.991  18.529  0.00  0.00    +0.000 C 
BRANCH   2   3
ATOM      3  C   UNL     1       2.143   3.628  17.504  0.00  0.00    +0.000 C 
BRANCH   3   4
ATOM      4  N   UNL     1       3.511   3.190  17.754  0.00  0.00    +0.000 N 
ATOM      5  H   UNL     1       3.590   2.618  18.592  0.00  0.00    +0.000 HD
BRANCH   4   9
ATOM      6  C   UNL     1       6.673   6.035  17.727  0.00  0.00    +0.000 A 
ATOM      7  C   UNL     1       6.325   5.320  18.883  0.00  0.00    +0.000 A 
ATOM      8  C   UNL     1       5.279   4.390  18.871  0.00  0.00    +0.000 A 
ATOM      9  C   UNL     1       4.509   4.177  17.723  0.00  0.00    +0.000 A 
ATOM     10  C   UNL     1       4.862   4.880  16.566  0.00  0.00    +0.000 A 
ATOM     11  C   UNL     1       5.909   5.810  16.573  0.00  0.00    +0.000 A 
BRANCH   6  12
ATOM     12  C   UNL     1       7.802   7.052  17.738  0.00  0.00    +0.000 C 
BRANCH  12  13
ATOM     13  N   UNL     1       7.344   8.392  17.482  0.00  0.00    +0.000 NA
ATOM     14  H   UNL     1       7.358   8.926  18.342  0.00  0.00    +0.000 HD
ATOM     15  H   UNL     1       6.387   8.353  17.150  0.00  0.00    +0.000 HD
ENDBRANCH  12  13
BRANCH  12  16
ATOM     16  N   UNL     1       8.430   7.172  19.023  0.00  0.00    +0.000 NA
ATOM     17  H   UNL     1       8.032   6.479  19.651  0.00  0.00    +0.000 HD
ATOM     18  H   UNL     1       8.247   8.088  19.412  0.00  0.00    +0.000 HD
ENDBRANCH  12  16
ENDBRANCH   6  12
ENDBRANCH   4   9
ENDBRANCH   3   4
ENDBRANCH   2   3
ENDBRANCH   1   2
BRANCH   1  19
ATOM     19  C   UNL     1       2.252   3.341  20.867  0.00  0.00    +0.000 C 
BRANCH  19  20
ATOM     20  C   UNL     1       1.496   4.662  20.730  0.00  0.00    +0.000 C 
BRANCH  20  21
ATOM     21  N   UNL     1       2.440   5.771  20.709  0.00  0.00    +0.000 N 
ATOM     22  H   UNL     1       2.908   5.909  21.600  0.00  0.00    +0.000 HD
BRANCH  21  23
ATOM     23  C   UNL     1       1.999   6.986  20.168  0.00  0.00    +0.000 A 
ATOM     24  C   UNL     1       1.321   7.881  21.001  0.00  0.00    +0.000 A 
ATOM     25  C   UNL     1       0.927   9.143  20.543  0.00  0.00    +0.000 A 
ATOM     26  C   UNL     1       1.243   9.579  19.247  0.00  0.00    +0.000 A 
ATOM     27  C   UNL     1       1.928   8.685  18.414  0.00  0.00    +0.000 A 
ATOM     28  C   UNL     1       2.315   7.420  18.874  0.00  0.00    +0.000 A 
BRANCH  26  29
ATOM     29  C   UNL     1       0.851  10.974  18.809  0.00  0.00    +0.000 C 
BRANCH  29  30
ATOM     30  N   UNL     1       1.890  11.612  18.042  0.00  0.00    +0.000 NA
ATOM     31  H   UNL     1       2.342  12.300  18.642  0.00  0.00    +0.000 HD
ATOM     32  H   UNL     1       1.453  12.161  17.305  0.00  0.00    +0.000 HD
ENDBRANCH  29  30
BRANCH  29  33
ATOM     33  N   UNL     1      -0.248  11.040  17.885  0.00  0.00    +0.000 NA
ATOM     34  H   UNL     1       0.140  11.219  16.963  0.00  0.00    +0.000 HD
ATOM     35  H   UNL     1      -0.739  11.901  18.115  0.00  0.00    +0.000 HD
ENDBRANCH  29  33
ENDBRANCH  26  29
ENDBRANCH  21  23
ENDBRANCH  20  21
ENDBRANCH  19  20
ENDBRANCH   1  19
TORSDOF 14
ENDMDL
MODEL 5
REMARK VINA RESULT:      -6.6      1.549      6.667
REMARK  Name = 
REMARK  14 active torsions:
REMARK  status: ('A' for Active; 'I' for Inactive)
REMARK    1  A    between atoms: N_1  and  C_2
REMARK    2  A    between atoms: C_2  and  N_3
REMARK    3  A    between atoms: C_2  and  C_4
REMARK    4  A    between atoms: C_7  and  N_8
REMARK    5  A    between atoms: N_8  and  C_9
REMARK    6  A    between atoms: C_9  and  C_10
REMARK    7  A    between atoms: C_10  and  C_11
REMARK    8  A    between atoms: C_11  and  C_12
REMARK    9  A    between atoms: C_12  and  C_13
REMARK   10  A    between atoms: C_13  and  N_14
REMARK   11  A    between atoms: N_14  and  C_15
REMARK   12  A    between atoms: C_18  and  C_19
REMARK   13  A    between atoms: C_19  and  N_20
REMARK   14  A    between atoms: C_19  and  N_21
REMARK                            x       y       z     vdW  Elec       q    Type
REMARK                         _______ _______ _______ _____ _____    ______ ____
ROOT
ATOM      1  C   UNL     1       1.748   3.639  21.027  0.00  0.00    +0.000 C 
ENDROOT
BRANCH   1   2
ATOM      2  C   UNL     1       0.746   3.418  19.888  0.00  0.00    +0.000 C 
BRANCH   2   3
ATOM      3  C   UNL     1       1.425   2.954  18.596  0.00  0.00    +0.000 C 
BRANCH   3   4
ATOM      4  N   UNL     1       1.618   4.092  17.706  0.00  0.00    +0.000 N 
ATOM      5  H   UNL     1       1.167   3.962  16.804  0.00  0.00    +0.000 HD
BRANCH   4   9
ATOM      6  C   UNL     1       5.599   5.429  17.031  0.00  0.00    +0.000 A 
ATOM      7  C   UNL     1       5.232   4.083  16.888  0.00  0.00    +0.000 A 
ATOM      8  C   UNL     1       3.917   3.663  17.118  0.00  0.00    +0.000 A 
ATOM      9  C   UNL     1       2.932   4.559  17.548  0.00  0.00    +0.000 A 
ATOM     10  C   UNL     1       3.293   5.904  17.679  0.00  0.00    +0.000 A 
ATOM     11  C   UNL     1       4.607   6.329  17.448  0.00  0.00    +0.000 A 
BRANCH   6  12
ATOM     12  C   UNL     1       7.027   5.888  16.791  0.00  0.00    +0.000 C 
BRANCH  12  13
ATOM     13  N   UNL     1       7.462   5.667  15.438  0.00  0.00    +0.000 NA
ATOM     14  H   UNL     1       8.334   6.157  15.277  0.00  0.00    +0.000 HD
ATOM     15  H   UNL     1       6.767   6.047  14.805  0.00  0.00    +0.000 HD
ENDBRANCH  12  13
BRANCH  12  16
ATOM     16  N   UNL     1       7.189   7.307  16.949  0.00  0.00    +0.000 NA
ATOM     17  H   UNL     1       6.272   7.741  16.985  0.00  0.00    +0.000 HD
ATOM     18  H   UNL     1       7.685   7.687  16.153  0.00  0.00    +0.000 HD
ENDBRANCH  12  16
ENDBRANCH   6  12
ENDBRANCH   4   9
ENDBRANCH   3   4
ENDBRANCH   2   3
ENDBRANCH   1   2
BRANCH   1  19
ATOM     19  C   UNL     1       2.350   5.047  21.098  0.00  0.00    +0.000 C 
BRANCH  19  20
ATOM     20  C   UNL     1       1.335   6.134  20.744  0.00  0.00    +0.000 C 
BRANCH  20  21
ATOM     21  N   UNL     1       1.937   7.447  20.922  0.00  0.00    +0.000 N 
ATOM     22  H   UNL     1       2.212   7.630  21.883  0.00  0.00    +0.000 HD
BRANCH  21  23
ATOM     23  C   UNL     1       1.271   8.546  20.362  0.00  0.00    +0.000 A 
ATOM     24  C   UNL     1       1.510   8.861  19.022  0.00  0.00    +0.000 A 
ATOM     25  C   UNL     1       0.816   9.894  18.383  0.00  0.00    +0.000 A 
ATOM     26  C   UNL     1      -0.184  10.620  19.049  0.00  0.00    +0.000 A 
ATOM     27  C   UNL     1      -0.429  10.301  20.391  0.00  0.00    +0.000 A 
ATOM     28  C   UNL     1       0.273   9.269  21.028  0.00  0.00    +0.000 A 
BRANCH  26  29
ATOM     29  C   UNL     1      -0.954  11.691  18.306  0.00  0.00    +0.000 C 
BRANCH  29  30
ATOM     30  N   UNL     1      -1.565  11.181  17.105  0.00  0.00    +0.000 NA
ATOM     31  H   UNL     1      -0.833  11.069  16.406  0.00  0.00    +0.000 HD
ATOM     32  H   UNL     1      -2.175  11.903  16.725  0.00  0.00    +0.000 HD
ENDBRANCH  29  30
BRANCH  29  33
ATOM     33  N   UNL     1      -2.102  12.211  18.995  0.00  0.00    +0.000 NA
ATOM     34  H   UNL     1      -1.848  13.121  19.368  0.00  0.00    +0.000 HD
ATOM     35  H   UNL     1      -2.203  11.627  19.823  0.00  0.00    +0.000 HD
ENDBRANCH  29  33
ENDBRANCH  26  29
ENDBRANCH  21  23
ENDBRANCH  20  21
ENDBRANCH  19  20
ENDBRANCH   1  19
TORSDOF 14
ENDMDL
MODEL 6
REMARK VINA RESULT:      -6.6      1.373      5.933
REMARK  Name = 
REMARK  14 active torsions:
REMARK  status: ('A' for Active; 'I' for Inactive)
REMARK    1  A    between atoms: N_1  and  C_2
REMARK    2  A    between atoms: C_2  and  N_3
REMARK    3  A    between atoms: C_2  and  C_4
REMARK    4  A    between atoms: C_7  and  N_8
REMARK    5  A    between atoms: N_8  and  C_9
REMARK    6  A    between atoms: C_9  and  C_10
REMARK    7  A    between atoms: C_10  and  C_11
REMARK    8  A    between atoms: C_11  and  C_12
REMARK    9  A    between atoms: C_12  and  C_13
REMARK   10  A    between atoms: C_13  and  N_14
REMARK   11  A    between atoms: N_14  and  C_15
REMARK   12  A    between atoms: C_18  and  C_19
REMARK   13  A    between atoms: C_19  and  N_20
REMARK   14  A    between atoms: C_19  and  N_21
REMARK                            x       y       z     vdW  Elec       q    Type
REMARK                         _______ _______ _______ _____ _____    ______ ____
ROOT
ATOM      1  C   UNL     1       1.269   2.962  20.808  0.00  0.00    +0.000 C 
ENDROOT
BRANCH   1   2
ATOM      2  C   UNL     1       2.548   2.806  21.638  0.00  0.00    +0.000 C 
BRANCH   2   3
ATOM      3  C   UNL     1       3.680   2.146  20.845  0.00  0.00    +0.000 C 
BRANCH   3   4
ATOM      4  N   UNL     1       3.389   2.219  19.419  0.00  0.00    +0.000 N 
ATOM      5  H   UNL     1       3.379   1.303  18.976  0.00  0.00    +0.000 HD
BRANCH   4   9
ATOM      6  C   UNL     1       5.480   5.088  17.077  0.00  0.00    +0.000 A 
ATOM      7  C   UNL     1       4.460   4.290  16.540  0.00  0.00    +0.000 A 
ATOM      8  C   UNL     1       3.786   3.350  17.327  0.00  0.00    +0.000 A 
ATOM      9  C   UNL     1       4.138   3.134  18.663  0.00  0.00    +0.000 A 
ATOM     10  C   UNL     1       5.148   3.937  19.204  0.00  0.00    +0.000 A 
ATOM     11  C   UNL     1       5.823   4.880  18.421  0.00  0.00    +0.000 A 
BRANCH   6  12
ATOM     12  C   UNL     1       6.221   6.104  16.224  0.00  0.00    +0.000 C 
BRANCH  12  13
ATOM     13  N   UNL     1       6.850   7.134  17.008  0.00  0.00    +0.000 NA
ATOM     14  H   UNL     1       6.386   7.210  17.905  0.00  0.00    +0.000 HD
ATOM     15  H   UNL     1       6.749   8.020  16.526  0.00  0.00    +0.000 HD
ENDBRANCH  12  13
BRANCH  12  16
ATOM     16  N   UNL     1       7.326   5.530  15.509  0.00  0.00    +0.000 NA
ATOM     17  H   UNL     1       6.973   4.829  14.864  0.00  0.00    +0.000 HD
ATOM     18  H   UNL     1       7.953   5.070  16.157  0.00  0.00    +0.000 HD
ENDBRANCH  12  16
ENDBRANCH   6  12
ENDBRANCH   4   9
ENDBRANCH   3   4
ENDBRANCH   2   3
ENDBRANCH   1   2
BRANCH   1  19
ATOM     19  C   UNL     1       1.010   4.375  20.273  0.00  0.00    +0.000 C 
BRANCH  19  20
ATOM     20  C   UNL     1       1.871   5.429  20.968  0.00  0.00    +0.000 C 
BRANCH  20  21
ATOM     21  N   UNL     1       2.614   6.192  19.976  0.00  0.00    +0.000 N 
ATOM     22  H   UNL     1       3.607   6.252  20.185  0.00  0.00    +0.000 HD
BRANCH  21  23
ATOM     23  C   UNL     1       2.095   7.437  19.594  0.00  0.00    +0.000 A 
ATOM     24  C   UNL     1       1.408   8.194  20.547  0.00  0.00    +0.000 A 
ATOM     25  C   UNL     1       0.936   9.477  20.252  0.00  0.00    +0.000 A 
ATOM     26  C   UNL     1       1.181  10.074  19.005  0.00  0.00    +0.000 A 
ATOM     27  C   UNL     1       1.875   9.318  18.052  0.00  0.00    +0.000 A 
ATOM     28  C   UNL     1       2.340   8.030  18.350  0.00  0.00    +0.000 A 
BRANCH  26  29
ATOM     29  C   UNL     1       0.705  11.488  18.745  0.00  0.00    +0.000 C 
BRANCH  29  30
ATOM     30  N   UNL     1       0.623  12.262  19.958  0.00  0.00    +0.000 NA
ATOM     31  H   UNL     1       1.504  12.760  20.069  0.00  0.00    +0.000 HD
ATOM     32  H   UNL     1       0.590  11.618  20.747  0.00  0.00    +0.000 HD
ENDBRANCH  29  30
BRANCH  29  33
ATOM     33  N   UNL     1       1.598  12.301  17.966  0.00  0.00    +0.000 NA
ATOM     34  H   UNL     1       2.495  11.825  17.934  0.00  0.00    +0.000 HD
ATOM     35  H   UNL     1       1.778  13.124  18.538  0.00  0.00    +0.000 HD
ENDBRANCH  29  33
ENDBRANCH  26  29
ENDBRANCH  21  23
ENDBRANCH  20  21
ENDBRANCH  19  20
ENDBRANCH   1  19
TORSDOF 14
ENDMDL
MODEL 7
REMARK VINA RESULT:      -6.6      1.134      1.784
REMARK  Name = 
REMARK  14 active torsions:
REMARK  status: ('A' for Active; 'I' for Inactive)
REMARK    1  A    between atoms: N_1  and  C_2
REMARK    2  A    between atoms: C_2  and  N_3
REMARK    3  A    between atoms: C_2  and  C_4
REMARK    4  A    between atoms: C_7  and  N_8
REMARK    5  A    between atoms: N_8  and  C_9
REMARK    6  A    between atoms: C_9  and  C_10
REMARK    7  A    between atoms: C_10  and  C_11
REMARK    8  A    between atoms: C_11  and  C_12
REMARK    9  A    between atoms: C_12  and  C_13
REMARK   10  A    between atoms: C_13  and  N_14
REMARK   11  A    between atoms: N_14  and  C_15
REMARK   12  A    between atoms: C_18  and  C_19
REMARK   13  A    between atoms: C_19  and  N_20
REMARK   14  A    between atoms: C_19  and  N_21
REMARK                            x       y       z     vdW  Elec       q    Type
REMARK                         _______ _______ _______ _____ _____    ______ ____
ROOT
ATOM      1  C   UNL     1       1.128   3.358  19.366  0.00  0.00    +0.000 C 
ENDROOT
BRANCH   1   2
ATOM      2  C   UNL     1       0.807   4.500  20.337  0.00  0.00    +0.000 C 
BRANCH   2   3
ATOM      3  C   UNL     1       2.054   5.025  21.053  0.00  0.00    +0.000 C 
BRANCH   3   4
ATOM      4  N   UNL     1       2.819   5.876  20.149  0.00  0.00    +0.000 N 
ATOM      5  H   UNL     1       3.774   6.022  20.467  0.00  0.00    +0.000 HD
BRANCH   4   9
ATOM      6  C   UNL     1       1.126   9.645  19.138  0.00  0.00    +0.000 A 
ATOM      7  C   UNL     1       0.983   9.083  20.416  0.00  0.00    +0.000 A 
ATOM      8  C   UNL     1       1.546   7.840  20.727  0.00  0.00    +0.000 A 
ATOM      9  C   UNL     1       2.226   7.089  19.764  0.00  0.00    +0.000 A 
ATOM     10  C   UNL     1       2.380   7.652  18.492  0.00  0.00    +0.000 A 
ATOM     11  C   UNL     1       1.820   8.896  18.177  0.00  0.00    +0.000 A 
BRANCH   6  12
ATOM     12  C   UNL     1       0.509  10.990  18.793  0.00  0.00    +0.000 C 
BRANCH  12  13
ATOM     13  N   UNL     1       1.421  11.856  18.094  0.00  0.00    +0.000 NA
ATOM     14  H   UNL     1       0.994  12.175  17.233  0.00  0.00    +0.000 HD
ATOM     15  H   UNL     1       2.254  11.329  17.856  0.00  0.00    +0.000 HD
ENDBRANCH  12  13
BRANCH  12  16
ATOM     16  N   UNL     1      -0.590  10.878  17.875  0.00  0.00    +0.000 NA
ATOM     17  H   UNL     1      -1.451  11.104  18.364  0.00  0.00    +0.000 HD
ATOM     18  H   UNL     1      -0.661   9.927  17.538  0.00  0.00    +0.000 HD
ENDBRANCH  12  16
ENDBRANCH   6  12
ENDBRANCH   4   9
ENDBRANCH   3   4
ENDBRANCH   2   3
ENDBRANCH   1   2
BRANCH   1  19
ATOM     19  C   UNL     1       1.914   2.191  19.974  0.00  0.00    +0.000 C 
BRANCH  19  20
ATOM     20  C   UNL     1       2.775   1.467  18.940  0.00  0.00    +0.000 C 
BRANCH  20  21
ATOM     21  N   UNL     1       4.175   1.824  19.127  0.00  0.00    +0.000 N 
ATOM     22  H   UNL     1       4.479   1.738  20.093  0.00  0.00    +0.000 HD
BRANCH  21  23
ATOM     23  C   UNL     1       4.619   3.024  18.555  0.00  0.00    +0.000 A 
ATOM     24  C   UNL     1       4.143   3.376  17.289  0.00  0.00    +0.000 A 
ATOM     25  C   UNL     1       4.485   4.597  16.698  0.00  0.00    +0.000 A 
ATOM     26  C   UNL     1       5.276   5.537  17.377  0.00  0.00    +0.000 A 
ATOM     27  C   UNL     1       5.748   5.188  18.648  0.00  0.00    +0.000 A 
ATOM     28  C   UNL     1       5.408   3.961  19.233  0.00  0.00    +0.000 A 
BRANCH  26  29
ATOM     29  C   UNL     1       5.575   6.873  16.728  0.00  0.00    +0.000 C 
BRANCH  29  30
ATOM     30  N   UNL     1       6.980   7.189  16.768  0.00  0.00    +0.000 NA
ATOM     31  H   UNL     1       7.165   7.876  16.038  0.00  0.00    +0.000 HD
ATOM     32  H   UNL     1       7.503   6.364  16.482  0.00  0.00    +0.000 HD
ENDBRANCH  29  30
BRANCH  29  33
ATOM     33  N   UNL     1       5.323   6.937  15.314  0.00  0.00    +0.000 NA
ATOM     34  H   UNL     1       6.168   7.284  14.869  0.00  0.00    +0.000 HD
ATOM     35  H   UNL     1       4.656   7.696  15.197  0.00  0.00    +0.000 HD
ENDBRANCH  29  33
ENDBRANCH  26  29
ENDBRANCH  21  23
ENDBRANCH  20  21
ENDBRANCH  19  20
ENDBRANCH   1  19
TORSDOF 14
ENDMDL
MODEL 8
REMARK VINA RESULT:      -6.6      0.593      1.271
REMARK  Name = 
REMARK  14 active torsions:
REMARK  status: ('A' for Active; 'I' for Inactive)
REMARK    1  A    between atoms: N_1  and  C_2
REMARK    2  A    between atoms: C_2  and  N_3
REMARK    3  A    between atoms: C_2  and  C_4
REMARK    4  A    between atoms: C_7  and  N_8
REMARK    5  A    between atoms: N_8  and  C_9
REMARK    6  A    between atoms: C_9  and  C_10
REMARK    7  A    between atoms: C_10  and  C_11
REMARK    8  A    between atoms: C_11  and  C_12
REMARK    9  A    between atoms: C_12  and  C_13
REMARK   10  A    between atoms: C_13  and  N_14
REMARK   11  A    between atoms: N_14  and  C_15
REMARK   12  A    between atoms: C_18  and  C_19
REMARK   13  A    between atoms: C_19  and  N_20
REMARK   14  A    between atoms: C_19  and  N_21
REMARK                            x       y       z     vdW  Elec       q    Type
REMARK                         _______ _______ _______ _____ _____    ______ ____
ROOT
ATOM      1  C   UNL     1       1.322   3.151  19.056  0.00  0.00    +0.000 C 
ENDROOT
BRANCH   1   2
ATOM      2  C   UNL     1       0.923   4.317  19.966  0.00  0.00    +0.000 C 
BRANCH   2   3
ATOM      3  C   UNL     1       2.075   4.780  20.862  0.00  0.00    +0.000 C 
BRANCH   3   4
ATOM      4  N   UNL     1       2.882   5.766  20.155  0.00  0.00    +0.000 N 
ATOM      5  H   UNL     1       3.813   5.866  20.553  0.00  0.00    +0.000 HD
BRANCH   4   9
ATOM      6  C   UNL     1       0.998   9.483  19.304  0.00  0.00    +0.000 A 
ATOM      7  C   UNL     1       1.733   8.783  18.336  0.00  0.00    +0.000 A 
ATOM      8  C   UNL     1       2.348   7.562  18.637  0.00  0.00    +0.000 A 
ATOM      9  C   UNL     1       2.296   7.021  19.926  0.00  0.00    +0.000 A 
ATOM     10  C   UNL     1       1.553   7.712  20.889  0.00  0.00    +0.000 A 
ATOM     11  C   UNL     1       0.935   8.933  20.591  0.00  0.00    +0.000 A 
BRANCH   6  12
ATOM     12  C   UNL     1       0.336  10.813  18.983  0.00  0.00    +0.000 C 
BRANCH  12  13
ATOM     13  N   UNL     1      -0.416  10.778  17.757  0.00  0.00    +0.000 NA
ATOM     14  H   UNL     1       0.096  11.261  17.030  0.00  0.00    +0.000 HD
ATOM     15  H   UNL     1      -1.295  11.264  17.899  0.00  0.00    +0.000 HD
ENDBRANCH  12  13
BRANCH  12  16
ATOM     16  N   UNL     1      -0.654  11.189  19.953  0.00  0.00    +0.000 NA
ATOM     17  H   UNL     1      -1.365  10.465  19.995  0.00  0.00    +0.000 HD
ATOM     18  H   UNL     1      -1.102  12.051  19.671  0.00  0.00    +0.000 HD
ENDBRANCH  12  16
ENDBRANCH   6  12
ENDBRANCH   4   9
ENDBRANCH   3   4
ENDBRANCH   2   3
ENDBRANCH   1   2
BRANCH   1  19
ATOM     19  C   UNL     1       2.228   2.100  19.708  0.00  0.00    +0.000 C 
BRANCH  19  20
ATOM     20  C   UNL     1       3.499   1.843  18.899  0.00  0.00    +0.000 C 
BRANCH  20  21
ATOM     21  N   UNL     1       3.525   2.712  17.731  0.00  0.00    +0.000 N 
ATOM     22  H   UNL     1       3.668   2.204  16.862  0.00  0.00    +0.000 HD
BRANCH  21  23
ATOM     23  C   UNL     1       4.332   3.856  17.793  0.00  0.00    +0.000 A 
ATOM     24  C   UNL     1       5.286   3.946  18.810  0.00  0.00    +0.000 A 
ATOM     25  C   UNL     1       6.176   5.024  18.878  0.00  0.00    +0.000 A 
ATOM     26  C   UNL     1       6.178   6.029  17.898  0.00  0.00    +0.000 A 
ATOM     27  C   UNL     1       5.225   5.937  16.876  0.00  0.00    +0.000 A 
ATOM     28  C   UNL     1       4.332   4.858  16.815  0.00  0.00    +0.000 A 
BRANCH  26  29
ATOM     29  C   UNL     1       7.195   7.148  17.975  0.00  0.00    +0.000 C 
BRANCH  29  30
ATOM     30  N   UNL     1       8.279   6.832  18.870  0.00  0.00    +0.000 NA
ATOM     31  H   UNL     1       8.203   7.446  19.679  0.00  0.00    +0.000 HD
ATOM     32  H   UNL     1       9.153   7.103  18.423  0.00  0.00    +0.000 HD
ENDBRANCH  29  30
BRANCH  29  33
ATOM     33  N   UNL     1       7.915   7.406  16.758  0.00  0.00    +0.000 NA
ATOM     34  H   UNL     1       8.593   6.658  16.641  0.00  0.00    +0.000 HD
ATOM     35  H   UNL     1       8.486   8.225  16.955  0.00  0.00    +0.000 HD
ENDBRANCH  29  33
ENDBRANCH  26  29
ENDBRANCH  21  23
ENDBRANCH  20  21
ENDBRANCH  19  20
ENDBRANCH   1  19
TORSDOF 14
ENDMDL
MODEL 9
REMARK VINA RESULT:      -6.6      1.156      2.135
REMARK  Name = 
REMARK  14 active torsions:
REMARK  status: ('A' for Active; 'I' for Inactive)
REMARK    1  A    between atoms: N_1  and  C_2
REMARK    2  A    between atoms: C_2  and  N_3
REMARK    3  A    between atoms: C_2  and  C_4
REMARK    4  A    between atoms: C_7  and  N_8
REMARK    5  A    between atoms: N_8  and  C_9
REMARK    6  A    between atoms: C_9  and  C_10
REMARK    7  A    between atoms: C_10  and  C_11
REMARK    8  A    between atoms: C_11  and  C_12
REMARK    9  A    between atoms: C_12  and  C_13
REMARK   10  A    between atoms: C_13  and  N_14
REMARK   11  A    between atoms: N_14  and  C_15
REMARK   12  A    between atoms: C_18  and  C_19
REMARK   13  A    between atoms: C_19  and  N_20
REMARK   14  A    between atoms: C_19  and  N_21
REMARK                            x       y       z     vdW  Elec       q    Type
REMARK                         _______ _______ _______ _____ _____    ______ ____
ROOT
ATOM      1  C   UNL     1       0.561   3.437  20.161  0.00  0.00    +0.000 C 
ENDROOT
BRANCH   1   2
ATOM      2  C   UNL     1       1.180   4.768  19.720  0.00  0.00    +0.000 C 
BRANCH   2   3
ATOM      3  C   UNL     1       2.153   5.332  20.760  0.00  0.00    +0.000 C 
BRANCH   3   4
ATOM      4  N   UNL     1       2.904   6.439  20.181  0.00  0.00    +0.000 N 
ATOM      5  H   UNL     1       3.742   6.662  20.713  0.00  0.00    +0.000 HD
BRANCH   4   9
ATOM      6  C   UNL     1       0.622   9.855  19.080  0.00  0.00    +0.000 A 
ATOM      7  C   UNL     1       1.442   9.181  18.163  0.00  0.00    +0.000 A 
ATOM      8  C   UNL     1       2.187   8.060  18.546  0.00  0.00    +0.000 A 
ATOM      9  C   UNL     1       2.183   7.601  19.868  0.00  0.00    +0.000 A 
ATOM     10  C   UNL     1       1.356   8.265  20.781  0.00  0.00    +0.000 A 
ATOM     11  C   UNL     1       0.608   9.385  20.401  0.00  0.00    +0.000 A 
BRANCH   6  12
ATOM     12  C   UNL     1      -0.182  11.077  18.671  0.00  0.00    +0.000 C 
BRANCH  12  13
ATOM     13  N   UNL     1       0.642  12.132  18.143  0.00  0.00    +0.000 NA
ATOM     14  H   UNL     1       0.742  12.016  17.142  0.00  0.00    +0.000 HD
ATOM     15  H   UNL     1       1.563  12.068  18.561  0.00  0.00    +0.000 HD
ENDBRANCH  12  13
BRANCH  12  16
ATOM     16  N   UNL     1      -1.088  10.810  17.588  0.00  0.00    +0.000 NA
ATOM     17  H   UNL     1      -1.431   9.858  17.674  0.00  0.00    +0.000 HD
ATOM     18  H   UNL     1      -0.601  10.889  16.705  0.00  0.00    +0.000 HD
ENDBRANCH  12  16
ENDBRANCH   6  12
ENDBRANCH   4   9
ENDBRANCH   3   4
ENDBRANCH   2   3
ENDBRANCH   1   2
BRANCH   1  19
ATOM     19  C   UNL     1       1.533   2.253  20.209  0.00  0.00    +0.000 C 
BRANCH  19  20
ATOM     20  C   UNL     1       1.788   1.651  18.828  0.00  0.00    +0.000 C 
BRANCH  20  21
ATOM     21  N   UNL     1       3.221   1.537  18.596  0.00  0.00    +0.000 N 
ATOM     22  H   UNL     1       3.694   0.989  19.309  0.00  0.00    +0.000 HD
BRANCH  21  23
ATOM     23  C   UNL     1       3.925   2.712  18.301  0.00  0.00    +0.000 A 
ATOM     24  C   UNL     1       3.581   3.425  17.149  0.00  0.00    +0.000 A 
ATOM     25  C   UNL     1       4.190   4.647  16.843  0.00  0.00    +0.000 A 
ATOM     26  C   UNL     1       5.131   5.228  17.707  0.00  0.00    +0.000 A 
ATOM     27  C   UNL     1       5.471   4.517  18.865  0.00  0.00    +0.000 A 
ATOM     28  C   UNL     1       4.863   3.291  19.165  0.00  0.00    +0.000 A 
BRANCH  26  29
ATOM     29  C   UNL     1       5.724   6.580  17.369  0.00  0.00    +0.000 C 
BRANCH  29  30
ATOM     30  N   UNL     1       7.108   6.675  17.758  0.00  0.00    +0.000 NA
ATOM     31  H   UNL     1       7.676   6.432  16.947  0.00  0.00    +0.000 HD
ATOM     32  H   UNL     1       7.302   5.940  18.436  0.00  0.00    +0.000 HD
ENDBRANCH  29  30
BRANCH  29  33
ATOM     33  N   UNL     1       5.816   6.876  15.966  0.00  0.00    +0.000 NA
ATOM     34  H   UNL     1       4.887   7.137  15.648  0.00  0.00    +0.000 HD
ATOM     35  H   UNL     1       5.985   5.979  15.515  0.00  0.00    +0.000 HD
ENDBRANCH  29  33
ENDBRANCH  26  29
ENDBRANCH  21  23
ENDBRANCH  20  21
ENDBRANCH  19  20
ENDBRANCH   1  19
TORSDOF 14
ENDMDL
