MODEL 1
REMARK VINA RESULT:      -7.2      0.000      0.000
REMARK  Name = 
REMARK  7 active torsions:
REMARK  status: ('A' for Active; 'I' for Inactive)
REMARK    1  A    between atoms: C_1  and  O_2
REMARK    2  A    between atoms: O_2  and  C_3
REMARK    3  A    between atoms: C_12  and  C_14
REMARK    4  A    between atoms: C_21  and  O_22
REMARK    5  A    between atoms: O_22  and  C_23
REMARK    6  A    between atoms: C_33  and  O_34
REMARK    7  A    between atoms: O_34  and  C_35
REMARK                            x       y       z     vdW  Elec       q    Type
REMARK                         _______ _______ _______ _____ _____    ______ ____
ROOT
ATOM      1  C   UNL     1      -2.992  12.897  22.932  0.00  0.00    +0.000 A 
ATOM      2  C   UNL     1      -1.628  12.924  22.621  0.00  0.00    +0.000 A 
ATOM      3  C   UNL     1      -1.169  12.800  21.322  0.00  0.00    +0.000 A 
ATOM      4  N   UNL     1       0.140  12.910  21.101  0.00  0.00    +0.000 NA
ATOM      5  C   UNL     1       0.607  12.816  19.848  0.00  0.00    +0.000 A 
ATOM      6  N   UNL     1       1.965  12.924  19.659  0.00  0.00    +0.000 N 
ATOM      7  C   UNL     1       2.545  12.873  18.311  0.00  0.00    +0.000 C 
ATOM      8  C   UNL     1       3.108  14.246  17.887  0.00  0.00    +0.000 C 
ATOM      9  N   UNL     1       3.959  14.840  18.931  0.00  0.00    +0.000 N 
ATOM     10  C   UNL     1       5.327  14.986  18.709  0.00  0.00    +0.000 C 
ATOM     11  O   UNL     1       5.823  14.657  17.627  0.00  0.00    +0.000 OA
ATOM     12  C   UNL     1       3.265  14.951  20.221  0.00  0.00    +0.000 C 
ATOM     13  C   UNL     1       2.793  13.559  20.699  0.00  0.00    +0.000 C 
ATOM     14  N   UNL     1      -0.204  12.594  18.804  0.00  0.00    +0.000 NA
ATOM     15  C   UNL     1      -1.520  12.471  19.036  0.00  0.00    +0.000 A 
ATOM     16  N   UNL     1      -2.317  12.254  17.901  0.00  0.00    +0.000 N 
ATOM     17  C   UNL     1      -2.092  12.583  20.305  0.00  0.00    +0.000 A 
ATOM     18  C   UNL     1      -3.477  12.507  20.607  0.00  0.00    +0.000 A 
ATOM     19  C   UNL     1      -3.932  12.659  21.918  0.00  0.00    +0.000 A 
ATOM     20  H   UNL     1      -1.680  12.173  17.111  0.00  0.00    +0.000 HD
ATOM     21  H   UNL     1      -2.885  11.427  18.002  0.00  0.00    +0.000 HD
ENDROOT
BRANCH  10  22
ATOM     22  C   UNL     1       6.187  15.716  19.780  0.00  0.00    +0.000 C 
ATOM     23  C   UNL     1       6.268  17.225  19.537  0.00  0.00    +0.000 C 
ATOM     24  O   UNL     1       7.206  17.589  18.521  0.00  0.00    +0.000 OA
ATOM     25  C   UNL     1       8.365  16.866  18.591  0.00  0.00    +0.000 A 
ATOM     26  C   UNL     1       9.429  17.350  17.825  0.00  0.00    +0.000 A 
ATOM     27  C   UNL     1      10.640  16.664  17.804  0.00  0.00    +0.000 A 
ATOM     28  C   UNL     1      10.790  15.502  18.561  0.00  0.00    +0.000 A 
ATOM     29  C   UNL     1       9.737  15.025  19.352  0.00  0.00    +0.000 A 
ATOM     30  C   UNL     1       8.504  15.696  19.344  0.00  0.00    +0.000 A 
ATOM     31  O   UNL     1       7.467  15.169  20.060  0.00  0.00    +0.000 OA
BRANCH  29  32
ATOM     32  O   UNL     1      10.012  13.849  20.001  0.00  0.00    +0.000 OA
ATOM     33  C   UNL     1       9.853  12.661  19.231  0.00  0.00    +0.000 C 
ENDBRANCH  29  32
ENDBRANCH  10  22
BRANCH   1  35
ATOM     34  C   UNL     1      -3.267  14.383  24.743  0.00  0.00    +0.000 C 
ATOM     35  O   UNL     1      -3.456  13.071  24.214  0.00  0.00    +0.000 OA
ENDBRANCH   1  35
BRANCH  19  36
ATOM     36  O   UNL     1      -5.247  12.613  22.296  0.00  0.00    +0.000 OA
ATOM     37  C   UNL     1      -6.206  12.257  21.307  0.00  0.00    +0.000 C 
ENDBRANCH  19  36
TORSDOF 4
ENDMDL
MODEL 2
REMARK VINA RESULT:      -7.2      6.354     10.852
REMARK  Name = 
REMARK  7 active torsions:
REMARK  status: ('A' for Active; 'I' for Inactive)
REMARK    1  A    between atoms: C_1  and  O_2
REMARK    2  A    between atoms: O_2  and  C_3
REMARK    3  A    between atoms: C_12  and  C_14
REMARK    4  A    between atoms: C_21  and  O_22
REMARK    5  A    between atoms: O_22  and  C_23
REMARK    6  A    between atoms: C_33  and  O_34
REMARK    7  A    between atoms: O_34  and  C_35
REMARK                            x       y       z     vdW  Elec       q    Type
REMARK                         _______ _______ _______ _____ _____    ______ ____
ROOT
ATOM      1  C   UNL     1       4.841   6.463  17.080  0.00  0.00    +0.000 A 
ATOM      2  C   UNL     1       3.782   7.294  17.465  0.00  0.00    +0.000 A 
ATOM      3  C   UNL     1       3.030   7.046  18.599  0.00  0.00    +0.000 A 
ATOM      4  N   UNL     1       2.088   7.925  18.937  0.00  0.00    +0.000 NA
ATOM      5  C   UNL     1       1.361   7.719  20.044  0.00  0.00    +0.000 A 
ATOM      6  N   UNL     1       0.391   8.641  20.356  0.00  0.00    +0.000 N 
ATOM      7  C   UNL     1      -0.417   8.503  21.575  0.00  0.00    +0.000 C 
ATOM      8  C   UNL     1      -0.069   9.597  22.608  0.00  0.00    +0.000 C 
ATOM      9  N   UNL     1      -0.041  10.938  22.002  0.00  0.00    +0.000 N 
ATOM     10  C   UNL     1      -1.004  11.880  22.362  0.00  0.00    +0.000 C 
ATOM     11  O   UNL     1      -1.857  11.607  23.214  0.00  0.00    +0.000 OA
ATOM     12  C   UNL     1       0.872  11.014  20.855  0.00  0.00    +0.000 C 
ATOM     13  C   UNL     1       0.459   9.992  19.772  0.00  0.00    +0.000 C 
ATOM     14  N   UNL     1       1.540   6.639  20.818  0.00  0.00    +0.000 NA
ATOM     15  C   UNL     1       2.482   5.751  20.464  0.00  0.00    +0.000 A 
ATOM     16  N   UNL     1       2.629   4.650  21.323  0.00  0.00    +0.000 N 
ATOM     17  C   UNL     1       3.301   5.904  19.343  0.00  0.00    +0.000 A 
ATOM     18  C   UNL     1       4.342   5.024  18.943  0.00  0.00    +0.000 A 
ATOM     19  C   UNL     1       5.111   5.297  17.812  0.00  0.00    +0.000 A 
ATOM     20  H   UNL     1       1.908   4.740  22.035  0.00  0.00    +0.000 HD
ATOM     21  H   UNL     1       2.547   3.779  20.822  0.00  0.00    +0.000 HD
ENDROOT
BRANCH  10  22
ATOM     22  C   UNL     1      -0.890  13.323  21.795  0.00  0.00    +0.000 C 
ATOM     23  C   UNL     1      -0.065  14.244  22.698  0.00  0.00    +0.000 C 
ATOM     24  O   UNL     1      -0.791  14.734  23.828  0.00  0.00    +0.000 OA
ATOM     25  C   UNL     1      -2.075  15.090  23.515  0.00  0.00    +0.000 A 
ATOM     26  C   UNL     1      -2.752  15.834  24.484  0.00  0.00    +0.000 A 
ATOM     27  C   UNL     1      -4.074  16.215  24.272  0.00  0.00    +0.000 A 
ATOM     28  C   UNL     1      -4.712  15.862  23.084  0.00  0.00    +0.000 A 
ATOM     29  C   UNL     1      -4.033  15.138  22.096  0.00  0.00    +0.000 A 
ATOM     30  C   UNL     1      -2.712  14.723  22.325  0.00  0.00    +0.000 A 
ATOM     31  O   UNL     1      -2.096  13.951  21.383  0.00  0.00    +0.000 OA
BRANCH  29  32
ATOM     32  O   UNL     1      -4.802  14.821  21.005  0.00  0.00    +0.000 OA
ATOM     33  C   UNL     1      -5.677  13.709  21.163  0.00  0.00    +0.000 C 
ENDBRANCH  29  32
ENDBRANCH  10  22
BRANCH   1  35
ATOM     34  C   UNL     1       5.404   5.870  14.867  0.00  0.00    +0.000 C 
ATOM     35  O   UNL     1       5.624   6.733  15.983  0.00  0.00    +0.000 OA
ENDBRANCH   1  35
BRANCH  19  36
ATOM     36  O   UNL     1       6.140   4.513  17.361  0.00  0.00    +0.000 OA
ATOM     37  C   UNL     1       7.437   4.756  17.895  0.00  0.00    +0.000 C 
ENDBRANCH  19  36
TORSDOF 4
ENDMDL
MODEL 3
REMARK VINA RESULT:      -7.1      6.108     10.224
REMARK  Name = 
REMARK  7 active torsions:
REMARK  status: ('A' for Active; 'I' for Inactive)
REMARK    1  A    between atoms: C_1  and  O_2
REMARK    2  A    between atoms: O_2  and  C_3
REMARK    3  A    between atoms: C_12  and  C_14
REMARK    4  A    between atoms: C_21  and  O_22
REMARK    5  A    between atoms: O_22  and  C_23
REMARK    6  A    between atoms: C_33  and  O_34
REMARK    7  A    between atoms: O_34  and  C_35
REMARK                            x       y       z     vdW  Elec       q    Type
REMARK                         _______ _______ _______ _____ _____    ______ ____
ROOT
ATOM      1  C   UNL     1       2.785   4.047  20.352  0.00  0.00    +0.000 A 
ATOM      2  C   UNL     1       2.311   5.309  20.727  0.00  0.00    +0.000 A 
ATOM      3  C   UNL     1       2.397   6.404  19.886  0.00  0.00    +0.000 A 
ATOM      4  N   UNL     1       1.857   7.553  20.288  0.00  0.00    +0.000 NA
ATOM      5  C   UNL     1       1.907   8.622  19.481  0.00  0.00    +0.000 A 
ATOM      6  N   UNL     1       1.348   9.794  19.933  0.00  0.00    +0.000 N 
ATOM      7  C   UNL     1       1.329  10.996  19.088  0.00  0.00    +0.000 C 
ATOM      8  C   UNL     1      -0.104  11.338  18.627  0.00  0.00    +0.000 C 
ATOM      9  N   UNL     1      -1.062  11.322  19.745  0.00  0.00    +0.000 N 
ATOM     10  C   UNL     1      -1.657  12.511  20.164  0.00  0.00    +0.000 C 
ATOM     11  O   UNL     1      -1.414  13.571  19.577  0.00  0.00    +0.000 OA
ATOM     12  C   UNL     1      -1.052  10.045  20.470  0.00  0.00    +0.000 C 
ATOM     13  C   UNL     1       0.360   9.753  21.025  0.00  0.00    +0.000 C 
ATOM     14  N   UNL     1       2.505   8.578  18.281  0.00  0.00    +0.000 NA
ATOM     15  C   UNL     1       3.059   7.421  17.890  0.00  0.00    +0.000 A 
ATOM     16  N   UNL     1       3.656   7.435  16.619  0.00  0.00    +0.000 N 
ATOM     17  C   UNL     1       3.026   6.253  18.655  0.00  0.00    +0.000 A 
ATOM     18  C   UNL     1       3.554   4.990  18.277  0.00  0.00    +0.000 A 
ATOM     19  C   UNL     1       3.439   3.886  19.122  0.00  0.00    +0.000 A 
ATOM     20  H   UNL     1       3.588   8.392  16.278  0.00  0.00    +0.000 HD
ATOM     21  H   UNL     1       4.616   7.126  16.659  0.00  0.00    +0.000 HD
ENDROOT
BRANCH  10  22
ATOM     22  C   UNL     1      -2.747  12.455  21.271  0.00  0.00    +0.000 C 
ATOM     23  C   UNL     1      -4.136  12.823  20.745  0.00  0.00    +0.000 C 
ATOM     24  O   UNL     1      -4.337  14.232  20.604  0.00  0.00    +0.000 OA
ATOM     25  C   UNL     1      -3.814  14.945  21.648  0.00  0.00    +0.000 A 
ATOM     26  C   UNL     1      -4.210  16.282  21.728  0.00  0.00    +0.000 A 
ATOM     27  C   UNL     1      -3.705  17.099  22.736  0.00  0.00    +0.000 A 
ATOM     28  C   UNL     1      -2.813  16.572  23.670  0.00  0.00    +0.000 A 
ATOM     29  C   UNL     1      -2.430  15.226  23.611  0.00  0.00    +0.000 A 
ATOM     30  C   UNL     1      -2.911  14.413  22.574  0.00  0.00    +0.000 A 
ATOM     31  O   UNL     1      -2.462  13.126  22.490  0.00  0.00    +0.000 OA
BRANCH  29  32
ATOM     32  O   UNL     1      -1.511  14.864  24.563  0.00  0.00    +0.000 OA
ATOM     33  C   UNL     1      -1.706  15.419  25.860  0.00  0.00    +0.000 C 
ENDBRANCH  29  32
ENDBRANCH  10  22
BRANCH   1  35
ATOM     34  C   UNL     1       1.329   2.700  21.630  0.00  0.00    +0.000 C 
ATOM     35  O   UNL     1       2.656   2.944  21.163  0.00  0.00    +0.000 OA
ENDBRANCH   1  35
BRANCH  19  36
ATOM     36  O   UNL     1       3.906   2.632  18.832  0.00  0.00    +0.000 OA
ATOM     37  C   UNL     1       3.131   1.827  17.951  0.00  0.00    +0.000 C 
ENDBRANCH  19  36
TORSDOF 4
ENDMDL
MODEL 4
REMARK VINA RESULT:      -7.1      1.347      1.783
REMARK  Name = 
REMARK  7 active torsions:
REMARK  status: ('A' for Active; 'I' for Inactive)
REMARK    1  A    between atoms: C_1  and  O_2
REMARK    2  A    between atoms: O_2  and  C_3
REMARK    3  A    between atoms: C_12  and  C_14
REMARK    4  A    between atoms: C_21  and  O_22
REMARK    5  A    between atoms: O_22  and  C_23
REMARK    6  A    between atoms: C_33  and  O_34
REMARK    7  A    between atoms: O_34  and  C_35
REMARK                            x       y       z     vdW  Elec       q    Type
REMARK                         _______ _______ _______ _____ _____    ______ ____
ROOT
ATOM      1  C   UNL     1      -3.150  12.836  22.849  0.00  0.00    +0.000 A 
ATOM      2  C   UNL     1      -1.779  12.842  22.570  0.00  0.00    +0.000 A 
ATOM      3  C   UNL     1      -1.292  12.729  21.279  0.00  0.00    +0.000 A 
ATOM      4  N   UNL     1       0.023  12.818  21.091  0.00  0.00    +0.000 NA
ATOM      5  C   UNL     1       0.517  12.734  19.848  0.00  0.00    +0.000 A 
ATOM      6  N   UNL     1       1.880  12.820  19.691  0.00  0.00    +0.000 N 
ATOM      7  C   UNL     1       2.490  12.778  18.356  0.00  0.00    +0.000 C 
ATOM      8  C   UNL     1       3.088  14.147  17.966  0.00  0.00    +0.000 C 
ATOM      9  N   UNL     1       3.925  14.709  19.039  0.00  0.00    +0.000 N 
ATOM     10  C   UNL     1       5.301  14.833  18.850  0.00  0.00    +0.000 C 
ATOM     11  O   UNL     1       5.815  14.511  17.774  0.00  0.00    +0.000 OA
ATOM     12  C   UNL     1       3.204  14.814  20.313  0.00  0.00    +0.000 C 
ATOM     13  C   UNL     1       2.696  13.424  20.759  0.00  0.00    +0.000 C 
ATOM     14  N   UNL     1      -0.274  12.543  18.782  0.00  0.00    +0.000 NA
ATOM     15  C   UNL     1      -1.596  12.441  18.982  0.00  0.00    +0.000 A 
ATOM     16  N   UNL     1      -2.371  12.256  17.825  0.00  0.00    +0.000 N 
ATOM     17  C   UNL     1      -2.195  12.545  20.239  0.00  0.00    +0.000 A 
ATOM     18  C   UNL     1      -3.589  12.490  20.508  0.00  0.00    +0.000 A 
ATOM     19  C   UNL     1      -4.071  12.631  21.810  0.00  0.00    +0.000 A 
ATOM     20  H   UNL     1      -1.717  12.175  17.050  0.00  0.00    +0.000 HD
ATOM     21  H   UNL     1      -2.956  11.438  17.901  0.00  0.00    +0.000 HD
ENDROOT
BRANCH  10  22
ATOM     22  C   UNL     1       6.149  15.531  19.951  0.00  0.00    +0.000 C 
ATOM     23  C   UNL     1       7.191  16.489  19.369  0.00  0.00    +0.000 C 
ATOM     24  O   UNL     1       8.359  15.827  18.874  0.00  0.00    +0.000 OA
ATOM     25  C   UNL     1       8.775  14.812  19.691  0.00  0.00    +0.000 A 
ATOM     26  C   UNL     1      10.052  14.310  19.432  0.00  0.00    +0.000 A 
ATOM     27  C   UNL     1      10.552  13.253  20.188  0.00  0.00    +0.000 A 
ATOM     28  C   UNL     1       9.777  12.710  21.212  0.00  0.00    +0.000 A 
ATOM     29  C   UNL     1       8.506  13.225  21.495  0.00  0.00    +0.000 A 
ATOM     30  C   UNL     1       7.988  14.266  20.709  0.00  0.00    +0.000 A 
ATOM     31  O   UNL     1       6.716  14.698  20.952  0.00  0.00    +0.000 OA
BRANCH  29  32
ATOM     32  O   UNL     1       7.841  12.559  22.494  0.00  0.00    +0.000 OA
ATOM     33  C   UNL     1       8.209  12.907  23.825  0.00  0.00    +0.000 C 
ENDBRANCH  29  32
ENDBRANCH  10  22
BRANCH   1  35
ATOM     34  C   UNL     1      -3.414  14.291  24.687  0.00  0.00    +0.000 C 
ATOM     35  O   UNL     1      -3.640  12.999  24.123  0.00  0.00    +0.000 OA
ENDBRANCH   1  35
BRANCH  19  36
ATOM     36  O   UNL     1      -5.395  12.603  22.158  0.00  0.00    +0.000 OA
ATOM     37  C   UNL     1      -6.230  13.641  21.656  0.00  0.00    +0.000 C 
ENDBRANCH  19  36
TORSDOF 4
ENDMDL
MODEL 5
REMARK VINA RESULT:      -6.9      1.606      2.107
REMARK  Name = 
REMARK  7 active torsions:
REMARK  status: ('A' for Active; 'I' for Inactive)
REMARK    1  A    between atoms: C_1  and  O_2
REMARK    2  A    between atoms: O_2  and  C_3
REMARK    3  A    between atoms: C_12  and  C_14
REMARK    4  A    between atoms: C_21  and  O_22
REMARK    5  A    between atoms: O_22  and  C_23
REMARK    6  A    between atoms: C_33  and  O_34
REMARK    7  A    between atoms: O_34  and  C_35
REMARK                            x       y       z     vdW  Elec       q    Type
REMARK                         _______ _______ _______ _____ _____    ______ ____
ROOT
ATOM      1  C   UNL     1      -2.312  14.432  24.182  0.00  0.00    +0.000 A 
ATOM      2  C   UNL     1      -1.008  14.266  23.701  0.00  0.00    +0.000 A 
ATOM      3  C   UNL     1      -0.751  13.864  22.403  0.00  0.00    +0.000 A 
ATOM      4  N   UNL     1       0.517  13.801  22.001  0.00  0.00    +0.000 NA
ATOM      5  C   UNL     1       0.791  13.437  20.741  0.00  0.00    +0.000 A 
ATOM      6  N   UNL     1       2.112  13.372  20.364  0.00  0.00    +0.000 N 
ATOM      7  C   UNL     1       2.487  13.021  18.988  0.00  0.00    +0.000 C 
ATOM      8  C   UNL     1       3.084  14.232  18.239  0.00  0.00    +0.000 C 
ATOM      9  N   UNL     1       4.118  14.916  19.034  0.00  0.00    +0.000 N 
ATOM     10  C   UNL     1       5.447  14.882  18.615  0.00  0.00    +0.000 C 
ATOM     11  O   UNL     1       5.756  14.315  17.563  0.00  0.00    +0.000 OA
ATOM     12  C   UNL     1       3.626  15.327  20.355  0.00  0.00    +0.000 C 
ATOM     13  C   UNL     1       3.126  14.098  21.148  0.00  0.00    +0.000 C 
ATOM     14  N   UNL     1      -0.176  13.112  19.870  0.00  0.00    +0.000 NA
ATOM     15  C   UNL     1      -1.450  13.165  20.287  0.00  0.00    +0.000 A 
ATOM     16  N   UNL     1      -2.416  12.827  19.325  0.00  0.00    +0.000 N 
ATOM     17  C   UNL     1      -1.824  13.561  21.573  0.00  0.00    +0.000 A 
ATOM     18  C   UNL     1      -3.154  13.680  22.057  0.00  0.00    +0.000 A 
ATOM     19  C   UNL     1      -3.403  14.110  23.361  0.00  0.00    +0.000 A 
ATOM     20  H   UNL     1      -1.906  12.542  18.492  0.00  0.00    +0.000 HD
ATOM     21  H   UNL     1      -3.024  12.093  19.655  0.00  0.00    +0.000 HD
ENDROOT
BRANCH  10  22
ATOM     22  C   UNL     1       6.504  15.703  19.407  0.00  0.00    +0.000 C 
ATOM     23  C   UNL     1       7.567  16.324  18.497  0.00  0.00    +0.000 C 
ATOM     24  O   UNL     1       8.577  15.397  18.089  0.00  0.00    +0.000 OA
ATOM     25  C   UNL     1       8.975  14.570  19.104  0.00  0.00    +0.000 A 
ATOM     26  C   UNL     1      10.142  13.839  18.870  0.00  0.00    +0.000 A 
ATOM     27  C   UNL     1      10.608  12.945  19.829  0.00  0.00    +0.000 A 
ATOM     28  C   UNL     1       9.913  12.795  21.029  0.00  0.00    +0.000 A 
ATOM     29  C   UNL     1       8.756  13.542  21.282  0.00  0.00    +0.000 A 
ATOM     30  C   UNL     1       8.266  14.416  20.300  0.00  0.00    +0.000 A 
ATOM     31  O   UNL     1       7.094  15.075  20.536  0.00  0.00    +0.000 OA
BRANCH  29  32
ATOM     32  O   UNL     1       8.153  13.252  22.480  0.00  0.00    +0.000 OA
ATOM     33  C   UNL     1       7.834  11.882  22.700  0.00  0.00    +0.000 C 
ENDBRANCH  29  32
ENDBRANCH  10  22
BRANCH   1  35
ATOM     34  C   UNL     1      -1.544  15.689  26.025  0.00  0.00    +0.000 C 
ATOM     35  O   UNL     1      -2.573  14.880  25.456  0.00  0.00    +0.000 OA
ENDBRANCH   1  35
BRANCH  19  36
ATOM     36  O   UNL     1      -4.650  14.265  23.905  0.00  0.00    +0.000 OA
ATOM     37  C   UNL     1      -5.645  13.309  23.556  0.00  0.00    +0.000 C 
ENDBRANCH  19  36
TORSDOF 4
ENDMDL
MODEL 6
REMARK VINA RESULT:      -6.9      6.182     10.416
REMARK  Name = 
REMARK  7 active torsions:
REMARK  status: ('A' for Active; 'I' for Inactive)
REMARK    1  A    between atoms: C_1  and  O_2
REMARK    2  A    between atoms: O_2  and  C_3
REMARK    3  A    between atoms: C_12  and  C_14
REMARK    4  A    between atoms: C_21  and  O_22
REMARK    5  A    between atoms: O_22  and  C_23
REMARK    6  A    between atoms: C_33  and  O_34
REMARK    7  A    between atoms: O_34  and  C_35
REMARK                            x       y       z     vdW  Elec       q    Type
REMARK                         _______ _______ _______ _____ _____    ______ ____
ROOT
ATOM      1  C   UNL     1       1.704   3.938  20.037  0.00  0.00    +0.000 A 
ATOM      2  C   UNL     1       1.419   5.129  20.714  0.00  0.00    +0.000 A 
ATOM      3  C   UNL     1       1.664   6.369  20.152  0.00  0.00    +0.000 A 
ATOM      4  N   UNL     1       1.296   7.454  20.831  0.00  0.00    +0.000 NA
ATOM      5  C   UNL     1       1.502   8.666  20.297  0.00  0.00    +0.000 A 
ATOM      6  N   UNL     1       1.119   9.764  21.031  0.00  0.00    +0.000 N 
ATOM      7  C   UNL     1       1.276  11.122  20.494  0.00  0.00    +0.000 C 
ATOM      8  C   UNL     1      -0.091  11.763  20.173  0.00  0.00    +0.000 C 
ATOM      9  N   UNL     1      -1.043  11.617  21.287  0.00  0.00    +0.000 N 
ATOM     10  C   UNL     1      -1.459  12.745  21.994  0.00  0.00    +0.000 C 
ATOM     11  O   UNL     1      -1.064  13.868  21.666  0.00  0.00    +0.000 OA
ATOM     12  C   UNL     1      -1.220  10.217  21.691  0.00  0.00    +0.000 C 
ATOM     13  C   UNL     1       0.134   9.605  22.114  0.00  0.00    +0.000 C 
ATOM     14  N   UNL     1       2.090   8.824  19.102  0.00  0.00    +0.000 NA
ATOM     15  C   UNL     1       2.470   7.727  18.431  0.00  0.00    +0.000 A 
ATOM     16  N   UNL     1       3.065   7.958  17.180  0.00  0.00    +0.000 N 
ATOM     17  C   UNL     1       2.267   6.427  18.900  0.00  0.00    +0.000 A 
ATOM     18  C   UNL     1       2.606   5.229  18.218  0.00  0.00    +0.000 A 
ATOM     19  C   UNL     1       2.330   3.983  18.782  0.00  0.00    +0.000 A 
ATOM     20  H   UNL     1       3.137   8.968  17.077  0.00  0.00    +0.000 HD
ATOM     21  H   UNL     1       3.969   7.516  17.115  0.00  0.00    +0.000 HD
ENDROOT
BRANCH  10  22
ATOM     22  C   UNL     1      -2.547  12.582  23.092  0.00  0.00    +0.000 C 
ATOM     23  C   UNL     1      -3.968  12.661  22.526  0.00  0.00    +0.000 C 
ATOM     24  O   UNL     1      -4.406  13.999  22.275  0.00  0.00    +0.000 OA
ATOM     25  C   UNL     1      -4.038  14.869  23.265  0.00  0.00    +0.000 A 
ATOM     26  C   UNL     1      -4.663  16.118  23.238  0.00  0.00    +0.000 A 
ATOM     27  C   UNL     1      -4.330  17.083  24.184  0.00  0.00    +0.000 A 
ATOM     28  C   UNL     1      -3.381  16.792  25.165  0.00  0.00    +0.000 A 
ATOM     29  C   UNL     1      -2.769  15.533  25.214  0.00  0.00    +0.000 A 
ATOM     30  C   UNL     1      -3.078  14.573  24.238  0.00  0.00    +0.000 A 
ATOM     31  O   UNL     1      -2.411  13.382  24.258  0.00  0.00    +0.000 OA
BRANCH  29  32
ATOM     32  O   UNL     1      -1.823  15.408  26.199  0.00  0.00    +0.000 OA
ATOM     33  C   UNL     1      -0.910  16.494  26.326  0.00  0.00    +0.000 C 
ENDBRANCH  29  32
ENDBRANCH  10  22
BRANCH   1  35
ATOM     34  C   UNL     1       1.784   2.544  21.939  0.00  0.00    +0.000 C 
ATOM     35  O   UNL     1       1.415   2.703  20.569  0.00  0.00    +0.000 OA
ENDBRANCH   1  35
BRANCH  19  36
ATOM     36  O   UNL     1       2.610   2.781  18.190  0.00  0.00    +0.000 OA
ATOM     37  C   UNL     1       3.951   2.547  17.774  0.00  0.00    +0.000 C 
ENDBRANCH  19  36
TORSDOF 4
ENDMDL
MODEL 7
REMARK VINA RESULT:      -6.8      2.866      4.645
REMARK  Name = 
REMARK  7 active torsions:
REMARK  status: ('A' for Active; 'I' for Inactive)
REMARK    1  A    between atoms: C_1  and  O_2
REMARK    2  A    between atoms: O_2  and  C_3
REMARK    3  A    between atoms: C_12  and  C_14
REMARK    4  A    between atoms: C_21  and  O_22
REMARK    5  A    between atoms: O_22  and  C_23
REMARK    6  A    between atoms: C_33  and  O_34
REMARK    7  A    between atoms: O_34  and  C_35
REMARK                            x       y       z     vdW  Elec       q    Type
REMARK                         _______ _______ _______ _____ _____    ______ ____
ROOT
ATOM      1  C   UNL     1       0.852  11.926  18.612  0.00  0.00    +0.000 A 
ATOM      2  C   UNL     1       2.169  12.392  18.534  0.00  0.00    +0.000 A 
ATOM      3  C   UNL     1       2.477  13.738  18.615  0.00  0.00    +0.000 A 
ATOM      4  N   UNL     1       3.760  14.094  18.607  0.00  0.00    +0.000 NA
ATOM      5  C   UNL     1       4.085  15.391  18.707  0.00  0.00    +0.000 A 
ATOM      6  N   UNL     1       5.419  15.722  18.685  0.00  0.00    +0.000 N 
ATOM      7  C   UNL     1       5.851  17.118  18.831  0.00  0.00    +0.000 C 
ATOM      8  C   UNL     1       6.561  17.350  20.183  0.00  0.00    +0.000 C 
ATOM      9  N   UNL     1       7.585  16.327  20.450  0.00  0.00    +0.000 N 
ATOM     10  C   UNL     1       8.932  16.685  20.471  0.00  0.00    +0.000 C 
ATOM     11  O   UNL     1       9.268  17.862  20.304  0.00  0.00    +0.000 OA
ATOM     12  C   UNL     1       7.043  14.964  20.387  0.00  0.00    +0.000 C 
ATOM     13  C   UNL     1       6.427  14.694  18.996  0.00  0.00    +0.000 C 
ATOM     14  N   UNL     1       3.152  16.350  18.796  0.00  0.00    +0.000 NA
ATOM     15  C   UNL     1       1.861  15.984  18.790  0.00  0.00    +0.000 A 
ATOM     16  N   UNL     1       0.934  17.034  18.900  0.00  0.00    +0.000 N 
ATOM     17  C   UNL     1       1.438  14.656  18.717  0.00  0.00    +0.000 A 
ATOM     18  C   UNL     1       0.092  14.204  18.751  0.00  0.00    +0.000 A 
ATOM     19  C   UNL     1      -0.207  12.843  18.695  0.00  0.00    +0.000 A 
ATOM     20  H   UNL     1       1.474  17.897  18.900  0.00  0.00    +0.000 HD
ATOM     21  H   UNL     1       0.267  17.016  18.145  0.00  0.00    +0.000 HD
ENDROOT
BRANCH  10  22
ATOM     22  C   UNL     1       9.988  15.613  20.864  0.00  0.00    +0.000 C 
ATOM     23  C   UNL     1      11.423  16.089  20.627  0.00  0.00    +0.000 C 
ATOM     24  O   UNL     1      11.832  16.005  19.259  0.00  0.00    +0.000 OA
ATOM     25  C   UNL     1      11.407  14.856  18.652  0.00  0.00    +0.000 A 
ATOM     26  C   UNL     1      11.996  14.567  17.419  0.00  0.00    +0.000 A 
ATOM     27  C   UNL     1      11.605  13.436  16.707  0.00  0.00    +0.000 A 
ATOM     28  C   UNL     1      10.633  12.588  17.238  0.00  0.00    +0.000 A 
ATOM     29  C   UNL     1      10.055  12.857  18.485  0.00  0.00    +0.000 A 
ATOM     30  C   UNL     1      10.424  14.016  19.185  0.00  0.00    +0.000 A 
ATOM     31  O   UNL     1       9.790  14.300  20.361  0.00  0.00    +0.000 OA
BRANCH  29  32
ATOM     32  O   UNL     1       9.081  11.965  18.855  0.00  0.00    +0.000 OA
ATOM     33  C   UNL     1       9.532  10.792  19.524  0.00  0.00    +0.000 C 
ENDBRANCH  29  32
ENDBRANCH  10  22
BRANCH   1  35
ATOM     34  C   UNL     1       0.740   9.904  19.822  0.00  0.00    +0.000 C 
ATOM     35  O   UNL     1       0.545  10.586  18.583  0.00  0.00    +0.000 OA
ENDBRANCH   1  35
BRANCH  19  36
ATOM     36  O   UNL     1      -1.472  12.320  18.735  0.00  0.00    +0.000 OA
ATOM     37  C   UNL     1      -2.216  12.485  19.937  0.00  0.00    +0.000 C 
ENDBRANCH  19  36
TORSDOF 4
ENDMDL
MODEL 8
REMARK VINA RESULT:      -6.8      6.360      8.205
REMARK  Name = 
REMARK  7 active torsions:
REMARK  status: ('A' for Active; 'I' for Inactive)
REMARK    1  A    between atoms: C_1  and  O_2
REMARK    2  A    between atoms: O_2  and  C_3
REMARK    3  A    between atoms: C_12  and  C_14
REMARK    4  A    between atoms: C_21  and  O_22
REMARK    5  A    between atoms: O_22  and  C_23
REMARK    6  A    between atoms: C_33  and  O_34
REMARK    7  A    between atoms: O_34  and  C_35
REMARK                            x       y       z     vdW  Elec       q    Type
REMARK                         _______ _______ _______ _____ _____    ______ ____
ROOT
ATOM      1  C   UNL     1      -2.446  16.009  20.806  0.00  0.00    +0.000 A 
ATOM      2  C   UNL     1      -1.486  14.991  20.802  0.00  0.00    +0.000 A 
ATOM      3  C   UNL     1      -1.643  13.831  21.539  0.00  0.00    +0.000 A 
ATOM      4  N   UNL     1      -0.719  12.879  21.423  0.00  0.00    +0.000 NA
ATOM      5  C   UNL     1      -0.861  11.737  22.110  0.00  0.00    +0.000 A 
ATOM      6  N   UNL     1       0.118  10.781  21.974  0.00  0.00    +0.000 N 
ATOM      7  C   UNL     1       0.010   9.488  22.663  0.00  0.00    +0.000 C 
ATOM      8  C   UNL     1      -0.239   8.336  21.666  0.00  0.00    +0.000 C 
ATOM      9  N   UNL     1       0.692   8.383  20.527  0.00  0.00    +0.000 N 
ATOM     10  C   UNL     1       1.650   7.381  20.375  0.00  0.00    +0.000 C 
ATOM     11  O   UNL     1       1.696   6.436  21.168  0.00  0.00    +0.000 OA
ATOM     12  C   UNL     1       0.659   9.675  19.830  0.00  0.00    +0.000 C 
ATOM     13  C   UNL     1       1.013  10.820  20.805  0.00  0.00    +0.000 C 
ATOM     14  N   UNL     1      -1.900  11.527  22.931  0.00  0.00    +0.000 NA
ATOM     15  C   UNL     1      -2.819  12.497  23.053  0.00  0.00    +0.000 A 
ATOM     16  N   UNL     1      -3.890  12.211  23.916  0.00  0.00    +0.000 N 
ATOM     17  C   UNL     1      -2.763  13.704  22.353  0.00  0.00    +0.000 A 
ATOM     18  C   UNL     1      -3.726  14.746  22.405  0.00  0.00    +0.000 A 
ATOM     19  C   UNL     1      -3.571  15.901  21.638  0.00  0.00    +0.000 A 
ATOM     20  H   UNL     1      -3.692  11.303  24.331  0.00  0.00    +0.000 HD
ATOM     21  H   UNL     1      -3.994  12.924  24.622  0.00  0.00    +0.000 HD
ENDROOT
BRANCH  10  22
ATOM     22  C   UNL     1       2.549   7.390  19.106  0.00  0.00    +0.000 C 
ATOM     23  C   UNL     1       1.783   6.987  17.843  0.00  0.00    +0.000 C 
ATOM     24  O   UNL     1       1.599   5.574  17.716  0.00  0.00    +0.000 OA
ATOM     25  C   UNL     1       2.713   4.863  18.070  0.00  0.00    +0.000 A 
ATOM     26  C   UNL     1       2.712   3.514  17.709  0.00  0.00    +0.000 A 
ATOM     27  C   UNL     1       3.786   2.699  18.056  0.00  0.00    +0.000 A 
ATOM     28  C   UNL     1       4.867   3.241  18.752  0.00  0.00    +0.000 A 
ATOM     29  C   UNL     1       4.887   4.598  19.096  0.00  0.00    +0.000 A 
ATOM     30  C   UNL     1       3.787   5.410  18.778  0.00  0.00    +0.000 A 
ATOM     31  O   UNL     1       3.793   6.711  19.194  0.00  0.00    +0.000 OA
BRANCH  29  32
ATOM     32  O   UNL     1       5.988   4.976  19.821  0.00  0.00    +0.000 OA
ATOM     33  C   UNL     1       7.043   5.581  19.081  0.00  0.00    +0.000 C 
ENDBRANCH  29  32
ENDBRANCH  10  22
BRANCH   1  35
ATOM     34  C   UNL     1      -1.246  18.002  20.414  0.00  0.00    +0.000 C 
ATOM     35  O   UNL     1      -2.319  17.141  20.035  0.00  0.00    +0.000 OA
ENDBRANCH   1  35
BRANCH  19  36
ATOM     36  O   UNL     1      -4.454  16.948  21.617  0.00  0.00    +0.000 OA
ATOM     37  C   UNL     1      -5.667  16.772  20.894  0.00  0.00    +0.000 C 
ENDBRANCH  19  36
TORSDOF 4
ENDMDL
MODEL 9
REMARK VINA RESULT:      -6.7      1.887      2.447
REMARK  Name = 
REMARK  7 active torsions:
REMARK  status: ('A' for Active; 'I' for Inactive)
REMARK    1  A    between atoms: C_1  and  O_2
REMARK    2  A    between atoms: O_2  and  C_3
REMARK    3  A    between atoms: C_12  and  C_14
REMARK    4  A    between atoms: C_21  and  O_22
REMARK    5  A    between atoms: O_22  and  C_23
REMARK    6  A    between atoms: C_33  and  O_34
REMARK    7  A    between atoms: O_34  and  C_35
REMARK                            x       y       z     vdW  Elec       q    Type
REMARK                         _______ _______ _______ _____ _____    ______ ____
ROOT
ATOM      1  C   UNL     1      -1.269  11.838  22.490  0.00  0.00    +0.000 A 
ATOM      2  C   UNL     1      -0.048  12.149  21.881  0.00  0.00    +0.000 A 
ATOM      3  C   UNL     1       0.112  13.273  21.090  0.00  0.00    +0.000 A 
ATOM      4  N   UNL     1       1.325  13.538  20.607  0.00  0.00    +0.000 NA
ATOM      5  C   UNL     1       1.510  14.632  19.857  0.00  0.00    +0.000 A 
ATOM      6  N   UNL     1       2.773  14.869  19.367  0.00  0.00    +0.000 N 
ATOM      7  C   UNL     1       3.061  16.069  18.572  0.00  0.00    +0.000 C 
ATOM      8  C   UNL     1       3.963  17.055  19.345  0.00  0.00    +0.000 C 
ATOM      9  N   UNL     1       5.129  16.383  19.941  0.00  0.00    +0.000 N 
ATOM     10  C   UNL     1       6.409  16.666  19.466  0.00  0.00    +0.000 C 
ATOM     11  O   UNL     1       6.573  17.505  18.575  0.00  0.00    +0.000 OA
ATOM     12  C   UNL     1       4.745  15.259  20.805  0.00  0.00    +0.000 C 
ATOM     13  C   UNL     1       3.931  14.219  20.004  0.00  0.00    +0.000 C 
ATOM     14  N   UNL     1       0.503  15.466  19.557  0.00  0.00    +0.000 NA
ATOM     15  C   UNL     1      -0.718  15.185  20.036  0.00  0.00    +0.000 A 
ATOM     16  N   UNL     1      -1.726  16.103  19.700  0.00  0.00    +0.000 N 
ATOM     17  C   UNL     1      -0.992  14.082  20.848  0.00  0.00    +0.000 A 
ATOM     18  C   UNL     1      -2.251  13.757  21.420  0.00  0.00    +0.000 A 
ATOM     19  C   UNL     1      -2.395  12.636  22.238  0.00  0.00    +0.000 A 
ATOM     20  H   UNL     1      -1.298  16.788  19.081  0.00  0.00    +0.000 HD
ATOM     21  H   UNL     1      -2.509  15.645  19.258  0.00  0.00    +0.000 HD
ENDROOT
BRANCH  10  22
ATOM     22  C   UNL     1       7.633  16.029  20.183  0.00  0.00    +0.000 C 
ATOM     23  C   UNL     1       8.644  17.077  20.657  0.00  0.00    +0.000 C 
ATOM     24  O   UNL     1       9.494  17.560  19.613  0.00  0.00    +0.000 OA
ATOM     25  C   UNL     1       9.915  16.566  18.773  0.00  0.00    +0.000 A 
ATOM     26  C   UNL     1      10.960  16.902  17.910  0.00  0.00    +0.000 A 
ATOM     27  C   UNL     1      11.435  15.968  16.994  0.00  0.00    +0.000 A 
ATOM     28  C   UNL     1      10.872  14.693  16.953  0.00  0.00    +0.000 A 
ATOM     29  C   UNL     1       9.840  14.339  17.831  0.00  0.00    +0.000 A 
ATOM     30  C   UNL     1       9.337  15.293  18.730  0.00  0.00    +0.000 A 
ATOM     31  O   UNL     1       8.278  14.951  19.522  0.00  0.00    +0.000 OA
BRANCH  29  32
ATOM     32  O   UNL     1       9.352  13.072  17.641  0.00  0.00    +0.000 OA
ATOM     33  C   UNL     1      10.206  12.008  18.049  0.00  0.00    +0.000 C 
ENDBRANCH  29  32
ENDBRANCH  10  22
BRANCH   1  35
ATOM     34  C   UNL     1      -0.455   9.717  23.127  0.00  0.00    +0.000 C 
ATOM     35  O   UNL     1      -1.420  10.751  23.319  0.00  0.00    +0.000 OA
ENDBRANCH   1  35
BRANCH  19  36
ATOM     36  O   UNL     1      -3.565  12.256  22.839  0.00  0.00    +0.000 OA
ATOM     37  C   UNL     1      -4.046  13.058  23.912  0.00  0.00    +0.000 C 
ENDBRANCH  19  36
TORSDOF 4
ENDMDL
