MODEL 1
REMARK VINA RESULT:      -8.3      0.000      0.000
REMARK  Name = 
REMARK  4 active torsions:
REMARK  status: ('A' for Active; 'I' for Inactive)
REMARK    1  A    between atoms: C_1  and  C_2
REMARK    2  A    between atoms: N_7  and  C_8
REMARK    3  A    between atoms: C_13  and  N_14
REMARK    4  A    between atoms: C_15  and  C_17
REMARK                            x       y       z     vdW  Elec       q    Type
REMARK                         _______ _______ _______ _____ _____    ______ ____
ROOT
ATOM      1  C   UNL     1       5.467   4.895  16.493  0.00  0.00    +0.000 A 
ATOM      2  C   UNL     1       5.267   3.717  15.732  0.00  0.00    +0.000 A 
ATOM      3  C   UNL     1       5.901   3.478  14.514  0.00  0.00    +0.000 A 
ATOM      4  C   UNL     1       6.756   4.438  14.000  0.00  0.00    +0.000 A 
ATOM      5  C   UNL     1       6.937   5.646  14.682  0.00  0.00    +0.000 A 
ATOM      6  C   UNL     1       6.313   5.889  15.921  0.00  0.00    +0.000 A 
ENDROOT
BRANCH   1  13
ATOM      7  C   UNL     1       2.207   3.397  21.868  0.00  0.00    +0.000 C 
ATOM      8  C   UNL     1       1.825   4.155  20.622  0.00  0.00    +0.000 C 
ATOM      9  O   UNL     1       0.662   4.516  20.447  0.00  0.00    +0.000 OA
ATOM     10  N   UNL     1       2.850   4.457  19.735  0.00  0.00    +0.000 N 
ATOM     11  C   UNL     1       2.481   5.210  18.531  0.00  0.00    +0.000 C 
ATOM     12  C   UNL     1       3.665   5.951  17.886  0.00  0.00    +0.000 C 
ATOM     13  N   UNL     1       4.763   5.008  17.680  0.00  0.00    +0.000 N 
ATOM     14  C   UNL     1       5.225   4.342  18.913  0.00  0.00    +0.000 C 
ATOM     15  C   UNL     1       4.049   3.613  19.596  0.00  0.00    +0.000 C 
ENDBRANCH   1  13
BRANCH   6  16
ATOM     16  N   UNL     1       6.637   7.134  16.562  0.00  0.00    +0.000 N 
ATOM     17  C   UNL     1       7.613   7.152  17.552  0.00  0.00    +0.000 C 
ATOM     18  O   UNL     1       8.134   6.110  17.969  0.00  0.00    +0.000 OA
ATOM     19  H   UNL     1       6.651   7.959  15.973  0.00  0.00    +0.000 HD
BRANCH  17  20
ATOM     20  C   UNL     1       8.104   8.440  18.035  0.00  0.00    +0.000 A 
ATOM     21  C   UNL     1       7.961   9.659  17.389  0.00  0.00    +0.000 A 
ATOM     22  C   UNL     1       8.615  10.645  18.148  0.00  0.00    +0.000 A 
ATOM     23  C   UNL     1       8.809  12.032  18.003  0.00  0.00    +0.000 A 
ATOM     24  C   UNL     1       9.548  12.722  18.967  0.00  0.00    +0.000 A 
ATOM     25  C   UNL     1      10.102  12.040  20.048  0.00  0.00    +0.000 A 
ATOM     26  C   UNL     1       9.929  10.650  20.211  0.00  0.00    +0.000 A 
ATOM     27  C   UNL     1       9.166   9.983  19.243  0.00  0.00    +0.000 A 
ATOM     28  O   UNL     1       8.838   8.635  19.192  0.00  0.00    +0.000 OA
ENDBRANCH  17  20
ENDBRANCH   6  16
TORSDOF 3
ENDMDL
MODEL 2
REMARK VINA RESULT:      -8.0      0.552      1.143
REMARK  Name = 
REMARK  4 active torsions:
REMARK  status: ('A' for Active; 'I' for Inactive)
REMARK    1  A    between atoms: C_1  and  C_2
REMARK    2  A    between atoms: N_7  and  C_8
REMARK    3  A    between atoms: C_13  and  N_14
REMARK    4  A    between atoms: C_15  and  C_17
REMARK                            x       y       z     vdW  Elec       q    Type
REMARK                         _______ _______ _______ _____ _____    ______ ____
ROOT
ATOM      1  C   UNL     1       5.347   4.764  16.413  0.00  0.00    +0.000 A 
ATOM      2  C   UNL     1       5.117   3.584  15.664  0.00  0.00    +0.000 A 
ATOM      3  C   UNL     1       5.723   3.331  14.434  0.00  0.00    +0.000 A 
ATOM      4  C   UNL     1       6.577   4.278  13.897  0.00  0.00    +0.000 A 
ATOM      5  C   UNL     1       6.787   5.487  14.568  0.00  0.00    +0.000 A 
ATOM      6  C   UNL     1       6.192   5.744  15.818  0.00  0.00    +0.000 A 
ENDROOT
BRANCH   1  13
ATOM      7  C   UNL     1       2.173   3.336  21.859  0.00  0.00    +0.000 C 
ATOM      8  C   UNL     1       1.779   4.096  20.619  0.00  0.00    +0.000 C 
ATOM      9  O   UNL     1       0.619   4.475  20.467  0.00  0.00    +0.000 OA
ATOM     10  N   UNL     1       2.789   4.378  19.710  0.00  0.00    +0.000 N 
ATOM     11  C   UNL     1       2.409   5.134  18.511  0.00  0.00    +0.000 C 
ATOM     12  C   UNL     1       3.591   5.853  17.840  0.00  0.00    +0.000 C 
ATOM     13  N   UNL     1       4.669   4.892  17.614  0.00  0.00    +0.000 N 
ATOM     14  C   UNL     1       5.145   4.222  18.840  0.00  0.00    +0.000 C 
ATOM     15  C   UNL     1       3.972   3.515  19.549  0.00  0.00    +0.000 C 
ENDBRANCH   1  13
BRANCH   6  16
ATOM     16  N   UNL     1       6.544   6.989  16.445  0.00  0.00    +0.000 N 
ATOM     17  C   UNL     1       7.539   7.001  17.416  0.00  0.00    +0.000 C 
ATOM     18  O   UNL     1       8.054   5.955  17.829  0.00  0.00    +0.000 OA
ATOM     19  H   UNL     1       6.557   7.811  15.851  0.00  0.00    +0.000 HD
BRANCH  17  20
ATOM     20  C   UNL     1       8.055   8.286  17.881  0.00  0.00    +0.000 A 
ATOM     21  C   UNL     1       8.752   8.503  19.060  0.00  0.00    +0.000 A 
ATOM     22  C   UNL     1       9.025   9.878  19.170  0.00  0.00    +0.000 A 
ATOM     23  C   UNL     1       9.683  10.678  20.123  0.00  0.00    +0.000 A 
ATOM     24  C   UNL     1       9.760  12.058  19.919  0.00  0.00    +0.000 A 
ATOM     25  C   UNL     1       9.176  12.635  18.793  0.00  0.00    +0.000 A 
ATOM     26  C   UNL     1       8.506  11.856  17.828  0.00  0.00    +0.000 A 
ATOM     27  C   UNL     1       8.459  10.472  18.044  0.00  0.00    +0.000 A 
ATOM     28  O   UNL     1       7.882   9.500  17.238  0.00  0.00    +0.000 OA
ENDBRANCH  17  20
ENDBRANCH   6  16
TORSDOF 3
ENDMDL
MODEL 3
REMARK VINA RESULT:      -7.7      4.341      6.760
REMARK  Name = 
REMARK  4 active torsions:
REMARK  status: ('A' for Active; 'I' for Inactive)
REMARK    1  A    between atoms: C_1  and  C_2
REMARK    2  A    between atoms: N_7  and  C_8
REMARK    3  A    between atoms: C_13  and  N_14
REMARK    4  A    between atoms: C_15  and  C_17
REMARK                            x       y       z     vdW  Elec       q    Type
REMARK                         _______ _______ _______ _____ _____    ______ ____
ROOT
ATOM      1  C   UNL     1       2.156   4.912  19.612  0.00  0.00    +0.000 A 
ATOM      2  C   UNL     1       1.440   4.423  20.732  0.00  0.00    +0.000 A 
ATOM      3  C   UNL     1       1.148   3.074  20.922  0.00  0.00    +0.000 A 
ATOM      4  C   UNL     1       1.554   2.157  19.969  0.00  0.00    +0.000 A 
ATOM      5  C   UNL     1       2.209   2.596  18.813  0.00  0.00    +0.000 A 
ATOM      6  C   UNL     1       2.521   3.956  18.621  0.00  0.00    +0.000 A 
ENDROOT
BRANCH   1  13
ATOM      7  C   UNL     1       1.113  11.288  19.492  0.00  0.00    +0.000 C 
ATOM      8  C   UNL     1       1.674  10.328  18.476  0.00  0.00    +0.000 C 
ATOM      9  O   UNL     1       1.919  10.710  17.332  0.00  0.00    +0.000 OA
ATOM     10  N   UNL     1       1.937   9.037  18.913  0.00  0.00    +0.000 N 
ATOM     11  C   UNL     1       2.500   8.107  17.927  0.00  0.00    +0.000 C 
ATOM     12  C   UNL     1       3.240   6.918  18.561  0.00  0.00    +0.000 C 
ATOM     13  N   UNL     1       2.366   6.279  19.542  0.00  0.00    +0.000 N 
ATOM     14  C   UNL     1       1.900   7.182  20.612  0.00  0.00    +0.000 C 
ATOM     15  C   UNL     1       1.177   8.401  20.002  0.00  0.00    +0.000 C 
ENDBRANCH   1  13
BRANCH   6  16
ATOM     16  N   UNL     1       3.264   4.274  17.431  0.00  0.00    +0.000 N 
ATOM     17  C   UNL     1       4.649   4.156  17.445  0.00  0.00    +0.000 C 
ATOM     18  O   UNL     1       5.267   3.886  18.483  0.00  0.00    +0.000 OA
ATOM     19  H   UNL     1       2.849   3.999  16.549  0.00  0.00    +0.000 HD
BRANCH  17  20
ATOM     20  C   UNL     1       5.378   4.253  16.183  0.00  0.00    +0.000 A 
ATOM     21  C   UNL     1       6.420   5.126  15.911  0.00  0.00    +0.000 A 
ATOM     22  C   UNL     1       6.815   4.947  14.574  0.00  0.00    +0.000 A 
ATOM     23  C   UNL     1       7.793   5.533  13.749  0.00  0.00    +0.000 A 
ATOM     24  C   UNL     1       7.905   5.114  12.421  0.00  0.00    +0.000 A 
ATOM     25  C   UNL     1       7.045   4.141  11.916  0.00  0.00    +0.000 A 
ATOM     26  C   UNL     1       6.053   3.544  12.720  0.00  0.00    +0.000 A 
ATOM     27  C   UNL     1       5.973   3.965  14.054  0.00  0.00    +0.000 A 
ATOM     28  O   UNL     1       5.104   3.519  15.042  0.00  0.00    +0.000 OA
ENDBRANCH  17  20
ENDBRANCH   6  16
TORSDOF 3
ENDMDL
MODEL 4
REMARK VINA RESULT:      -7.5      4.406      6.751
REMARK  Name = 
REMARK  4 active torsions:
REMARK  status: ('A' for Active; 'I' for Inactive)
REMARK    1  A    between atoms: C_1  and  C_2
REMARK    2  A    between atoms: N_7  and  C_8
REMARK    3  A    between atoms: C_13  and  N_14
REMARK    4  A    between atoms: C_15  and  C_17
REMARK                            x       y       z     vdW  Elec       q    Type
REMARK                         _______ _______ _______ _____ _____    ______ ____
ROOT
ATOM      1  C   UNL     1       2.158   4.946  19.648  0.00  0.00    +0.000 A 
ATOM      2  C   UNL     1       1.486   4.439  20.788  0.00  0.00    +0.000 A 
ATOM      3  C   UNL     1       1.211   3.085  20.973  0.00  0.00    +0.000 A 
ATOM      4  C   UNL     1       1.591   2.182  19.995  0.00  0.00    +0.000 A 
ATOM      5  C   UNL     1       2.200   2.640  18.822  0.00  0.00    +0.000 A 
ATOM      6  C   UNL     1       2.495   4.004  18.634  0.00  0.00    +0.000 A 
ENDROOT
BRANCH   1  13
ATOM      7  C   UNL     1       1.048  11.311  19.523  0.00  0.00    +0.000 C 
ATOM      8  C   UNL     1       1.641  10.360  18.516  0.00  0.00    +0.000 C 
ATOM      9  O   UNL     1       1.907  10.747  17.379  0.00  0.00    +0.000 OA
ATOM     10  N   UNL     1       1.909   9.071  18.955  0.00  0.00    +0.000 N 
ATOM     11  C   UNL     1       2.503   8.149  17.979  0.00  0.00    +0.000 C 
ATOM     12  C   UNL     1       3.243   6.966  18.626  0.00  0.00    +0.000 C 
ATOM     13  N   UNL     1       2.355   6.315  19.587  0.00  0.00    +0.000 N 
ATOM     14  C   UNL     1       1.856   7.210  20.649  0.00  0.00    +0.000 C 
ATOM     15  C   UNL     1       1.133   8.423  20.026  0.00  0.00    +0.000 C 
ENDBRANCH   1  13
BRANCH   6  16
ATOM     16  N   UNL     1       3.192   4.341  17.423  0.00  0.00    +0.000 N 
ATOM     17  C   UNL     1       4.578   4.233  17.386  0.00  0.00    +0.000 C 
ATOM     18  O   UNL     1       5.234   3.956  18.398  0.00  0.00    +0.000 OA
ATOM     19  H   UNL     1       2.748   4.073  16.552  0.00  0.00    +0.000 HD
BRANCH  17  20
ATOM     20  C   UNL     1       5.261   4.350  16.100  0.00  0.00    +0.000 A 
ATOM     21  C   UNL     1       5.009   3.582  14.973  0.00  0.00    +0.000 A 
ATOM     22  C   UNL     1       5.909   3.963  13.963  0.00  0.00    +0.000 A 
ATOM     23  C   UNL     1       6.133   3.551  12.636  0.00  0.00    +0.000 A 
ATOM     24  C   UNL     1       7.157   4.151  11.898  0.00  0.00    +0.000 A 
ATOM     25  C   UNL     1       7.957   5.133  12.478  0.00  0.00    +0.000 A 
ATOM     26  C   UNL     1       7.758   5.558  13.807  0.00  0.00    +0.000 A 
ATOM     27  C   UNL     1       6.712   4.957  14.521  0.00  0.00    +0.000 A 
ATOM     28  O   UNL     1       6.306   5.215  15.823  0.00  0.00    +0.000 OA
ENDBRANCH  17  20
ENDBRANCH   6  16
TORSDOF 3
ENDMDL
MODEL 5
REMARK VINA RESULT:      -7.4      4.141      8.501
REMARK  Name = 
REMARK  4 active torsions:
REMARK  status: ('A' for Active; 'I' for Inactive)
REMARK    1  A    between atoms: C_1  and  C_2
REMARK    2  A    between atoms: N_7  and  C_8
REMARK    3  A    between atoms: C_13  and  N_14
REMARK    4  A    between atoms: C_15  and  C_17
REMARK                            x       y       z     vdW  Elec       q    Type
REMARK                         _______ _______ _______ _____ _____    ______ ____
ROOT
ATOM      1  C   UNL     1      10.406  13.529  19.331  0.00  0.00    +0.000 A 
ATOM      2  C   UNL     1      11.048  14.746  18.991  0.00  0.00    +0.000 A 
ATOM      3  C   UNL     1      11.825  14.905  17.845  0.00  0.00    +0.000 A 
ATOM      4  C   UNL     1      12.003  13.825  16.998  0.00  0.00    +0.000 A 
ATOM      5  C   UNL     1      11.443  12.585  17.322  0.00  0.00    +0.000 A 
ATOM      6  C   UNL     1      10.644  12.420  18.470  0.00  0.00    +0.000 A 
ENDROOT
BRANCH   1  13
ATOM      7  C   UNL     1       6.633  11.529  24.181  0.00  0.00    +0.000 C 
ATOM      8  C   UNL     1       6.473  12.613  23.146  0.00  0.00    +0.000 C 
ATOM      9  O   UNL     1       5.413  13.230  23.053  0.00  0.00    +0.000 OA
ATOM     10  N   UNL     1       7.583  12.897  22.362  0.00  0.00    +0.000 N 
ATOM     11  C   UNL     1       7.433  13.964  21.365  0.00  0.00    +0.000 C 
ATOM     12  C   UNL     1       8.771  14.578  20.921  0.00  0.00    +0.000 C 
ATOM     13  N   UNL     1       9.674  13.507  20.507  0.00  0.00    +0.000 N 
ATOM     14  C   UNL     1       9.932  12.498  21.552  0.00  0.00    +0.000 C 
ATOM     15  C   UNL     1       8.602  11.884  22.037  0.00  0.00    +0.000 C 
ENDBRANCH   1  13
BRANCH   6  16
ATOM     16  N   UNL     1      10.061  11.119  18.655  0.00  0.00    +0.000 N 
ATOM     17  C   UNL     1       8.823  10.844  18.086  0.00  0.00    +0.000 C 
ATOM     18  O   UNL     1       8.162  11.721  17.515  0.00  0.00    +0.000 OA
ATOM     19  H   UNL     1      10.695  10.328  18.632  0.00  0.00    +0.000 HD
BRANCH  17  20
ATOM     20  C   UNL     1       8.341   9.465  18.076  0.00  0.00    +0.000 A 
ATOM     21  C   UNL     1       8.726   8.463  18.954  0.00  0.00    +0.000 A 
ATOM     22  C   UNL     1       8.081   7.271  18.581  0.00  0.00    +0.000 A 
ATOM     23  C   UNL     1       8.079   5.954  19.079  0.00  0.00    +0.000 A 
ATOM     24  C   UNL     1       7.311   4.982  18.434  0.00  0.00    +0.000 A 
ATOM     25  C   UNL     1       6.571   5.310  17.299  0.00  0.00    +0.000 A 
ATOM     26  C   UNL     1       6.562   6.619  16.777  0.00  0.00    +0.000 A 
ATOM     27  C   UNL     1       7.323   7.582  17.453  0.00  0.00    +0.000 A 
ATOM     28  O   UNL     1       7.460   8.931  17.151  0.00  0.00    +0.000 OA
ENDBRANCH  17  20
ENDBRANCH   6  16
TORSDOF 3
ENDMDL
MODEL 6
REMARK VINA RESULT:      -7.4      5.791      9.172
REMARK  Name = 
REMARK  4 active torsions:
REMARK  status: ('A' for Active; 'I' for Inactive)
REMARK    1  A    between atoms: C_1  and  C_2
REMARK    2  A    between atoms: N_7  and  C_8
REMARK    3  A    between atoms: C_13  and  N_14
REMARK    4  A    between atoms: C_15  and  C_17
REMARK                            x       y       z     vdW  Elec       q    Type
REMARK                         _______ _______ _______ _____ _____    ______ ____
ROOT
ATOM      1  C   UNL     1      -0.017  11.770  18.813  0.00  0.00    +0.000 A 
ATOM      2  C   UNL     1      -1.204  12.523  18.996  0.00  0.00    +0.000 A 
ATOM      3  C   UNL     1      -2.472  12.037  18.685  0.00  0.00    +0.000 A 
ATOM      4  C   UNL     1      -2.593  10.766  18.152  0.00  0.00    +0.000 A 
ATOM      5  C   UNL     1      -1.447  10.006  17.894  0.00  0.00    +0.000 A 
ATOM      6  C   UNL     1      -0.163  10.483  18.220  0.00  0.00    +0.000 A 
ENDROOT
BRANCH   1  13
ATOM      7  C   UNL     1       4.280  15.865  21.368  0.00  0.00    +0.000 C 
ATOM      8  C   UNL     1       3.918  15.524  19.946  0.00  0.00    +0.000 C 
ATOM      9  O   UNL     1       4.402  16.163  19.013  0.00  0.00    +0.000 OA
ATOM     10  N   UNL     1       3.068  14.443  19.758  0.00  0.00    +0.000 N 
ATOM     11  C   UNL     1       2.729  14.100  18.372  0.00  0.00    +0.000 C 
ATOM     12  C   UNL     1       2.253  12.648  18.199  0.00  0.00    +0.000 C 
ATOM     13  N   UNL     1       1.178  12.381  19.153  0.00  0.00    +0.000 N 
ATOM     14  C   UNL     1       1.555  12.600  20.563  0.00  0.00    +0.000 C 
ATOM     15  C   UNL     1       2.064  14.043  20.759  0.00  0.00    +0.000 C 
ENDBRANCH   1  13
BRANCH   6  16
ATOM     16  N   UNL     1       0.930   9.581  17.978  0.00  0.00    +0.000 N 
ATOM     17  C   UNL     1       1.457   8.856  19.040  0.00  0.00    +0.000 C 
ATOM     18  O   UNL     1       1.083   9.045  20.204  0.00  0.00    +0.000 OA
ATOM     19  H   UNL     1       0.904   9.056  17.111  0.00  0.00    +0.000 HD
BRANCH  17  20
ATOM     20  C   UNL     1       2.402   7.778  18.759  0.00  0.00    +0.000 A 
ATOM     21  C   UNL     1       3.174   7.652  17.614  0.00  0.00    +0.000 A 
ATOM     22  C   UNL     1       3.908   6.457  17.700  0.00  0.00    +0.000 A 
ATOM     23  C   UNL     1       4.837   5.807  16.864  0.00  0.00    +0.000 A 
ATOM     24  C   UNL     1       5.377   4.583  17.266  0.00  0.00    +0.000 A 
ATOM     25  C   UNL     1       4.986   4.004  18.471  0.00  0.00    +0.000 A 
ATOM     26  C   UNL     1       4.053   4.630  19.322  0.00  0.00    +0.000 A 
ATOM     27  C   UNL     1       3.540   5.868  18.909  0.00  0.00    +0.000 A 
ATOM     28  O   UNL     1       2.634   6.683  19.573  0.00  0.00    +0.000 OA
ENDBRANCH  17  20
ENDBRANCH   6  16
TORSDOF 3
ENDMDL
MODEL 7
REMARK VINA RESULT:      -7.3      3.946      8.699
REMARK  Name = 
REMARK  4 active torsions:
REMARK  status: ('A' for Active; 'I' for Inactive)
REMARK    1  A    between atoms: C_1  and  C_2
REMARK    2  A    between atoms: N_7  and  C_8
REMARK    3  A    between atoms: C_13  and  N_14
REMARK    4  A    between atoms: C_15  and  C_17
REMARK                            x       y       z     vdW  Elec       q    Type
REMARK                         _______ _______ _______ _____ _____    ______ ____
ROOT
ATOM      1  C   UNL     1       9.936  12.484  20.515  0.00  0.00    +0.000 A 
ATOM      2  C   UNL     1      10.835  13.579  20.552  0.00  0.00    +0.000 A 
ATOM      3  C   UNL     1      11.998  13.637  19.786  0.00  0.00    +0.000 A 
ATOM      4  C   UNL     1      12.313  12.574  18.958  0.00  0.00    +0.000 A 
ATOM      5  C   UNL     1      11.491  11.442  18.934  0.00  0.00    +0.000 A 
ATOM      6  C   UNL     1      10.306  11.381  19.692  0.00  0.00    +0.000 A 
ENDROOT
BRANCH   1  13
ATOM      7  C   UNL     1       5.510  14.650  24.696  0.00  0.00    +0.000 C 
ATOM      8  C   UNL     1       6.496  13.512  24.754  0.00  0.00    +0.000 C 
ATOM      9  O   UNL     1       6.640  12.869  25.792  0.00  0.00    +0.000 OA
ATOM     10  N   UNL     1       7.174  13.212  23.581  0.00  0.00    +0.000 N 
ATOM     11  C   UNL     1       8.122  12.092  23.633  0.00  0.00    +0.000 C 
ATOM     12  C   UNL     1       8.427  11.484  22.253  0.00  0.00    +0.000 C 
ATOM     13  N   UNL     1       8.824  12.551  21.338  0.00  0.00    +0.000 N 
ATOM     14  C   UNL     1       7.817  13.618  21.182  0.00  0.00    +0.000 C 
ATOM     15  C   UNL     1       7.471  14.228  22.556  0.00  0.00    +0.000 C 
ENDBRANCH   1  13
BRANCH   6  16
ATOM     16  N   UNL     1       9.505  10.199  19.525  0.00  0.00    +0.000 N 
ATOM     17  C   UNL     1       8.672  10.097  18.417  0.00  0.00    +0.000 C 
ATOM     18  O   UNL     1       8.523  11.039  17.628  0.00  0.00    +0.000 OA
ATOM     19  H   UNL     1       9.934   9.318  19.784  0.00  0.00    +0.000 HD
BRANCH  17  20
ATOM     20  C   UNL     1       8.040   8.813  18.125  0.00  0.00    +0.000 A 
ATOM     21  C   UNL     1       8.420   7.584  18.641  0.00  0.00    +0.000 A 
ATOM     22  C   UNL     1       7.602   6.590  18.077  0.00  0.00    +0.000 A 
ATOM     23  C   UNL     1       7.516   5.191  18.211  0.00  0.00    +0.000 A 
ATOM     24  C   UNL     1       6.565   4.491  17.464  0.00  0.00    +0.000 A 
ATOM     25  C   UNL     1       5.726   5.170  16.583  0.00  0.00    +0.000 A 
ATOM     26  C   UNL     1       5.797   6.570  16.425  0.00  0.00    +0.000 A 
ATOM     27  C   UNL     1       6.744   7.253  17.201  0.00  0.00    +0.000 A 
ATOM     28  O   UNL     1       6.992   8.618  17.241  0.00  0.00    +0.000 OA
ENDBRANCH  17  20
ENDBRANCH   6  16
TORSDOF 3
ENDMDL
MODEL 8
REMARK VINA RESULT:      -7.2      6.362      9.298
REMARK  Name = 
REMARK  4 active torsions:
REMARK  status: ('A' for Active; 'I' for Inactive)
REMARK    1  A    between atoms: C_1  and  C_2
REMARK    2  A    between atoms: N_7  and  C_8
REMARK    3  A    between atoms: C_13  and  N_14
REMARK    4  A    between atoms: C_15  and  C_17
REMARK                            x       y       z     vdW  Elec       q    Type
REMARK                         _______ _______ _______ _____ _____    ______ ____
ROOT
ATOM      1  C   UNL     1      -1.777  11.867  18.768  0.00  0.00    +0.000 A 
ATOM      2  C   UNL     1      -3.109  12.338  18.863  0.00  0.00    +0.000 A 
ATOM      3  C   UNL     1      -4.210  11.611  18.412  0.00  0.00    +0.000 A 
ATOM      4  C   UNL     1      -4.005  10.376  17.822  0.00  0.00    +0.000 A 
ATOM      5  C   UNL     1      -2.703   9.895  17.647  0.00  0.00    +0.000 A 
ATOM      6  C   UNL     1      -1.587  10.615  18.114  0.00  0.00    +0.000 A 
ENDROOT
BRANCH   1  13
ATOM      7  C   UNL     1       3.981  14.663  19.661  0.00  0.00    +0.000 C 
ATOM      8  C   UNL     1       3.080  13.871  20.573  0.00  0.00    +0.000 C 
ATOM      9  O   UNL     1       3.463  13.549  21.697  0.00  0.00    +0.000 OA
ATOM     10  N   UNL     1       1.809  13.579  20.098  0.00  0.00    +0.000 N 
ATOM     11  C   UNL     1       0.926  12.822  20.993  0.00  0.00    +0.000 C 
ATOM     12  C   UNL     1      -0.567  12.986  20.662  0.00  0.00    +0.000 C 
ATOM     13  N   UNL     1      -0.776  12.698  19.244  0.00  0.00    +0.000 N 
ATOM     14  C   UNL     1       0.015  13.547  18.334  0.00  0.00    +0.000 C 
ATOM     15  C   UNL     1       1.517  13.424  18.663  0.00  0.00    +0.000 C 
ENDBRANCH   1  13
BRANCH   6  16
ATOM     16  N   UNL     1      -0.307   9.983  17.944  0.00  0.00    +0.000 N 
ATOM     17  C   UNL     1       0.302   9.382  19.040  0.00  0.00    +0.000 C 
ATOM     18  O   UNL     1      -0.178   9.469  20.178  0.00  0.00    +0.000 OA
ATOM     19  H   UNL     1      -0.161   9.475  17.079  0.00  0.00    +0.000 HD
BRANCH  17  20
ATOM     20  C   UNL     1       1.479   8.545  18.823  0.00  0.00    +0.000 A 
ATOM     21  C   UNL     1       2.332   8.609  17.731  0.00  0.00    +0.000 A 
ATOM     22  C   UNL     1       3.307   7.606  17.867  0.00  0.00    +0.000 A 
ATOM     23  C   UNL     1       4.408   7.192  17.094  0.00  0.00    +0.000 A 
ATOM     24  C   UNL     1       5.181   6.113  17.531  0.00  0.00    +0.000 A 
ATOM     25  C   UNL     1       4.853   5.445  18.709  0.00  0.00    +0.000 A 
ATOM     26  C   UNL     1       3.751   5.836  19.497  0.00  0.00    +0.000 A 
ATOM     27  C   UNL     1       3.003   6.934  19.049  0.00  0.00    +0.000 A 
ATOM     28  O   UNL     1       1.896   7.518  19.652  0.00  0.00    +0.000 OA
ENDBRANCH  17  20
ENDBRANCH   6  16
TORSDOF 3
ENDMDL
MODEL 9
REMARK VINA RESULT:      -7.2      5.849      9.156
REMARK  Name = 
REMARK  4 active torsions:
REMARK  status: ('A' for Active; 'I' for Inactive)
REMARK    1  A    between atoms: C_1  and  C_2
REMARK    2  A    between atoms: N_7  and  C_8
REMARK    3  A    between atoms: C_13  and  N_14
REMARK    4  A    between atoms: C_15  and  C_17
REMARK                            x       y       z     vdW  Elec       q    Type
REMARK                         _______ _______ _______ _____ _____    ______ ____
ROOT
ATOM      1  C   UNL     1      -0.050  11.746  18.830  0.00  0.00    +0.000 A 
ATOM      2  C   UNL     1      -1.242  12.464  19.093  0.00  0.00    +0.000 A 
ATOM      3  C   UNL     1      -2.512  11.971  18.797  0.00  0.00    +0.000 A 
ATOM      4  C   UNL     1      -2.628  10.729  18.200  0.00  0.00    +0.000 A 
ATOM      5  C   UNL     1      -1.479  10.007  17.862  0.00  0.00    +0.000 A 
ATOM      6  C   UNL     1      -0.193  10.491  18.171  0.00  0.00    +0.000 A 
ENDROOT
BRANCH   1  13
ATOM      7  C   UNL     1       4.252  15.832  21.392  0.00  0.00    +0.000 C 
ATOM      8  C   UNL     1       3.872  15.512  19.969  0.00  0.00    +0.000 C 
ATOM      9  O   UNL     1       4.339  16.169  19.041  0.00  0.00    +0.000 OA
ATOM     10  N   UNL     1       3.028  14.427  19.776  0.00  0.00    +0.000 N 
ATOM     11  C   UNL     1       2.673  14.104  18.389  0.00  0.00    +0.000 C 
ATOM     12  C   UNL     1       2.205  12.651  18.200  0.00  0.00    +0.000 C 
ATOM     13  N   UNL     1       1.146  12.360  19.163  0.00  0.00    +0.000 N 
ATOM     14  C   UNL     1       1.540  12.559  20.571  0.00  0.00    +0.000 C 
ATOM     15  C   UNL     1       2.041  14.003  20.784  0.00  0.00    +0.000 C 
ENDBRANCH   1  13
BRANCH   6  16
ATOM     16  N   UNL     1       0.907   9.625  17.844  0.00  0.00    +0.000 N 
ATOM     17  C   UNL     1       1.458   8.825  18.838  0.00  0.00    +0.000 C 
ATOM     18  O   UNL     1       1.098   8.916  20.019  0.00  0.00    +0.000 OA
ATOM     19  H   UNL     1       0.875   9.170  16.939  0.00  0.00    +0.000 HD
BRANCH  17  20
ATOM     20  C   UNL     1       2.411   7.784  18.460  0.00  0.00    +0.000 A 
ATOM     21  C   UNL     1       2.589   6.571  19.106  0.00  0.00    +0.000 A 
ATOM     22  C   UNL     1       3.633   5.876  18.471  0.00  0.00    +0.000 A 
ATOM     23  C   UNL     1       4.252   4.628  18.674  0.00  0.00    +0.000 A 
ATOM     24  C   UNL     1       5.307   4.246  17.841  0.00  0.00    +0.000 A 
ATOM     25  C   UNL     1       5.752   5.101  16.834  0.00  0.00    +0.000 A 
ATOM     26  C   UNL     1       5.154   6.359  16.616  0.00  0.00    +0.000 A 
ATOM     27  C   UNL     1       4.084   6.711  17.450  0.00  0.00    +0.000 A 
ATOM     28  O   UNL     1       3.325   7.874  17.423  0.00  0.00    +0.000 OA
ENDBRANCH  17  20
ENDBRANCH   6  16
TORSDOF 3
ENDMDL
