MODEL 1
REMARK VINA RESULT:     -10.1      0.000      0.000
REMARK  Name = 
REMARK  4 active torsions:
REMARK  status: ('A' for Active; 'I' for Inactive)
REMARK    1  A    between atoms: C_2  and  C_22
REMARK    2  A    between atoms: N_3  and  C_4
REMARK    3  A    between atoms: C_8  and  C_9
REMARK    4  A    between atoms: C_9  and  C_10
REMARK                            x       y       z     vdW  Elec       q    Type
REMARK                         _______ _______ _______ _____ _____    ______ ____
ROOT
ATOM      1  C   UNL     1       1.249   8.649  20.559  0.00  0.00    +0.000 A 
ATOM      2  C   UNL     1       0.746   8.357  21.826  0.00  0.00    +0.000 A 
ATOM      3  C   UNL     1      -0.092   9.257  22.489  0.00  0.00    +0.000 A 
ATOM      4  C   UNL     1      -0.454  10.457  21.883  0.00  0.00    +0.000 A 
ATOM      5  C   UNL     1       0.035  10.777  20.611  0.00  0.00    +0.000 A 
ATOM      6  C   UNL     1       0.917   9.882  19.973  0.00  0.00    +0.000 A 
ENDROOT
BRANCH   1   9
ATOM      7  O   UNL     1       1.609   8.418  17.635  0.00  0.00    +0.000 OA
ATOM      8  C   UNL     1       2.185   7.693  18.438  0.00  0.00    +0.000 C 
ATOM      9  N   UNL     1       2.064   7.752  19.825  0.00  0.00    +0.000 N 
ATOM     10  H   UNL     1       2.707   7.192  20.372  0.00  0.00    +0.000 HD
BRANCH   8  11
ATOM     11  C   UNL     1       3.150   6.667  17.931  0.00  0.00    +0.000 A 
ATOM     12  C   UNL     1       4.350   7.129  17.364  0.00  0.00    +0.000 A 
ATOM     13  C   UNL     1       5.260   6.232  16.819  0.00  0.00    +0.000 A 
ATOM     14  C   UNL     1       4.958   4.872  16.791  0.00  0.00    +0.000 A 
ATOM     15  C   UNL     1       3.763   4.383  17.341  0.00  0.00    +0.000 A 
ATOM     16  C   UNL     1       3.463   3.013  17.238  0.00  0.00    +0.000 A 
ATOM     17  C   UNL     1       2.306   2.484  17.806  0.00  0.00    +0.000 A 
ATOM     18  C   UNL     1       1.461   3.312  18.529  0.00  0.00    +0.000 A 
ATOM     19  C   UNL     1       1.730   4.681  18.613  0.00  0.00    +0.000 A 
ATOM     20  C   UNL     1       2.860   5.268  17.984  0.00  0.00    +0.000 A 
ENDBRANCH   8  11
ENDBRANCH   1   9
BRANCH   5  21
ATOM     21  C   UNL     1      -0.414  12.052  19.930  0.00  0.00    +0.000 C 
BRANCH  21  22
ATOM     22  C   UNL     1      -1.923  12.127  19.716  0.00  0.00    +0.000 A 
ATOM     23  N   UNL     1      -2.597  12.804  20.604  0.00  0.00    +0.000 NA
ATOM     24  N   UNL     1      -3.940  12.897  20.434  0.00  0.00    +0.000 N 
ATOM     25  C   UNL     1      -4.664  12.337  19.415  0.00  0.00    +0.000 A 
ATOM     26  O   UNL     1      -5.884  12.438  19.349  0.00  0.00    +0.000 OA
ATOM     27  C   UNL     1      -3.878  11.618  18.382  0.00  0.00    +0.000 A 
ATOM     28  C   UNL     1      -2.547  11.491  18.505  0.00  0.00    +0.000 A 
ATOM     29  C   UNL     1      -1.710  10.777  17.480  0.00  0.00    +0.000 C 
ATOM     30  C   UNL     1      -2.532   9.967  16.470  0.00  0.00    +0.000 C 
ATOM     31  C   UNL     1      -3.765  10.735  16.014  0.00  0.00    +0.000 C 
ATOM     32  C   UNL     1      -4.655  11.085  17.208  0.00  0.00    +0.000 C 
ATOM     33  H   UNL     1      -4.459  13.394  21.149  0.00  0.00    +0.000 HD
ENDBRANCH  21  22
ENDBRANCH   5  21
TORSDOF 4
ENDMDL
MODEL 2
REMARK VINA RESULT:      -9.7      1.355      2.058
REMARK  Name = 
REMARK  4 active torsions:
REMARK  status: ('A' for Active; 'I' for Inactive)
REMARK    1  A    between atoms: C_2  and  C_22
REMARK    2  A    between atoms: N_3  and  C_4
REMARK    3  A    between atoms: C_8  and  C_9
REMARK    4  A    between atoms: C_9  and  C_10
REMARK                            x       y       z     vdW  Elec       q    Type
REMARK                         _______ _______ _______ _____ _____    ______ ____
ROOT
ATOM      1  C   UNL     1       1.258   8.708  20.559  0.00  0.00    +0.000 A 
ATOM      2  C   UNL     1       0.795   8.453  21.850  0.00  0.00    +0.000 A 
ATOM      3  C   UNL     1      -0.035   9.365  22.505  0.00  0.00    +0.000 A 
ATOM      4  C   UNL     1      -0.430  10.539  21.870  0.00  0.00    +0.000 A 
ATOM      5  C   UNL     1       0.017  10.821  20.574  0.00  0.00    +0.000 A 
ATOM      6  C   UNL     1       0.893   9.915  19.942  0.00  0.00    +0.000 A 
ENDROOT
BRANCH   1   9
ATOM      7  O   UNL     1       1.627   8.457  17.638  0.00  0.00    +0.000 OA
ATOM      8  C   UNL     1       2.190   7.728  18.447  0.00  0.00    +0.000 C 
ATOM      9  N   UNL     1       2.064   7.796  19.834  0.00  0.00    +0.000 N 
ATOM     10  H   UNL     1       2.697   7.229  20.386  0.00  0.00    +0.000 HD
BRANCH   8  11
ATOM     11  C   UNL     1       3.142   6.687  17.949  0.00  0.00    +0.000 A 
ATOM     12  C   UNL     1       4.354   7.129  17.390  0.00  0.00    +0.000 A 
ATOM     13  C   UNL     1       5.254   6.217  16.853  0.00  0.00    +0.000 A 
ATOM     14  C   UNL     1       4.931   4.862  16.826  0.00  0.00    +0.000 A 
ATOM     15  C   UNL     1       3.726   4.392  17.369  0.00  0.00    +0.000 A 
ATOM     16  C   UNL     1       3.405   3.027  17.267  0.00  0.00    +0.000 A 
ATOM     17  C   UNL     1       2.237   2.517  17.828  0.00  0.00    +0.000 A 
ATOM     18  C   UNL     1       1.399   3.359  18.543  0.00  0.00    +0.000 A 
ATOM     19  C   UNL     1       1.689   4.724  18.626  0.00  0.00    +0.000 A 
ATOM     20  C   UNL     1       2.832   5.292  18.004  0.00  0.00    +0.000 A 
ENDBRANCH   8  11
ENDBRANCH   1   9
BRANCH   5  21
ATOM     21  C   UNL     1      -0.467  12.066  19.862  0.00  0.00    +0.000 C 
BRANCH  21  22
ATOM     22  C   UNL     1      -1.590  11.796  18.865  0.00  0.00    +0.000 A 
ATOM     23  N   UNL     1      -1.231  11.288  17.718  0.00  0.00    +0.000 NA
ATOM     24  N   UNL     1      -2.210  11.027  16.815  0.00  0.00    +0.000 N 
ATOM     25  C   UNL     1      -3.549  11.254  16.989  0.00  0.00    +0.000 A 
ATOM     26  O   UNL     1      -4.370  11.022  16.109  0.00  0.00    +0.000 OA
ATOM     27  C   UNL     1      -3.949  11.779  18.318  0.00  0.00    +0.000 A 
ATOM     28  C   UNL     1      -3.020  12.060  19.247  0.00  0.00    +0.000 A 
ATOM     29  C   UNL     1      -3.379  12.587  20.608  0.00  0.00    +0.000 C 
ATOM     30  C   UNL     1      -4.837  13.048  20.725  0.00  0.00    +0.000 C 
ATOM     31  C   UNL     1      -5.785  12.076  20.033  0.00  0.00    +0.000 C 
ATOM     32  C   UNL     1      -5.427  11.937  18.553  0.00  0.00    +0.000 C 
ATOM     33  H   UNL     1      -1.917  10.667  15.914  0.00  0.00    +0.000 HD
ENDBRANCH  21  22
ENDBRANCH   5  21
TORSDOF 4
ENDMDL
MODEL 3
REMARK VINA RESULT:      -9.7      0.773      2.120
REMARK  Name = 
REMARK  4 active torsions:
REMARK  status: ('A' for Active; 'I' for Inactive)
REMARK    1  A    between atoms: C_2  and  C_22
REMARK    2  A    between atoms: N_3  and  C_4
REMARK    3  A    between atoms: C_8  and  C_9
REMARK    4  A    between atoms: C_9  and  C_10
REMARK                            x       y       z     vdW  Elec       q    Type
REMARK                         _______ _______ _______ _____ _____    ______ ____
ROOT
ATOM      1  C   UNL     1       1.374   8.489  20.353  0.00  0.00    +0.000 A 
ATOM      2  C   UNL     1       1.112   8.486  21.723  0.00  0.00    +0.000 A 
ATOM      3  C   UNL     1       0.511   9.585  22.340  0.00  0.00    +0.000 A 
ATOM      4  C   UNL     1       0.146  10.700  21.589  0.00  0.00    +0.000 A 
ATOM      5  C   UNL     1       0.395  10.731  20.212  0.00  0.00    +0.000 A 
ATOM      6  C   UNL     1       1.045   9.635  19.610  0.00  0.00    +0.000 A 
ENDROOT
BRANCH   1   9
ATOM      7  O   UNL     1       2.418   8.331  17.594  0.00  0.00    +0.000 OA
ATOM      8  C   UNL     1       2.412   7.376  18.360  0.00  0.00    +0.000 C 
ATOM      9  N   UNL     1       1.940   7.383  19.672  0.00  0.00    +0.000 N 
ATOM     10  H   UNL     1       2.128   6.565  20.238  0.00  0.00    +0.000 HD
BRANCH   8  11
ATOM     11  C   UNL     1       2.993   6.074  17.906  0.00  0.00    +0.000 A 
ATOM     12  C   UNL     1       2.141   4.956  17.879  0.00  0.00    +0.000 A 
ATOM     13  C   UNL     1       2.634   3.706  17.527  0.00  0.00    +0.000 A 
ATOM     14  C   UNL     1       3.989   3.552  17.245  0.00  0.00    +0.000 A 
ATOM     15  C   UNL     1       4.866   4.647  17.272  0.00  0.00    +0.000 A 
ATOM     16  C   UNL     1       6.238   4.443  17.045  0.00  0.00    +0.000 A 
ATOM     17  C   UNL     1       7.132   5.511  17.025  0.00  0.00    +0.000 A 
ATOM     18  C   UNL     1       6.655   6.803  17.182  0.00  0.00    +0.000 A 
ATOM     19  C   UNL     1       5.298   7.019  17.439  0.00  0.00    +0.000 A 
ATOM     20  C   UNL     1       4.370   5.949  17.540  0.00  0.00    +0.000 A 
ENDBRANCH   8  11
ENDBRANCH   1   9
BRANCH   5  21
ATOM     21  C   UNL     1      -0.063  11.917  19.390  0.00  0.00    +0.000 C 
BRANCH  21  22
ATOM     22  C   UNL     1      -1.581  12.067  19.336  0.00  0.00    +0.000 A 
ATOM     23  N   UNL     1      -2.118  12.820  20.255  0.00  0.00    +0.000 NA
ATOM     24  N   UNL     1      -3.465  12.982  20.225  0.00  0.00    +0.000 N 
ATOM     25  C   UNL     1      -4.325  12.417  19.321  0.00  0.00    +0.000 A 
ATOM     26  O   UNL     1      -5.537  12.584  19.381  0.00  0.00    +0.000 OA
ATOM     27  C   UNL     1      -3.695  11.608  18.248  0.00  0.00    +0.000 A 
ATOM     28  C   UNL     1      -2.366  11.412  18.233  0.00  0.00    +0.000 A 
ATOM     29  C   UNL     1      -1.685  10.606  17.163  0.00  0.00    +0.000 C 
ATOM     30  C   UNL     1      -2.653   9.798  16.290  0.00  0.00    +0.000 C 
ATOM     31  C   UNL     1      -3.888  10.614  15.930  0.00  0.00    +0.000 C 
ATOM     32  C   UNL     1      -4.622  11.067  17.192  0.00  0.00    +0.000 C 
ATOM     33  H   UNL     1      -3.876  13.539  20.965  0.00  0.00    +0.000 HD
ENDBRANCH  21  22
ENDBRANCH   5  21
TORSDOF 4
ENDMDL
MODEL 4
REMARK VINA RESULT:      -9.7      3.272      9.255
REMARK  Name = 
REMARK  4 active torsions:
REMARK  status: ('A' for Active; 'I' for Inactive)
REMARK    1  A    between atoms: C_2  and  C_22
REMARK    2  A    between atoms: N_3  and  C_4
REMARK    3  A    between atoms: C_8  and  C_9
REMARK    4  A    between atoms: C_9  and  C_10
REMARK                            x       y       z     vdW  Elec       q    Type
REMARK                         _______ _______ _______ _____ _____    ______ ____
ROOT
ATOM      1  C   UNL     1       1.580   4.997  20.451  0.00  0.00    +0.000 A 
ATOM      2  C   UNL     1       0.748   3.877  20.427  0.00  0.00    +0.000 A 
ATOM      3  C   UNL     1       1.235   2.632  20.025  0.00  0.00    +0.000 A 
ATOM      4  C   UNL     1       2.570   2.485  19.657  0.00  0.00    +0.000 A 
ATOM      5  C   UNL     1       3.429   3.590  19.672  0.00  0.00    +0.000 A 
ATOM      6  C   UNL     1       2.913   4.851  20.035  0.00  0.00    +0.000 A 
ENDROOT
BRANCH   1   9
ATOM      7  O   UNL     1       2.282   7.672  19.411  0.00  0.00    +0.000 OA
ATOM      8  C   UNL     1       1.523   7.502  20.358  0.00  0.00    +0.000 C 
ATOM      9  N   UNL     1       1.147   6.271  20.894  0.00  0.00    +0.000 N 
ATOM     10  H   UNL     1       0.402   6.271  21.580  0.00  0.00    +0.000 HD
BRANCH   8  11
ATOM     11  C   UNL     1       0.883   8.693  21.000  0.00  0.00    +0.000 A 
ATOM     12  C   UNL     1       0.940   8.782  22.402  0.00  0.00    +0.000 A 
ATOM     13  C   UNL     1       0.312   9.830  23.064  0.00  0.00    +0.000 A 
ATOM     14  C   UNL     1      -0.417  10.768  22.338  0.00  0.00    +0.000 A 
ATOM     15  C   UNL     1      -0.499  10.699  20.939  0.00  0.00    +0.000 A 
ATOM     16  C   UNL     1      -1.297  11.626  20.244  0.00  0.00    +0.000 A 
ATOM     17  C   UNL     1      -1.371  11.614  18.853  0.00  0.00    +0.000 A 
ATOM     18  C   UNL     1      -0.607  10.704  18.137  0.00  0.00    +0.000 A 
ATOM     19  C   UNL     1       0.166   9.757  18.815  0.00  0.00    +0.000 A 
ATOM     20  C   UNL     1       0.208   9.692  20.233  0.00  0.00    +0.000 A 
ENDBRANCH   8  11
ENDBRANCH   1   9
BRANCH   5  21
ATOM     21  C   UNL     1       4.894   3.412  19.335  0.00  0.00    +0.000 C 
BRANCH  21  22
ATOM     22  C   UNL     1       5.299   4.078  18.023  0.00  0.00    +0.000 A 
ATOM     23  N   UNL     1       4.681   3.664  16.952  0.00  0.00    +0.000 NA
ATOM     24  N   UNL     1       5.012   4.247  15.773  0.00  0.00    +0.000 N 
ATOM     25  C   UNL     1       5.949   5.230  15.594  0.00  0.00    +0.000 A 
ATOM     26  O   UNL     1       6.217   5.684  14.488  0.00  0.00    +0.000 OA
ATOM     27  C   UNL     1       6.604   5.731  16.828  0.00  0.00    +0.000 A 
ATOM     28  C   UNL     1       6.316   5.185  18.022  0.00  0.00    +0.000 A 
ATOM     29  C   UNL     1       6.950   5.664  19.298  0.00  0.00    +0.000 C 
ATOM     30  C   UNL     1       8.147   6.598  19.078  0.00  0.00    +0.000 C 
ATOM     31  C   UNL     1       7.872   7.602  17.966  0.00  0.00    +0.000 C 
ATOM     32  C   UNL     1       7.560   6.880  16.654  0.00  0.00    +0.000 C 
ATOM     33  H   UNL     1       4.553   3.893  14.942  0.00  0.00    +0.000 HD
ENDBRANCH  21  22
ENDBRANCH   5  21
TORSDOF 4
ENDMDL
MODEL 5
REMARK VINA RESULT:      -9.6      5.891      9.853
REMARK  Name = 
REMARK  4 active torsions:
REMARK  status: ('A' for Active; 'I' for Inactive)
REMARK    1  A    between atoms: C_2  and  C_22
REMARK    2  A    between atoms: N_3  and  C_4
REMARK    3  A    between atoms: C_8  and  C_9
REMARK    4  A    between atoms: C_9  and  C_10
REMARK                            x       y       z     vdW  Elec       q    Type
REMARK                         _______ _______ _______ _____ _____    ______ ____
ROOT
ATOM      1  C   UNL     1       8.060   8.397  17.959  0.00  0.00    +0.000 A 
ATOM      2  C   UNL     1       8.552   7.414  18.817  0.00  0.00    +0.000 A 
ATOM      3  C   UNL     1       7.887   6.195  18.965  0.00  0.00    +0.000 A 
ATOM      4  C   UNL     1       6.726   5.935  18.242  0.00  0.00    +0.000 A 
ATOM      5  C   UNL     1       6.209   6.902  17.372  0.00  0.00    +0.000 A 
ATOM      6  C   UNL     1       6.863   8.146  17.268  0.00  0.00    +0.000 A 
ENDROOT
BRANCH   1   9
ATOM      7  O   UNL     1       9.064  10.356  19.930  0.00  0.00    +0.000 OA
ATOM      8  C   UNL     1       9.166  10.515  18.719  0.00  0.00    +0.000 C 
ATOM      9  N   UNL     1       8.720   9.631  17.738  0.00  0.00    +0.000 N 
ATOM     10  H   UNL     1       8.999   9.818  16.783  0.00  0.00    +0.000 HD
BRANCH   8  11
ATOM     11  C   UNL     1       9.866  11.733  18.201  0.00  0.00    +0.000 A 
ATOM     12  C   UNL     1      11.242  11.625  17.932  0.00  0.00    +0.000 A 
ATOM     13  C   UNL     1      11.963  12.735  17.508  0.00  0.00    +0.000 A 
ATOM     14  C   UNL     1      11.329  13.969  17.397  0.00  0.00    +0.000 A 
ATOM     15  C   UNL     1       9.959  14.109  17.668  0.00  0.00    +0.000 A 
ATOM     16  C   UNL     1       9.367  15.383  17.607  0.00  0.00    +0.000 A 
ATOM     17  C   UNL     1       8.003  15.556  17.831  0.00  0.00    +0.000 A 
ATOM     18  C   UNL     1       7.205  14.446  18.069  0.00  0.00    +0.000 A 
ATOM     19  C   UNL     1       7.785  13.178  18.163  0.00  0.00    +0.000 A 
ATOM     20  C   UNL     1       9.182  12.974  18.014  0.00  0.00    +0.000 A 
ENDBRANCH   8  11
ENDBRANCH   1   9
BRANCH   5  21
ATOM     21  C   UNL     1       4.984   6.590  16.539  0.00  0.00    +0.000 C 
BRANCH  21  22
ATOM     22  C   UNL     1       4.188   5.395  17.055  0.00  0.00    +0.000 A 
ATOM     23  N   UNL     1       4.422   4.252  16.472  0.00  0.00    +0.000 NA
ATOM     24  N   UNL     1       3.737   3.170  16.919  0.00  0.00    +0.000 N 
ATOM     25  C   UNL     1       2.809   3.161  17.926  0.00  0.00    +0.000 A 
ATOM     26  O   UNL     1       2.205   2.145  18.249  0.00  0.00    +0.000 OA
ATOM     27  C   UNL     1       2.594   4.456  18.618  0.00  0.00    +0.000 A 
ATOM     28  C   UNL     1       3.243   5.561  18.213  0.00  0.00    +0.000 A 
ATOM     29  C   UNL     1       3.062   6.892  18.888  0.00  0.00    +0.000 C 
ATOM     30  C   UNL     1       1.873   6.934  19.857  0.00  0.00    +0.000 C 
ATOM     31  C   UNL     1       1.791   5.663  20.692  0.00  0.00    +0.000 C 
ATOM     32  C   UNL     1       1.651   4.435  19.791  0.00  0.00    +0.000 C 
ATOM     33  H   UNL     1       3.898   2.294  16.434  0.00  0.00    +0.000 HD
ENDBRANCH  21  22
ENDBRANCH   5  21
TORSDOF 4
ENDMDL
MODEL 6
REMARK VINA RESULT:      -9.5      3.235      9.138
REMARK  Name = 
REMARK  4 active torsions:
REMARK  status: ('A' for Active; 'I' for Inactive)
REMARK    1  A    between atoms: C_2  and  C_22
REMARK    2  A    between atoms: N_3  and  C_4
REMARK    3  A    between atoms: C_8  and  C_9
REMARK    4  A    between atoms: C_9  and  C_10
REMARK                            x       y       z     vdW  Elec       q    Type
REMARK                         _______ _______ _______ _____ _____    ______ ____
ROOT
ATOM      1  C   UNL     1       1.762   5.044  20.236  0.00  0.00    +0.000 A 
ATOM      2  C   UNL     1       0.903   3.982  19.957  0.00  0.00    +0.000 A 
ATOM      3  C   UNL     1       1.402   2.755  19.512  0.00  0.00    +0.000 A 
ATOM      4  C   UNL     1       2.773   2.569  19.357  0.00  0.00    +0.000 A 
ATOM      5  C   UNL     1       3.660   3.617  19.631  0.00  0.00    +0.000 A 
ATOM      6  C   UNL     1       3.140   4.864  20.033  0.00  0.00    +0.000 A 
ENDROOT
BRANCH   1   9
ATOM      7  O   UNL     1       2.286   7.763  19.203  0.00  0.00    +0.000 OA
ATOM      8  C   UNL     1       1.601   7.547  20.196  0.00  0.00    +0.000 C 
ATOM      9  N   UNL     1       1.312   6.293  20.732  0.00  0.00    +0.000 N 
ATOM     10  H   UNL     1       0.616   6.251  21.467  0.00  0.00    +0.000 HD
BRANCH   8  11
ATOM     11  C   UNL     1       0.960   8.699  20.904  0.00  0.00    +0.000 A 
ATOM     12  C   UNL     1       1.067   8.741  22.305  0.00  0.00    +0.000 A 
ATOM     13  C   UNL     1       0.442   9.750  23.028  0.00  0.00    +0.000 A 
ATOM     14  C   UNL     1      -0.333  10.697  22.362  0.00  0.00    +0.000 A 
ATOM     15  C   UNL     1      -0.465  10.675  20.965  0.00  0.00    +0.000 A 
ATOM     16  C   UNL     1      -1.308  11.608  20.334  0.00  0.00    +0.000 A 
ATOM     17  C   UNL     1      -1.433  11.643  18.948  0.00  0.00    +0.000 A 
ATOM     18  C   UNL     1      -0.678  10.777  18.172  0.00  0.00    +0.000 A 
ATOM     19  C   UNL     1       0.140   9.824  18.787  0.00  0.00    +0.000 A 
ATOM     20  C   UNL     1       0.236   9.710  20.199  0.00  0.00    +0.000 A 
ENDBRANCH   8  11
ENDBRANCH   1   9
BRANCH   5  21
ATOM     21  C   UNL     1       5.153   3.389  19.525  0.00  0.00    +0.000 C 
BRANCH  21  22
ATOM     22  C   UNL     1       5.887   4.512  18.799  0.00  0.00    +0.000 A 
ATOM     23  N   UNL     1       6.568   5.334  19.548  0.00  0.00    +0.000 NA
ATOM     24  N   UNL     1       7.240   6.336  18.929  0.00  0.00    +0.000 N 
ATOM     25  C   UNL     1       7.268   6.576  17.581  0.00  0.00    +0.000 A 
ATOM     26  O   UNL     1       7.874   7.526  17.098  0.00  0.00    +0.000 OA
ATOM     27  C   UNL     1       6.535   5.600  16.735  0.00  0.00    +0.000 A 
ATOM     28  C   UNL     1       5.848   4.593  17.298  0.00  0.00    +0.000 A 
ATOM     29  C   UNL     1       5.098   3.578  16.481  0.00  0.00    +0.000 C 
ATOM     30  C   UNL     1       4.942   3.968  15.006  0.00  0.00    +0.000 C 
ATOM     31  C   UNL     1       6.230   4.561  14.449  0.00  0.00    +0.000 C 
ATOM     32  C   UNL     1       6.642   5.799  15.247  0.00  0.00    +0.000 C 
ATOM     33  H   UNL     1       7.736   6.991  19.523  0.00  0.00    +0.000 HD
ENDBRANCH  21  22
ENDBRANCH   5  21
TORSDOF 4
ENDMDL
MODEL 7
REMARK VINA RESULT:      -9.5      3.785      8.969
REMARK  Name = 
REMARK  4 active torsions:
REMARK  status: ('A' for Active; 'I' for Inactive)
REMARK    1  A    between atoms: C_2  and  C_22
REMARK    2  A    between atoms: N_3  and  C_4
REMARK    3  A    between atoms: C_8  and  C_9
REMARK    4  A    between atoms: C_9  and  C_10
REMARK                            x       y       z     vdW  Elec       q    Type
REMARK                         _______ _______ _______ _____ _____    ______ ____
ROOT
ATOM      1  C   UNL     1       2.077   5.657  20.171  0.00  0.00    +0.000 A 
ATOM      2  C   UNL     1       1.169   4.687  20.596  0.00  0.00    +0.000 A 
ATOM      3  C   UNL     1       1.523   3.336  20.616  0.00  0.00    +0.000 A 
ATOM      4  C   UNL     1       2.799   2.937  20.227  0.00  0.00    +0.000 A 
ATOM      5  C   UNL     1       3.731   3.888  19.797  0.00  0.00    +0.000 A 
ATOM      6  C   UNL     1       3.347   5.243  19.736  0.00  0.00    +0.000 A 
ENDROOT
BRANCH   1   9
ATOM      7  O   UNL     1       2.030   7.561  17.912  0.00  0.00    +0.000 OA
ATOM      8  C   UNL     1       1.784   7.889  19.067  0.00  0.00    +0.000 C 
ATOM      9  N   UNL     1       1.784   7.043  20.174  0.00  0.00    +0.000 N 
ATOM     10  H   UNL     1       1.422   7.416  21.044  0.00  0.00    +0.000 HD
BRANCH   8  11
ATOM     11  C   UNL     1       1.402   9.307  19.355  0.00  0.00    +0.000 A 
ATOM     12  C   UNL     1       1.840  10.293  18.454  0.00  0.00    +0.000 A 
ATOM     13  C   UNL     1       1.572  11.635  18.697  0.00  0.00    +0.000 A 
ATOM     14  C   UNL     1       0.907  12.006  19.863  0.00  0.00    +0.000 A 
ATOM     15  C   UNL     1       0.464  11.045  20.784  0.00  0.00    +0.000 A 
ATOM     16  C   UNL     1      -0.147  11.460  21.981  0.00  0.00    +0.000 A 
ATOM     17  C   UNL     1      -0.634  10.535  22.901  0.00  0.00    +0.000 A 
ATOM     18  C   UNL     1      -0.560   9.181  22.610  0.00  0.00    +0.000 A 
ATOM     19  C   UNL     1       0.072   8.752  21.440  0.00  0.00    +0.000 A 
ATOM     20  C   UNL     1       0.646   9.664  20.515  0.00  0.00    +0.000 A 
ENDBRANCH   8  11
ENDBRANCH   1   9
BRANCH   5  21
ATOM     21  C   UNL     1       5.137   3.457  19.438  0.00  0.00    +0.000 C 
BRANCH  21  22
ATOM     22  C   UNL     1       5.937   4.538  18.717  0.00  0.00    +0.000 A 
ATOM     23  N   UNL     1       6.637   5.337  19.473  0.00  0.00    +0.000 NA
ATOM     24  N   UNL     1       7.367   6.302  18.858  0.00  0.00    +0.000 N 
ATOM     25  C   UNL     1       7.435   6.525  17.509  0.00  0.00    +0.000 A 
ATOM     26  O   UNL     1       8.093   7.442  17.031  0.00  0.00    +0.000 OA
ATOM     27  C   UNL     1       6.678   5.573  16.657  0.00  0.00    +0.000 A 
ATOM     28  C   UNL     1       5.934   4.604  17.215  0.00  0.00    +0.000 A 
ATOM     29  C   UNL     1       5.157   3.614  16.392  0.00  0.00    +0.000 C 
ATOM     30  C   UNL     1       5.051   3.994  14.910  0.00  0.00    +0.000 C 
ATOM     31  C   UNL     1       6.376   4.523  14.376  0.00  0.00    +0.000 C 
ATOM     32  C   UNL     1       6.827   5.750  15.169  0.00  0.00    +0.000 C 
ATOM     33  H   UNL     1       7.879   6.940  19.456  0.00  0.00    +0.000 HD
ENDBRANCH  21  22
ENDBRANCH   5  21
TORSDOF 4
ENDMDL
MODEL 8
REMARK VINA RESULT:      -9.4      3.411      4.640
REMARK  Name = 
REMARK  4 active torsions:
REMARK  status: ('A' for Active; 'I' for Inactive)
REMARK    1  A    between atoms: C_2  and  C_22
REMARK    2  A    between atoms: N_3  and  C_4
REMARK    3  A    between atoms: C_8  and  C_9
REMARK    4  A    between atoms: C_9  and  C_10
REMARK                            x       y       z     vdW  Elec       q    Type
REMARK                         _______ _______ _______ _____ _____    ______ ____
ROOT
ATOM      1  C   UNL     1       0.840   9.775  18.276  0.00  0.00    +0.000 A 
ATOM      2  C   UNL     1      -0.470   9.883  17.809  0.00  0.00    +0.000 A 
ATOM      3  C   UNL     1      -1.272  10.966  18.175  0.00  0.00    +0.000 A 
ATOM      4  C   UNL     1      -0.769  11.967  19.002  0.00  0.00    +0.000 A 
ATOM      5  C   UNL     1       0.542  11.885  19.484  0.00  0.00    +0.000 A 
ATOM      6  C   UNL     1       1.327  10.764  19.146  0.00  0.00    +0.000 A 
ENDROOT
BRANCH   1   9
ATOM      7  O   UNL     1       2.055   7.664  19.950  0.00  0.00    +0.000 OA
ATOM      8  C   UNL     1       2.254   7.757  18.744  0.00  0.00    +0.000 C 
ATOM      9  N   UNL     1       1.710   8.722  17.898  0.00  0.00    +0.000 N 
ATOM     10  H   UNL     1       1.843   8.594  16.902  0.00  0.00    +0.000 HD
BRANCH   8  11
ATOM     11  C   UNL     1       3.116   6.738  18.069  0.00  0.00    +0.000 A 
ATOM     12  C   UNL     1       4.233   7.204  17.353  0.00  0.00    +0.000 A 
ATOM     13  C   UNL     1       5.039   6.315  16.652  0.00  0.00    +0.000 A 
ATOM     14  C   UNL     1       4.709   4.962  16.619  0.00  0.00    +0.000 A 
ATOM     15  C   UNL     1       3.595   4.469  17.316  0.00  0.00    +0.000 A 
ATOM     16  C   UNL     1       3.256   3.109  17.208  0.00  0.00    +0.000 A 
ATOM     17  C   UNL     1       2.182   2.575  17.916  0.00  0.00    +0.000 A 
ATOM     18  C   UNL     1       1.464   3.387  18.781  0.00  0.00    +0.000 A 
ATOM     19  C   UNL     1       1.770   4.748  18.875  0.00  0.00    +0.000 A 
ATOM     20  C   UNL     1       2.810   5.342  18.113  0.00  0.00    +0.000 A 
ENDBRANCH   8  11
ENDBRANCH   1   9
BRANCH   5  21
ATOM     21  C   UNL     1       1.107  13.009  20.328  0.00  0.00    +0.000 C 
BRANCH  21  22
ATOM     22  C   UNL     1       1.671  14.162  19.503  0.00  0.00    +0.000 A 
ATOM     23  N   UNL     1       2.889  14.012  19.062  0.00  0.00    +0.000 NA
ATOM     24  N   UNL     1       3.413  15.017  18.316  0.00  0.00    +0.000 N 
ATOM     25  C   UNL     1       2.784  16.188  17.985  0.00  0.00    +0.000 A 
ATOM     26  O   UNL     1       3.339  17.065  17.332  0.00  0.00    +0.000 OA
ATOM     27  C   UNL     1       1.379  16.320  18.445  0.00  0.00    +0.000 A 
ATOM     28  C   UNL     1       0.814  15.358  19.192  0.00  0.00    +0.000 A 
ATOM     29  C   UNL     1      -0.607  15.446  19.675  0.00  0.00    +0.000 C 
ATOM     30  C   UNL     1      -1.231  16.836  19.499  0.00  0.00    +0.000 C 
ATOM     31  C   UNL     1      -0.869  17.441  18.149  0.00  0.00    +0.000 C 
ATOM     32  C   UNL     1       0.648  17.559  18.001  0.00  0.00    +0.000 C 
ATOM     33  H   UNL     1       4.372  14.907  18.009  0.00  0.00    +0.000 HD
ENDBRANCH  21  22
ENDBRANCH   5  21
TORSDOF 4
ENDMDL
MODEL 9
REMARK VINA RESULT:      -9.4      1.036      1.078
REMARK  Name = 
REMARK  4 active torsions:
REMARK  status: ('A' for Active; 'I' for Inactive)
REMARK    1  A    between atoms: C_2  and  C_22
REMARK    2  A    between atoms: N_3  and  C_4
REMARK    3  A    between atoms: C_8  and  C_9
REMARK    4  A    between atoms: C_9  and  C_10
REMARK                            x       y       z     vdW  Elec       q    Type
REMARK                         _______ _______ _______ _____ _____    ______ ____
ROOT
ATOM      1  C   UNL     1       0.991   9.115  20.681  0.00  0.00    +0.000 A 
ATOM      2  C   UNL     1       0.696   8.878  22.024  0.00  0.00    +0.000 A 
ATOM      3  C   UNL     1      -0.056   9.793  22.764  0.00  0.00    +0.000 A 
ATOM      4  C   UNL     1      -0.540  10.953  22.164  0.00  0.00    +0.000 A 
ATOM      5  C   UNL     1      -0.261  11.217  20.818  0.00  0.00    +0.000 A 
ATOM      6  C   UNL     1       0.539  10.308  20.096  0.00  0.00    +0.000 A 
ENDROOT
BRANCH   1   9
ATOM      7  O   UNL     1       1.452   6.226  21.096  0.00  0.00    +0.000 OA
ATOM      8  C   UNL     1       1.894   6.841  20.132  0.00  0.00    +0.000 C 
ATOM      9  N   UNL     1       1.710   8.198  19.875  0.00  0.00    +0.000 N 
ATOM     10  H   UNL     1       2.006   8.544  18.970  0.00  0.00    +0.000 HD
BRANCH   8  11
ATOM     11  C   UNL     1       2.669   6.099  19.089  0.00  0.00    +0.000 A 
ATOM     12  C   UNL     1       3.601   6.830  18.332  0.00  0.00    +0.000 A 
ATOM     13  C   UNL     1       4.308   6.214  17.305  0.00  0.00    +0.000 A 
ATOM     14  C   UNL     1       4.056   4.880  16.996  0.00  0.00    +0.000 A 
ATOM     15  C   UNL     1       3.125   4.128  17.729  0.00  0.00    +0.000 A 
ATOM     16  C   UNL     1       2.850   2.803  17.347  0.00  0.00    +0.000 A 
ATOM     17  C   UNL     1       1.961   2.014  18.073  0.00  0.00    +0.000 A 
ATOM     18  C   UNL     1       1.376   2.525  19.221  0.00  0.00    +0.000 A 
ATOM     19  C   UNL     1       1.616   3.850  19.595  0.00  0.00    +0.000 A 
ATOM     20  C   UNL     1       2.457   4.708  18.838  0.00  0.00    +0.000 A 
ENDBRANCH   8  11
ENDBRANCH   1   9
BRANCH   5  21
ATOM     21  C   UNL     1      -0.844  12.446  20.154  0.00  0.00    +0.000 C 
BRANCH  21  22
ATOM     22  C   UNL     1      -2.336  12.324  19.858  0.00  0.00    +0.000 A 
ATOM     23  N   UNL     1      -3.143  12.829  20.749  0.00  0.00    +0.000 NA
ATOM     24  N   UNL     1      -4.476  12.745  20.506  0.00  0.00    +0.000 N 
ATOM     25  C   UNL     1      -5.062  12.169  19.411  0.00  0.00    +0.000 A 
ATOM     26  O   UNL     1      -6.278  12.103  19.280  0.00  0.00    +0.000 OA
ATOM     27  C   UNL     1      -4.131  11.649  18.378  0.00  0.00    +0.000 A 
ATOM     28  C   UNL     1      -2.802  11.702  18.571  0.00  0.00    +0.000 A 
ATOM     29  C   UNL     1      -1.823  11.193  17.550  0.00  0.00    +0.000 C 
ATOM     30  C   UNL     1      -2.469  10.356  16.439  0.00  0.00    +0.000 C 
ATOM     31  C   UNL     1      -3.777  10.976  15.965  0.00  0.00    +0.000 C 
ATOM     32  C   UNL     1      -4.764  11.105  17.126  0.00  0.00    +0.000 C 
ATOM     33  H   UNL     1      -5.095  13.108  21.222  0.00  0.00    +0.000 HD
ENDBRANCH  21  22
ENDBRANCH   5  21
TORSDOF 4
ENDMDL
