MODEL 1
REMARK VINA RESULT:      -7.3      0.000      0.000
REMARK  Name = 
REMARK  3 active torsions:
REMARK  status: ('A' for Active; 'I' for Inactive)
REMARK    1  A    between atoms: C_7  and  O_8
REMARK    2  A    between atoms: O_8  and  C_9
REMARK    3  A    between atoms: C_9  and  C_10
REMARK                            x       y       z     vdW  Elec       q    Type
REMARK                         _______ _______ _______ _____ _____    ______ ____
ROOT
ATOM      1  N   UNL     1       7.908   5.345  13.378  0.00  0.00    +0.000 N 
ATOM      2  C   UNL     1       7.242   5.137  14.526  0.00  0.00    +0.000 A 
ATOM      3  N   UNL     1       7.615   5.672  15.658  0.00  0.00    +0.000 NA
ATOM      4  C   UNL     1       6.744   5.302  16.664  0.00  0.00    +0.000 A 
ATOM      5  C   UNL     1       6.822   5.716  18.005  0.00  0.00    +0.000 A 
ATOM      6  C   UNL     1       5.881   5.259  18.932  0.00  0.00    +0.000 A 
ATOM      7  C   UNL     1       4.880   4.371  18.545  0.00  0.00    +0.000 A 
ATOM      8  C   UNL     1       4.759   3.976  17.209  0.00  0.00    +0.000 A 
ATOM      9  C   UNL     1       5.710   4.447  16.284  0.00  0.00    +0.000 A 
ATOM     10  S   UNL     1       5.856   4.131  14.596  0.00  0.00    +0.000 S 
ATOM     11  H   UNL     1       8.844   5.721  13.474  0.00  0.00    +0.000 HD
ATOM     12  H   UNL     1       7.795   4.675  12.627  0.00  0.00    +0.000 HD
ENDROOT
BRANCH   7  13
ATOM     13  O   UNL     1       3.956   3.827  19.402  0.00  0.00    +0.000 OA
BRANCH  13  14
ATOM     14  C   UNL     1       2.591   4.103  19.078  0.00  0.00    +0.000 C 
BRANCH  14  15
ATOM     15  C   UNL     1       2.250   5.516  19.483  0.00  0.00    +0.000 A 
ATOM     16  C   UNL     1       1.700   5.789  20.742  0.00  0.00    +0.000 A 
ATOM     17  C   UNL     1       1.339   7.093  21.085  0.00  0.00    +0.000 A 
ATOM     18  C   UNL     1       1.515   8.138  20.172  0.00  0.00    +0.000 A 
ATOM     19 CL   UNL     1       1.040   9.724  20.664  0.00  0.00    +0.000 Cl
ATOM     20  C   UNL     1       2.054   7.873  18.908  0.00  0.00    +0.000 A 
ATOM     21 CL   UNL     1       2.282   9.106  17.719  0.00  0.00    +0.000 Cl
ATOM     22  C   UNL     1       2.416   6.568  18.568  0.00  0.00    +0.000 A 
ENDBRANCH  14  15
ENDBRANCH  13  14
ENDBRANCH   7  13
TORSDOF 3
ENDMDL
MODEL 2
REMARK VINA RESULT:      -7.0      3.353      4.529
REMARK  Name = 
REMARK  3 active torsions:
REMARK  status: ('A' for Active; 'I' for Inactive)
REMARK    1  A    between atoms: C_7  and  O_8
REMARK    2  A    between atoms: O_8  and  C_9
REMARK    3  A    between atoms: C_9  and  C_10
REMARK                            x       y       z     vdW  Elec       q    Type
REMARK                         _______ _______ _______ _____ _____    ______ ____
ROOT
ATOM      1  N   UNL     1       3.914   0.863  18.180  0.00  0.00    +0.000 N 
ATOM      2  C   UNL     1       3.606   2.160  18.344  0.00  0.00    +0.000 A 
ATOM      3  N   UNL     1       4.180   3.109  17.653  0.00  0.00    +0.000 NA
ATOM      4  C   UNL     1       3.661   4.337  18.018  0.00  0.00    +0.000 A 
ATOM      5  C   UNL     1       4.025   5.575  17.460  0.00  0.00    +0.000 A 
ATOM      6  C   UNL     1       3.432   6.751  17.926  0.00  0.00    +0.000 A 
ATOM      7  C   UNL     1       2.501   6.711  18.963  0.00  0.00    +0.000 A 
ATOM      8  C   UNL     1       2.096   5.488  19.507  0.00  0.00    +0.000 A 
ATOM      9  C   UNL     1       2.696   4.310  19.024  0.00  0.00    +0.000 A 
ATOM     10  S   UNL     1       2.443   2.672  19.495  0.00  0.00    +0.000 S 
ATOM     11  H   UNL     1       4.780   0.676  17.687  0.00  0.00    +0.000 HD
ATOM     12  H   UNL     1       3.707   0.219  18.932  0.00  0.00    +0.000 HD
ENDROOT
BRANCH   7  13
ATOM     13  O   UNL     1       1.918   7.822  19.521  0.00  0.00    +0.000 OA
BRANCH  13  14
ATOM     14  C   UNL     1       1.572   7.697  20.903  0.00  0.00    +0.000 C 
BRANCH  14  15
ATOM     15  C   UNL     1       0.762   8.895  21.332  0.00  0.00    +0.000 A 
ATOM     16  C   UNL     1       0.228   8.975  22.624  0.00  0.00    +0.000 A 
ATOM     17  C   UNL     1      -0.566  10.063  22.993  0.00  0.00    +0.000 A 
ATOM     18  C   UNL     1      -0.840  11.079  22.072  0.00  0.00    +0.000 A 
ATOM     19 CL   UNL     1      -1.834  12.392  22.598  0.00  0.00    +0.000 Cl
ATOM     20  C   UNL     1      -0.320  11.004  20.776  0.00  0.00    +0.000 A 
ATOM     21 CL   UNL     1      -0.632  12.209  19.578  0.00  0.00    +0.000 Cl
ATOM     22  C   UNL     1       0.475   9.915  20.410  0.00  0.00    +0.000 A 
ENDBRANCH  14  15
ENDBRANCH  13  14
ENDBRANCH   7  13
TORSDOF 3
ENDMDL
MODEL 3
REMARK VINA RESULT:      -6.9      3.303      4.633
REMARK  Name = 
REMARK  3 active torsions:
REMARK  status: ('A' for Active; 'I' for Inactive)
REMARK    1  A    between atoms: C_7  and  O_8
REMARK    2  A    between atoms: O_8  and  C_9
REMARK    3  A    between atoms: C_9  and  C_10
REMARK                            x       y       z     vdW  Elec       q    Type
REMARK                         _______ _______ _______ _____ _____    ______ ____
ROOT
ATOM      1  N   UNL     1       5.067   1.564  20.174  0.00  0.00    +0.000 N 
ATOM      2  C   UNL     1       4.530   2.702  19.707  0.00  0.00    +0.000 A 
ATOM      3  N   UNL     1       5.256   3.663  19.200  0.00  0.00    +0.000 NA
ATOM      4  C   UNL     1       4.443   4.701  18.789  0.00  0.00    +0.000 A 
ATOM      5  C   UNL     1       4.881   5.886  18.171  0.00  0.00    +0.000 A 
ATOM      6  C   UNL     1       3.954   6.868  17.812  0.00  0.00    +0.000 A 
ATOM      7  C   UNL     1       2.599   6.698  18.088  0.00  0.00    +0.000 A 
ATOM      8  C   UNL     1       2.136   5.512  18.667  0.00  0.00    +0.000 A 
ATOM      9  C   UNL     1       3.078   4.528  19.019  0.00  0.00    +0.000 A 
ATOM     10  S   UNL     1       2.841   2.991  19.761  0.00  0.00    +0.000 S 
ATOM     11  H   UNL     1       6.065   1.588  20.348  0.00  0.00    +0.000 HD
ATOM     12  H   UNL     1       4.534   1.014  20.837  0.00  0.00    +0.000 HD
ENDROOT
BRANCH   7  13
ATOM     13  O   UNL     1       1.633   7.638  17.825  0.00  0.00    +0.000 OA
BRANCH  13  14
ATOM     14  C   UNL     1       2.029   8.994  18.049  0.00  0.00    +0.000 C 
BRANCH  14  15
ATOM     15  C   UNL     1       1.079   9.644  19.024  0.00  0.00    +0.000 A 
ATOM     16  C   UNL     1       0.257  10.705  18.626  0.00  0.00    +0.000 A 
ATOM     17  C   UNL     1      -0.578  11.335  19.550  0.00  0.00    +0.000 A 
ATOM     18  C   UNL     1      -0.596  10.917  20.884  0.00  0.00    +0.000 A 
ATOM     19 CL   UNL     1      -1.651  11.746  21.972  0.00  0.00    +0.000 Cl
ATOM     20  C   UNL     1       0.229   9.865  21.295  0.00  0.00    +0.000 A 
ATOM     21 CL   UNL     1       0.279   9.306  22.929  0.00  0.00    +0.000 Cl
ATOM     22  C   UNL     1       1.063   9.235  20.367  0.00  0.00    +0.000 A 
ENDBRANCH  14  15
ENDBRANCH  13  14
ENDBRANCH   7  13
TORSDOF 3
ENDMDL
MODEL 4
REMARK VINA RESULT:      -6.9      4.686      6.856
REMARK  Name = 
REMARK  3 active torsions:
REMARK  status: ('A' for Active; 'I' for Inactive)
REMARK    1  A    between atoms: C_7  and  O_8
REMARK    2  A    between atoms: O_8  and  C_9
REMARK    3  A    between atoms: C_9  and  C_10
REMARK                            x       y       z     vdW  Elec       q    Type
REMARK                         _______ _______ _______ _____ _____    ______ ____
ROOT
ATOM      1  N   UNL     1       0.643   2.666  20.803  0.00  0.00    +0.000 N 
ATOM      2  C   UNL     1       1.640   3.378  20.253  0.00  0.00    +0.000 A 
ATOM      3  N   UNL     1       1.422   4.357  19.415  0.00  0.00    +0.000 NA
ATOM      4  C   UNL     1       2.622   4.917  19.022  0.00  0.00    +0.000 A 
ATOM      5  C   UNL     1       2.765   6.010  18.149  0.00  0.00    +0.000 A 
ATOM      6  C   UNL     1       4.041   6.476  17.820  0.00  0.00    +0.000 A 
ATOM      7  C   UNL     1       5.177   5.848  18.327  0.00  0.00    +0.000 A 
ATOM      8  C   UNL     1       5.057   4.784  19.227  0.00  0.00    +0.000 A 
ATOM      9  C   UNL     1       3.767   4.327  19.555  0.00  0.00    +0.000 A 
ATOM     10  S   UNL     1       3.285   3.040  20.594  0.00  0.00    +0.000 S 
ATOM     11  H   UNL     1      -0.260   2.752  20.352  0.00  0.00    +0.000 HD
ATOM     12  H   UNL     1       0.851   1.743  21.164  0.00  0.00    +0.000 HD
ENDROOT
BRANCH   7  13
ATOM     13  O   UNL     1       6.463   6.203  18.007  0.00  0.00    +0.000 OA
BRANCH  13  14
ATOM     14  C   UNL     1       7.297   5.128  17.564  0.00  0.00    +0.000 C 
BRANCH  14  15
ATOM     15  C   UNL     1       6.910   4.732  16.161  0.00  0.00    +0.000 A 
ATOM     16  C   UNL     1       5.934   3.753  15.935  0.00  0.00    +0.000 A 
ATOM     17  C   UNL     1       5.623   3.355  14.634  0.00  0.00    +0.000 A 
ATOM     18  C   UNL     1       6.288   3.925  13.544  0.00  0.00    +0.000 A 
ATOM     19 CL   UNL     1       5.854   3.380  11.963  0.00  0.00    +0.000 Cl
ATOM     20  C   UNL     1       7.272   4.896  13.759  0.00  0.00    +0.000 A 
ATOM     21 CL   UNL     1       8.152   5.629  12.466  0.00  0.00    +0.000 Cl
ATOM     22  C   UNL     1       7.581   5.293  15.063  0.00  0.00    +0.000 A 
ENDBRANCH  14  15
ENDBRANCH  13  14
ENDBRANCH   7  13
TORSDOF 3
ENDMDL
MODEL 5
REMARK VINA RESULT:      -6.8      0.992      1.727
REMARK  Name = 
REMARK  3 active torsions:
REMARK  status: ('A' for Active; 'I' for Inactive)
REMARK    1  A    between atoms: C_7  and  O_8
REMARK    2  A    between atoms: O_8  and  C_9
REMARK    3  A    between atoms: C_9  and  C_10
REMARK                            x       y       z     vdW  Elec       q    Type
REMARK                         _______ _______ _______ _____ _____    ______ ____
ROOT
ATOM      1  N   UNL     1       7.665   5.139  13.293  0.00  0.00    +0.000 N 
ATOM      2  C   UNL     1       7.067   5.145  14.495  0.00  0.00    +0.000 A 
ATOM      3  N   UNL     1       7.688   5.516  15.583  0.00  0.00    +0.000 NA
ATOM      4  C   UNL     1       6.832   5.437  16.665  0.00  0.00    +0.000 A 
ATOM      5  C   UNL     1       7.153   5.787  17.988  0.00  0.00    +0.000 A 
ATOM      6  C   UNL     1       6.196   5.649  18.997  0.00  0.00    +0.000 A 
ATOM      7  C   UNL     1       4.931   5.138  18.709  0.00  0.00    +0.000 A 
ATOM      8  C   UNL     1       4.577   4.820  17.394  0.00  0.00    +0.000 A 
ATOM      9  C   UNL     1       5.548   4.968  16.386  0.00  0.00    +0.000 A 
ATOM     10  S   UNL     1       5.441   4.642  14.697  0.00  0.00    +0.000 S 
ATOM     11  H   UNL     1       8.677   5.189  13.304  0.00  0.00    +0.000 HD
ATOM     12  H   UNL     1       7.278   4.551  12.564  0.00  0.00    +0.000 HD
ENDROOT
BRANCH   7  13
ATOM     13  O   UNL     1       3.957   4.914  19.649  0.00  0.00    +0.000 OA
BRANCH  13  14
ATOM     14  C   UNL     1       2.614   5.040  19.173  0.00  0.00    +0.000 C 
BRANCH  14  15
ATOM     15  C   UNL     1       2.170   6.477  19.284  0.00  0.00    +0.000 A 
ATOM     16  C   UNL     1       2.211   7.328  18.173  0.00  0.00    +0.000 A 
ATOM     17  C   UNL     1       1.850   8.671  18.300  0.00  0.00    +0.000 A 
ATOM     18  C   UNL     1       1.450   9.179  19.540  0.00  0.00    +0.000 A 
ATOM     19 CL   UNL     1       1.022  10.851  19.623  0.00  0.00    +0.000 Cl
ATOM     20  C   UNL     1       1.415   8.339  20.658  0.00  0.00    +0.000 A 
ATOM     21 CL   UNL     1       0.954   8.899  22.226  0.00  0.00    +0.000 Cl
ATOM     22  C   UNL     1       1.776   6.996  20.528  0.00  0.00    +0.000 A 
ENDBRANCH  14  15
ENDBRANCH  13  14
ENDBRANCH   7  13
TORSDOF 3
ENDMDL
MODEL 6
REMARK VINA RESULT:      -6.8      3.056      4.267
REMARK  Name = 
REMARK  3 active torsions:
REMARK  status: ('A' for Active; 'I' for Inactive)
REMARK    1  A    between atoms: C_7  and  O_8
REMARK    2  A    between atoms: O_8  and  C_9
REMARK    3  A    between atoms: C_9  and  C_10
REMARK                            x       y       z     vdW  Elec       q    Type
REMARK                         _______ _______ _______ _____ _____    ______ ____
ROOT
ATOM      1  N   UNL     1       8.074   4.265  17.735  0.00  0.00    +0.000 N 
ATOM      2  C   UNL     1       6.886   4.876  17.869  0.00  0.00    +0.000 A 
ATOM      3  N   UNL     1       6.027   4.541  18.795  0.00  0.00    +0.000 NA
ATOM      4  C   UNL     1       4.904   5.341  18.708  0.00  0.00    +0.000 A 
ATOM      5  C   UNL     1       3.790   5.280  19.563  0.00  0.00    +0.000 A 
ATOM      6  C   UNL     1       2.709   6.142  19.361  0.00  0.00    +0.000 A 
ATOM      7  C   UNL     1       2.711   7.045  18.299  0.00  0.00    +0.000 A 
ATOM      8  C   UNL     1       3.825   7.150  17.460  0.00  0.00    +0.000 A 
ATOM      9  C   UNL     1       4.910   6.280  17.676  0.00  0.00    +0.000 A 
ATOM     10  S   UNL     1       6.396   6.137  16.817  0.00  0.00    +0.000 S 
ATOM     11  H   UNL     1       8.167   3.375  18.212  0.00  0.00    +0.000 HD
ATOM     12  H   UNL     1       8.546   4.317  16.840  0.00  0.00    +0.000 HD
ENDROOT
BRANCH   7  13
ATOM     13  O   UNL     1       1.667   7.881  17.994  0.00  0.00    +0.000 OA
BRANCH  13  14
ATOM     14  C   UNL     1       2.003   9.269  17.915  0.00  0.00    +0.000 C 
BRANCH  14  15
ATOM     15  C   UNL     1       0.866  10.097  18.459  0.00  0.00    +0.000 A 
ATOM     16  C   UNL     1      -0.450   9.876  18.035  0.00  0.00    +0.000 A 
ATOM     17  C   UNL     1      -1.487  10.685  18.503  0.00  0.00    +0.000 A 
ATOM     18  C   UNL     1      -1.220  11.728  19.396  0.00  0.00    +0.000 A 
ATOM     19 CL   UNL     1      -2.553  12.690  19.930  0.00  0.00    +0.000 Cl
ATOM     20  C   UNL     1       0.092  11.963  19.818  0.00  0.00    +0.000 A 
ATOM     21 CL   UNL     1       0.504  13.244  20.901  0.00  0.00    +0.000 Cl
ATOM     22  C   UNL     1       1.128  11.152  19.348  0.00  0.00    +0.000 A 
ENDBRANCH  14  15
ENDBRANCH  13  14
ENDBRANCH   7  13
TORSDOF 3
ENDMDL
MODEL 7
REMARK VINA RESULT:      -6.7      4.029      5.225
REMARK  Name = 
REMARK  3 active torsions:
REMARK  status: ('A' for Active; 'I' for Inactive)
REMARK    1  A    between atoms: C_7  and  O_8
REMARK    2  A    between atoms: O_8  and  C_9
REMARK    3  A    between atoms: C_9  and  C_10
REMARK                            x       y       z     vdW  Elec       q    Type
REMARK                         _______ _______ _______ _____ _____    ______ ____
ROOT
ATOM      1  N   UNL     1       5.930   3.941  17.066  0.00  0.00    +0.000 N 
ATOM      2  C   UNL     1       5.094   4.932  17.415  0.00  0.00    +0.000 A 
ATOM      3  N   UNL     1       4.339   4.869  18.479  0.00  0.00    +0.000 NA
ATOM      4  C   UNL     1       3.596   6.027  18.600  0.00  0.00    +0.000 A 
ATOM      5  C   UNL     1       2.698   6.317  19.642  0.00  0.00    +0.000 A 
ATOM      6  C   UNL     1       1.996   7.525  19.642  0.00  0.00    +0.000 A 
ATOM      7  C   UNL     1       2.155   8.437  18.599  0.00  0.00    +0.000 A 
ATOM      8  C   UNL     1       3.071   8.187  17.572  0.00  0.00    +0.000 A 
ATOM      9  C   UNL     1       3.777   6.969  17.587  0.00  0.00    +0.000 A 
ATOM     10  S   UNL     1       4.938   6.355  16.472  0.00  0.00    +0.000 S 
ATOM     11  H   UNL     1       5.764   3.048  17.515  0.00  0.00    +0.000 HD
ATOM     12  H   UNL     1       6.231   3.880  16.101  0.00  0.00    +0.000 HD
ENDROOT
BRANCH   7  13
ATOM     13  O   UNL     1       1.460   9.615  18.491  0.00  0.00    +0.000 OA
BRANCH  13  14
ATOM     14  C   UNL     1       0.437   9.809  19.472  0.00  0.00    +0.000 C 
BRANCH  14  15
ATOM     15  C   UNL     1      -0.802  10.358  18.809  0.00  0.00    +0.000 A 
ATOM     16  C   UNL     1      -1.587  11.328  19.446  0.00  0.00    +0.000 A 
ATOM     17  C   UNL     1      -2.760  11.789  18.847  0.00  0.00    +0.000 A 
ATOM     18  C   UNL     1      -3.167  11.282  17.609  0.00  0.00    +0.000 A 
ATOM     19 CL   UNL     1      -4.633  11.896  16.932  0.00  0.00    +0.000 Cl
ATOM     20  C   UNL     1      -2.396  10.306  16.970  0.00  0.00    +0.000 A 
ATOM     21 CL   UNL     1      -2.843   9.616  15.451  0.00  0.00    +0.000 Cl
ATOM     22  C   UNL     1      -1.221   9.847  17.570  0.00  0.00    +0.000 A 
ENDBRANCH  14  15
ENDBRANCH  13  14
ENDBRANCH   7  13
TORSDOF 3
ENDMDL
MODEL 8
REMARK VINA RESULT:      -6.7      2.606      3.774
REMARK  Name = 
REMARK  3 active torsions:
REMARK  status: ('A' for Active; 'I' for Inactive)
REMARK    1  A    between atoms: C_7  and  O_8
REMARK    2  A    between atoms: O_8  and  C_9
REMARK    3  A    between atoms: C_9  and  C_10
REMARK                            x       y       z     vdW  Elec       q    Type
REMARK                         _______ _______ _______ _____ _____    ______ ____
ROOT
ATOM      1  N   UNL     1       7.960   4.323  17.172  0.00  0.00    +0.000 N 
ATOM      2  C   UNL     1       6.745   4.874  17.322  0.00  0.00    +0.000 A 
ATOM      3  N   UNL     1       5.684   4.164  17.603  0.00  0.00    +0.000 NA
ATOM      4  C   UNL     1       4.581   4.988  17.713  0.00  0.00    +0.000 A 
ATOM      5  C   UNL     1       3.278   4.569  18.035  0.00  0.00    +0.000 A 
ATOM      6  C   UNL     1       2.242   5.505  18.104  0.00  0.00    +0.000 A 
ATOM      7  C   UNL     1       2.483   6.849  17.827  0.00  0.00    +0.000 A 
ATOM      8  C   UNL     1       3.778   7.294  17.543  0.00  0.00    +0.000 A 
ATOM      9  C   UNL     1       4.814   6.343  17.482  0.00  0.00    +0.000 A 
ATOM     10  S   UNL     1       6.487   6.558  17.134  0.00  0.00    +0.000 S 
ATOM     11  H   UNL     1       7.974   3.319  17.036  0.00  0.00    +0.000 HD
ATOM     12  H   UNL     1       8.659   4.832  16.646  0.00  0.00    +0.000 HD
ENDROOT
BRANCH   7  13
ATOM     13  O   UNL     1       1.513   7.820  17.812  0.00  0.00    +0.000 OA
BRANCH  13  14
ATOM     14  C   UNL     1       1.940   9.112  18.253  0.00  0.00    +0.000 C 
BRANCH  14  15
ATOM     15  C   UNL     1       1.208   9.483  19.519  0.00  0.00    +0.000 A 
ATOM     16  C   UNL     1       1.203   8.622  20.623  0.00  0.00    +0.000 A 
ATOM     17  C   UNL     1       0.478   8.951  21.770  0.00  0.00    +0.000 A 
ATOM     18  C   UNL     1      -0.257  10.139  21.823  0.00  0.00    +0.000 A 
ATOM     19 CL   UNL     1      -1.135  10.477  23.272  0.00  0.00    +0.000 Cl
ATOM     20  C   UNL     1      -0.267  11.001  20.721  0.00  0.00    +0.000 A 
ATOM     21 CL   UNL     1      -1.168  12.475  20.702  0.00  0.00    +0.000 Cl
ATOM     22  C   UNL     1       0.461  10.670  19.575  0.00  0.00    +0.000 A 
ENDBRANCH  14  15
ENDBRANCH  13  14
ENDBRANCH   7  13
TORSDOF 3
ENDMDL
MODEL 9
REMARK VINA RESULT:      -6.7      4.014      5.372
REMARK  Name = 
REMARK  3 active torsions:
REMARK  status: ('A' for Active; 'I' for Inactive)
REMARK    1  A    between atoms: C_7  and  O_8
REMARK    2  A    between atoms: O_8  and  C_9
REMARK    3  A    between atoms: C_9  and  C_10
REMARK                            x       y       z     vdW  Elec       q    Type
REMARK                         _______ _______ _______ _____ _____    ______ ____
ROOT
ATOM      1  N   UNL     1       4.766   2.106  19.459  0.00  0.00    +0.000 N 
ATOM      2  C   UNL     1       4.224   3.330  19.347  0.00  0.00    +0.000 A 
ATOM      3  N   UNL     1       4.521   4.140  18.366  0.00  0.00    +0.000 NA
ATOM      4  C   UNL     1       3.809   5.317  18.495  0.00  0.00    +0.000 A 
ATOM      5  C   UNL     1       3.858   6.403  17.603  0.00  0.00    +0.000 A 
ATOM      6  C   UNL     1       3.094   7.545  17.854  0.00  0.00    +0.000 A 
ATOM      7  C   UNL     1       2.303   7.632  18.999  0.00  0.00    +0.000 A 
ATOM      8  C   UNL     1       2.209   6.550  19.879  0.00  0.00    +0.000 A 
ATOM      9  C   UNL     1       2.979   5.402  19.613  0.00  0.00    +0.000 A 
ATOM     10  S   UNL     1       3.109   3.932  20.502  0.00  0.00    +0.000 S 
ATOM     11  H   UNL     1       5.595   1.940  18.900  0.00  0.00    +0.000 HD
ATOM     12  H   UNL     1       4.771   1.662  20.369  0.00  0.00    +0.000 HD
ENDROOT
BRANCH   7  13
ATOM     13  O   UNL     1       1.572   8.739  19.350  0.00  0.00    +0.000 OA
BRANCH  13  14
ATOM     14  C   UNL     1       1.385   9.700  18.307  0.00  0.00    +0.000 C 
BRANCH  14  15
ATOM     15  C   UNL     1      -0.042  10.189  18.320  0.00  0.00    +0.000 A 
ATOM     16  C   UNL     1      -1.002   9.626  17.470  0.00  0.00    +0.000 A 
ATOM     17  C   UNL     1      -2.306  10.124  17.452  0.00  0.00    +0.000 A 
ATOM     18  C   UNL     1      -2.664  11.195  18.277  0.00  0.00    +0.000 A 
ATOM     19 CL   UNL     1      -4.294  11.761  18.198  0.00  0.00    +0.000 Cl
ATOM     20  C   UNL     1      -1.709  11.771  19.122  0.00  0.00    +0.000 A 
ATOM     21 CL   UNL     1      -2.069  13.109  20.154  0.00  0.00    +0.000 Cl
ATOM     22  C   UNL     1      -0.405  11.270  19.140  0.00  0.00    +0.000 A 
ENDBRANCH  14  15
ENDBRANCH  13  14
ENDBRANCH   7  13
TORSDOF 3
ENDMDL
