MODEL 1
REMARK VINA RESULT:      -9.0      0.000      0.000
REMARK  Name = 
REMARK  6 active torsions:
REMARK  status: ('A' for Active; 'I' for Inactive)
REMARK    1  A    between atoms: C_1  and  O_2
REMARK    2  A    between atoms: O_2  and  C_3
REMARK    3  A    between atoms: C_6  and  N_7
REMARK    4  A    between atoms: N_7  and  C_8
REMARK    5  A    between atoms: C_14  and  C_15
REMARK    6  A    between atoms: C_19  and  N_20
REMARK                            x       y       z     vdW  Elec       q    Type
REMARK                         _______ _______ _______ _____ _____    ______ ____
ROOT
ATOM      1  C   UNL     1       3.847   3.440  19.588  0.00  0.00    +0.000 A 
ATOM      2  N   UNL     1       3.654   2.350  20.376  0.00  0.00    +0.000 NA
ATOM      3  C   UNL     1       2.791   2.405  21.401  0.00  0.00    +0.000 A 
ATOM      4  N   UNL     1       2.055   3.451  21.792  0.00  0.00    +0.000 NA
ATOM      5  C   UNL     1       2.289   4.519  21.019  0.00  0.00    +0.000 A 
ATOM      6  N   UNL     1       1.672   5.724  21.171  0.00  0.00    +0.000 N 
ATOM      7  C   UNL     1       2.119   6.621  20.224  0.00  0.00    +0.000 A 
ATOM      8  C   UNL     1       3.032   5.936  19.438  0.00  0.00    +0.000 A 
ATOM      9  C   UNL     1       3.148   4.608  19.938  0.00  0.00    +0.000 A 
ATOM     10  H   UNL     1       0.961   5.896  21.867  0.00  0.00    +0.000 HD
ENDROOT
BRANCH   7  11
ATOM     11  C   UNL     1       1.610   7.986  20.130  0.00  0.00    +0.000 A 
ATOM     12  C   UNL     1       1.673   8.690  18.917  0.00  0.00    +0.000 A 
ATOM     13  C   UNL     1       1.246  10.015  18.836  0.00  0.00    +0.000 A 
ATOM     14  C   UNL     1       0.744  10.655  19.966  0.00  0.00    +0.000 A 
ATOM     15  C   UNL     1       0.654   9.951  21.173  0.00  0.00    +0.000 A 
ATOM     16  C   UNL     1       1.073   8.617  21.257  0.00  0.00    +0.000 A 
BRANCH  15  17
ATOM     17  N   UNL     1       0.136  10.622  22.372  0.00  0.00    +0.000 N 
ATOM     18  O   UNL     1      -0.230  11.803  22.258  0.00  0.00    +0.000 OA
ATOM     19  O   UNL     1       0.098   9.973  23.426  0.00  0.00    +0.000 OA
ENDBRANCH  15  17
ENDBRANCH   7  11
BRANCH   1  20
ATOM     20  N   UNL     1       4.658   3.388  18.440  0.00  0.00    +0.000 N 
ATOM     21  H   UNL     1       4.976   2.451  18.235  0.00  0.00    +0.000 HD
BRANCH  20  25
ATOM     22  C   UNL     1       7.172   6.497  17.057  0.00  0.00    +0.000 A 
ATOM     23  C   UNL     1       7.380   5.905  18.302  0.00  0.00    +0.000 A 
ATOM     24  C   UNL     1       6.569   4.850  18.733  0.00  0.00    +0.000 A 
ATOM     25  C   UNL     1       5.507   4.394  17.941  0.00  0.00    +0.000 A 
ATOM     26  C   UNL     1       5.333   4.983  16.684  0.00  0.00    +0.000 A 
ATOM     27  C   UNL     1       6.140   6.034  16.249  0.00  0.00    +0.000 A 
BRANCH  22  29
ATOM     28  C   UNL     1       7.948   8.645  17.624  0.00  0.00    +0.000 C 
ATOM     29  O   UNL     1       8.009   7.529  16.740  0.00  0.00    +0.000 OA
ENDBRANCH  22  29
ENDBRANCH  20  25
ENDBRANCH   1  20
TORSDOF 5
ENDMDL
MODEL 2
REMARK VINA RESULT:      -8.6      1.629      2.242
REMARK  Name = 
REMARK  6 active torsions:
REMARK  status: ('A' for Active; 'I' for Inactive)
REMARK    1  A    between atoms: C_1  and  O_2
REMARK    2  A    between atoms: O_2  and  C_3
REMARK    3  A    between atoms: C_6  and  N_7
REMARK    4  A    between atoms: N_7  and  C_8
REMARK    5  A    between atoms: C_14  and  C_15
REMARK    6  A    between atoms: C_19  and  N_20
REMARK                            x       y       z     vdW  Elec       q    Type
REMARK                         _______ _______ _______ _____ _____    ______ ____
ROOT
ATOM      1  C   UNL     1       4.536   3.757  19.356  0.00  0.00    +0.000 A 
ATOM      2  N   UNL     1       4.178   2.473  19.624  0.00  0.00    +0.000 NA
ATOM      3  C   UNL     1       2.954   2.201  20.101  0.00  0.00    +0.000 A 
ATOM      4  N   UNL     1       1.976   3.070  20.378  0.00  0.00    +0.000 NA
ATOM      5  C   UNL     1       2.366   4.328  20.135  0.00  0.00    +0.000 A 
ATOM      6  N   UNL     1       1.575   5.423  20.311  0.00  0.00    +0.000 N 
ATOM      7  C   UNL     1       2.256   6.573  19.973  0.00  0.00    +0.000 A 
ATOM      8  C   UNL     1       3.512   6.171  19.546  0.00  0.00    +0.000 A 
ATOM      9  C   UNL     1       3.590   4.754  19.650  0.00  0.00    +0.000 A 
ATOM     10  H   UNL     1       0.614   5.366  20.613  0.00  0.00    +0.000 HD
ENDROOT
BRANCH   7  11
ATOM     11  C   UNL     1       1.645   7.897  20.037  0.00  0.00    +0.000 A 
ATOM     12  C   UNL     1       1.656   8.745  18.917  0.00  0.00    +0.000 A 
ATOM     13  C   UNL     1       1.131  10.034  18.991  0.00  0.00    +0.000 A 
ATOM     14  C   UNL     1       0.581  10.495  20.184  0.00  0.00    +0.000 A 
ATOM     15  C   UNL     1       0.542   9.646  21.297  0.00  0.00    +0.000 A 
ATOM     16  C   UNL     1       1.061   8.347  21.226  0.00  0.00    +0.000 A 
BRANCH  15  17
ATOM     17  N   UNL     1      -0.026  10.128  22.562  0.00  0.00    +0.000 N 
ATOM     18  O   UNL     1      -0.958  10.946  22.500  0.00  0.00    +0.000 OA
ATOM     19  O   UNL     1       0.459   9.695  23.616  0.00  0.00    +0.000 OA
ENDBRANCH  15  17
ENDBRANCH   7  11
BRANCH   1  20
ATOM     20  N   UNL     1       5.767   4.070  18.753  0.00  0.00    +0.000 N 
ATOM     21  H   UNL     1       6.367   4.611  19.360  0.00  0.00    +0.000 HD
BRANCH  20  25
ATOM     22  C   UNL     1       6.537   4.498  14.615  0.00  0.00    +0.000 A 
ATOM     23  C   UNL     1       5.327   3.976  15.070  0.00  0.00    +0.000 A 
ATOM     24  C   UNL     1       5.066   3.876  16.440  0.00  0.00    +0.000 A 
ATOM     25  C   UNL     1       6.029   4.261  17.383  0.00  0.00    +0.000 A 
ATOM     26  C   UNL     1       7.224   4.808  16.905  0.00  0.00    +0.000 A 
ATOM     27  C   UNL     1       7.490   4.911  15.539  0.00  0.00    +0.000 A 
BRANCH  22  29
ATOM     28  C   UNL     1       6.077   3.468  12.551  0.00  0.00    +0.000 C 
ATOM     29  O   UNL     1       6.698   4.536  13.259  0.00  0.00    +0.000 OA
ENDBRANCH  22  29
ENDBRANCH  20  25
ENDBRANCH   1  20
TORSDOF 5
ENDMDL
MODEL 3
REMARK VINA RESULT:      -8.6      0.497      1.047
REMARK  Name = 
REMARK  6 active torsions:
REMARK  status: ('A' for Active; 'I' for Inactive)
REMARK    1  A    between atoms: C_1  and  O_2
REMARK    2  A    between atoms: O_2  and  C_3
REMARK    3  A    between atoms: C_6  and  N_7
REMARK    4  A    between atoms: N_7  and  C_8
REMARK    5  A    between atoms: C_14  and  C_15
REMARK    6  A    between atoms: C_19  and  N_20
REMARK                            x       y       z     vdW  Elec       q    Type
REMARK                         _______ _______ _______ _____ _____    ______ ____
ROOT
ATOM      1  C   UNL     1       4.137   3.583  19.683  0.00  0.00    +0.000 A 
ATOM      2  N   UNL     1       3.832   2.405  20.289  0.00  0.00    +0.000 NA
ATOM      3  C   UNL     1       2.753   2.316  21.081  0.00  0.00    +0.000 A 
ATOM      4  N   UNL     1       1.885   3.286  21.389  0.00  0.00    +0.000 NA
ATOM      5  C   UNL     1       2.228   4.441  20.804  0.00  0.00    +0.000 A 
ATOM      6  N   UNL     1       1.521   5.600  20.926  0.00  0.00    +0.000 N 
ATOM      7  C   UNL     1       2.122   6.611  20.207  0.00  0.00    +0.000 A 
ATOM      8  C   UNL     1       3.232   6.050  19.595  0.00  0.00    +0.000 A 
ATOM      9  C   UNL     1       3.307   4.679  19.973  0.00  0.00    +0.000 A 
ATOM     10  H   UNL     1       0.660   5.668  21.447  0.00  0.00    +0.000 HD
ENDROOT
BRANCH   7  11
ATOM     11  C   UNL     1       1.568   7.960  20.132  0.00  0.00    +0.000 A 
ATOM     12  C   UNL     1       1.646   8.700  18.941  0.00  0.00    +0.000 A 
ATOM     13  C   UNL     1       1.175  10.011  18.882  0.00  0.00    +0.000 A 
ATOM     14  C   UNL     1       0.613  10.601  20.011  0.00  0.00    +0.000 A 
ATOM     15  C   UNL     1       0.508   9.860  21.194  0.00  0.00    +0.000 A 
ATOM     16  C   UNL     1       0.972   8.540  21.257  0.00  0.00    +0.000 A 
BRANCH  15  17
ATOM     17  N   UNL     1      -0.073  10.479  22.392  0.00  0.00    +0.000 N 
ATOM     18  O   UNL     1      -0.770  11.494  22.236  0.00  0.00    +0.000 OA
ATOM     19  O   UNL     1       0.169   9.955  23.489  0.00  0.00    +0.000 OA
ENDBRANCH  15  17
ENDBRANCH   7  11
BRANCH   1  20
ATOM     20  N   UNL     1       5.193   3.687  18.760  0.00  0.00    +0.000 N 
ATOM     21  H   UNL     1       5.736   2.836  18.698  0.00  0.00    +0.000 HD
BRANCH  20  25
ATOM     22  C   UNL     1       7.394   7.097  17.565  0.00  0.00    +0.000 A 
ATOM     23  C   UNL     1       6.301   6.651  16.823  0.00  0.00    +0.000 A 
ATOM     24  C   UNL     1       5.556   5.547  17.249  0.00  0.00    +0.000 A 
ATOM     25  C   UNL     1       5.914   4.843  18.406  0.00  0.00    +0.000 A 
ATOM     26  C   UNL     1       6.997   5.324  19.150  0.00  0.00    +0.000 A 
ATOM     27  C   UNL     1       7.743   6.425  18.731  0.00  0.00    +0.000 A 
BRANCH  22  29
ATOM     28  C   UNL     1       8.289   9.233  17.977  0.00  0.00    +0.000 C 
ATOM     29  O   UNL     1       8.064   8.172  17.054  0.00  0.00    +0.000 OA
ENDBRANCH  22  29
ENDBRANCH  20  25
ENDBRANCH   1  20
TORSDOF 5
ENDMDL
MODEL 4
REMARK VINA RESULT:      -8.6      1.319      1.917
REMARK  Name = 
REMARK  6 active torsions:
REMARK  status: ('A' for Active; 'I' for Inactive)
REMARK    1  A    between atoms: C_1  and  O_2
REMARK    2  A    between atoms: O_2  and  C_3
REMARK    3  A    between atoms: C_6  and  N_7
REMARK    4  A    between atoms: N_7  and  C_8
REMARK    5  A    between atoms: C_14  and  C_15
REMARK    6  A    between atoms: C_19  and  N_20
REMARK                            x       y       z     vdW  Elec       q    Type
REMARK                         _______ _______ _______ _____ _____    ______ ____
ROOT
ATOM      1  C   UNL     1       3.560   3.322  19.160  0.00  0.00    +0.000 A 
ATOM      2  N   UNL     1       3.467   2.395  20.149  0.00  0.00    +0.000 NA
ATOM      3  C   UNL     1       2.865   2.704  21.307  0.00  0.00    +0.000 A 
ATOM      4  N   UNL     1       2.316   3.874  21.654  0.00  0.00    +0.000 NA
ATOM      5  C   UNL     1       2.450   4.776  20.674  0.00  0.00    +0.000 A 
ATOM      6  N   UNL     1       1.975   6.052  20.738  0.00  0.00    +0.000 N 
ATOM      7  C   UNL     1       2.264   6.736  19.576  0.00  0.00    +0.000 A 
ATOM      8  C   UNL     1       2.922   5.840  18.749  0.00  0.00    +0.000 A 
ATOM      9  C   UNL     1       3.047   4.601  19.438  0.00  0.00    +0.000 A 
ATOM     10  H   UNL     1       1.454   6.408  21.526  0.00  0.00    +0.000 HD
ENDROOT
BRANCH   7  11
ATOM     11  C   UNL     1       1.850   8.118  19.353  0.00  0.00    +0.000 A 
ATOM     12  C   UNL     1       2.083   8.744  18.117  0.00  0.00    +0.000 A 
ATOM     13  C   UNL     1       1.748  10.082  17.919  0.00  0.00    +0.000 A 
ATOM     14  C   UNL     1       1.170  10.816  18.951  0.00  0.00    +0.000 A 
ATOM     15  C   UNL     1       0.910  10.192  20.177  0.00  0.00    +0.000 A 
ATOM     16  C   UNL     1       1.237   8.845  20.380  0.00  0.00    +0.000 A 
BRANCH  15  17
ATOM     17  N   UNL     1       0.311  10.961  21.275  0.00  0.00    +0.000 N 
ATOM     18  O   UNL     1       0.379  10.482  22.418  0.00  0.00    +0.000 OA
ATOM     19  O   UNL     1      -0.232  12.040  20.996  0.00  0.00    +0.000 OA
ENDBRANCH  15  17
ENDBRANCH   7  11
BRANCH   1  20
ATOM     20  N   UNL     1       4.084   3.003  17.895  0.00  0.00    +0.000 N 
ATOM     21  H   UNL     1       4.114   2.006  17.730  0.00  0.00    +0.000 HD
BRANCH  20  25
ATOM     22  C   UNL     1       6.962   5.058  15.571  0.00  0.00    +0.000 A 
ATOM     23  C   UNL     1       5.766   4.616  15.007  0.00  0.00    +0.000 A 
ATOM     24  C   UNL     1       4.804   3.973  15.793  0.00  0.00    +0.000 A 
ATOM     25  C   UNL     1       5.038   3.726  17.152  0.00  0.00    +0.000 A 
ATOM     26  C   UNL     1       6.231   4.202  17.703  0.00  0.00    +0.000 A 
ATOM     27  C   UNL     1       7.194   4.845  16.925  0.00  0.00    +0.000 A 
BRANCH  22  29
ATOM     28  C   UNL     1       7.757   5.214  13.362  0.00  0.00    +0.000 C 
ATOM     29  O   UNL     1       7.840   5.658  14.714  0.00  0.00    +0.000 OA
ENDBRANCH  22  29
ENDBRANCH  20  25
ENDBRANCH   1  20
TORSDOF 5
ENDMDL
MODEL 5
REMARK VINA RESULT:      -8.5      1.474      2.021
REMARK  Name = 
REMARK  6 active torsions:
REMARK  status: ('A' for Active; 'I' for Inactive)
REMARK    1  A    between atoms: C_1  and  O_2
REMARK    2  A    between atoms: O_2  and  C_3
REMARK    3  A    between atoms: C_6  and  N_7
REMARK    4  A    between atoms: N_7  and  C_8
REMARK    5  A    between atoms: C_14  and  C_15
REMARK    6  A    between atoms: C_19  and  N_20
REMARK                            x       y       z     vdW  Elec       q    Type
REMARK                         _______ _______ _______ _____ _____    ______ ____
ROOT
ATOM      1  C   UNL     1       3.513   3.678  18.384  0.00  0.00    +0.000 A 
ATOM      2  N   UNL     1       3.727   2.563  19.132  0.00  0.00    +0.000 NA
ATOM      3  C   UNL     1       3.390   2.550  20.430  0.00  0.00    +0.000 A 
ATOM      4  N   UNL     1       2.850   3.545  21.143  0.00  0.00    +0.000 NA
ATOM      5  C   UNL     1       2.680   4.639  20.390  0.00  0.00    +0.000 A 
ATOM      6  N   UNL     1       2.137   5.804  20.842  0.00  0.00    +0.000 N 
ATOM      7  C   UNL     1       2.092   6.742  19.833  0.00  0.00    +0.000 A 
ATOM      8  C   UNL     1       2.605   6.125  18.703  0.00  0.00    +0.000 A 
ATOM      9  C   UNL     1       2.983   4.797  19.049  0.00  0.00    +0.000 A 
ATOM     10  H   UNL     1       1.790   5.922  21.783  0.00  0.00    +0.000 HD
ENDROOT
BRANCH   7  11
ATOM     11  C   UNL     1       1.533   8.077  20.025  0.00  0.00    +0.000 A 
ATOM     12  C   UNL     1       1.591   9.031  18.995  0.00  0.00    +0.000 A 
ATOM     13  C   UNL     1       1.117  10.326  19.194  0.00  0.00    +0.000 A 
ATOM     14  C   UNL     1       0.571  10.688  20.422  0.00  0.00    +0.000 A 
ATOM     15  C   UNL     1       0.485   9.735  21.444  0.00  0.00    +0.000 A 
ATOM     16  C   UNL     1       0.953   8.429  21.248  0.00  0.00    +0.000 A 
BRANCH  15  17
ATOM     17  N   UNL     1      -0.079  10.111  22.746  0.00  0.00    +0.000 N 
ATOM     18  O   UNL     1      -1.047  10.888  22.751  0.00  0.00    +0.000 OA
ATOM     19  O   UNL     1       0.445   9.636  23.763  0.00  0.00    +0.000 OA
ENDBRANCH  15  17
ENDBRANCH   7  11
BRANCH   1  20
ATOM     20  N   UNL     1       3.749   3.693  16.998  0.00  0.00    +0.000 N 
ATOM     21  H   UNL     1       3.318   2.911  16.524  0.00  0.00    +0.000 HD
BRANCH  20  25
ATOM     22  C   UNL     1       7.136   5.123  14.905  0.00  0.00    +0.000 A 
ATOM     23  C   UNL     1       6.023   4.635  14.221  0.00  0.00    +0.000 A 
ATOM     24  C   UNL     1       4.892   4.203  14.922  0.00  0.00    +0.000 A 
ATOM     25  C   UNL     1       4.870   4.214  16.323  0.00  0.00    +0.000 A 
ATOM     26  C   UNL     1       5.986   4.733  16.987  0.00  0.00    +0.000 A 
ATOM     27  C   UNL     1       7.116   5.166  16.293  0.00  0.00    +0.000 A 
BRANCH  22  29
ATOM     28  C   UNL     1       7.998   5.338  12.726  0.00  0.00    +0.000 C 
ATOM     29  O   UNL     1       8.194   5.504  14.127  0.00  0.00    +0.000 OA
ENDBRANCH  22  29
ENDBRANCH  20  25
ENDBRANCH   1  20
TORSDOF 5
ENDMDL
MODEL 6
REMARK VINA RESULT:      -8.5      1.436      1.946
REMARK  Name = 
REMARK  6 active torsions:
REMARK  status: ('A' for Active; 'I' for Inactive)
REMARK    1  A    between atoms: C_1  and  O_2
REMARK    2  A    between atoms: O_2  and  C_3
REMARK    3  A    between atoms: C_6  and  N_7
REMARK    4  A    between atoms: N_7  and  C_8
REMARK    5  A    between atoms: C_14  and  C_15
REMARK    6  A    between atoms: C_19  and  N_20
REMARK                            x       y       z     vdW  Elec       q    Type
REMARK                         _______ _______ _______ _____ _____    ______ ____
ROOT
ATOM      1  C   UNL     1       4.308   3.595  19.486  0.00  0.00    +0.000 A 
ATOM      2  N   UNL     1       3.867   2.327  19.698  0.00  0.00    +0.000 NA
ATOM      3  C   UNL     1       2.605   2.111  20.097  0.00  0.00    +0.000 A 
ATOM      4  N   UNL     1       1.660   3.026  20.343  0.00  0.00    +0.000 NA
ATOM      5  C   UNL     1       2.131   4.266  20.156  0.00  0.00    +0.000 A 
ATOM      6  N   UNL     1       1.391   5.398  20.318  0.00  0.00    +0.000 N 
ATOM      7  C   UNL     1       2.151   6.517  20.050  0.00  0.00    +0.000 A 
ATOM      8  C   UNL     1       3.406   6.057  19.684  0.00  0.00    +0.000 A 
ATOM      9  C   UNL     1       3.401   4.635  19.754  0.00  0.00    +0.000 A 
ATOM     10  H   UNL     1       0.412   5.387  20.564  0.00  0.00    +0.000 HD
ENDROOT
BRANCH   7  11
ATOM     11  C   UNL     1       1.609   7.871  20.116  0.00  0.00    +0.000 A 
ATOM     12  C   UNL     1       1.576   8.684  18.972  0.00  0.00    +0.000 A 
ATOM     13  C   UNL     1       1.119   9.999  19.043  0.00  0.00    +0.000 A 
ATOM     14  C   UNL     1       0.681  10.520  20.257  0.00  0.00    +0.000 A 
ATOM     15  C   UNL     1       0.686   9.707  21.396  0.00  0.00    +0.000 A 
ATOM     16  C   UNL     1       1.137   8.382  21.330  0.00  0.00    +0.000 A 
BRANCH  15  17
ATOM     17  N   UNL     1       0.237  10.252  22.683  0.00  0.00    +0.000 N 
ATOM     18  O   UNL     1       0.270   9.500  23.670  0.00  0.00    +0.000 OA
ATOM     19  O   UNL     1      -0.153  11.428  22.709  0.00  0.00    +0.000 OA
ENDBRANCH  15  17
ENDBRANCH   7  11
BRANCH   1  20
ATOM     20  N   UNL     1       5.587   3.854  18.962  0.00  0.00    +0.000 N 
ATOM     21  H   UNL     1       6.193   4.309  19.631  0.00  0.00    +0.000 HD
BRANCH  20  25
ATOM     22  C   UNL     1       6.650   4.781  14.973  0.00  0.00    +0.000 A 
ATOM     23  C   UNL     1       7.575   4.903  16.009  0.00  0.00    +0.000 A 
ATOM     24  C   UNL     1       7.225   4.555  17.318  0.00  0.00    +0.000 A 
ATOM     25  C   UNL     1       5.930   4.116  17.621  0.00  0.00    +0.000 A 
ATOM     26  C   UNL     1       5.027   3.975  16.562  0.00  0.00    +0.000 A 
ATOM     27  C   UNL     1       5.370   4.319  15.255  0.00  0.00    +0.000 A 
BRANCH  22  29
ATOM     28  C   UNL     1       6.829   4.226  12.694  0.00  0.00    +0.000 C 
ATOM     29  O   UNL     1       7.087   5.163  13.736  0.00  0.00    +0.000 OA
ENDBRANCH  22  29
ENDBRANCH  20  25
ENDBRANCH   1  20
TORSDOF 5
ENDMDL
MODEL 7
REMARK VINA RESULT:      -8.5      1.176      1.185
REMARK  Name = 
REMARK  6 active torsions:
REMARK  status: ('A' for Active; 'I' for Inactive)
REMARK    1  A    between atoms: C_1  and  O_2
REMARK    2  A    between atoms: O_2  and  C_3
REMARK    3  A    between atoms: C_6  and  N_7
REMARK    4  A    between atoms: N_7  and  C_8
REMARK    5  A    between atoms: C_14  and  C_15
REMARK    6  A    between atoms: C_19  and  N_20
REMARK                            x       y       z     vdW  Elec       q    Type
REMARK                         _______ _______ _______ _____ _____    ______ ____
ROOT
ATOM      1  C   UNL     1       4.287   3.274  19.055  0.00  0.00    +0.000 A 
ATOM      2  N   UNL     1       3.753   2.034  18.893  0.00  0.00    +0.000 NA
ATOM      3  C   UNL     1       2.423   1.864  18.942  0.00  0.00    +0.000 A 
ATOM      4  N   UNL     1       1.489   2.797  19.153  0.00  0.00    +0.000 NA
ATOM      5  C   UNL     1       2.045   4.001  19.340  0.00  0.00    +0.000 A 
ATOM      6  N   UNL     1       1.339   5.145  19.563  0.00  0.00    +0.000 N 
ATOM      7  C   UNL     1       2.190   6.219  19.713  0.00  0.00    +0.000 A 
ATOM      8  C   UNL     1       3.475   5.724  19.553  0.00  0.00    +0.000 A 
ATOM      9  C   UNL     1       3.391   4.322  19.322  0.00  0.00    +0.000 A 
ATOM     10  H   UNL     1       0.330   5.177  19.573  0.00  0.00    +0.000 HD
ENDROOT
BRANCH   7  11
ATOM     11  C   UNL     1       1.709   7.579  19.936  0.00  0.00    +0.000 A 
ATOM     12  C   UNL     1       1.779   8.538  18.913  0.00  0.00    +0.000 A 
ATOM     13  C   UNL     1       1.380   9.855  19.139  0.00  0.00    +0.000 A 
ATOM     14  C   UNL     1       0.899  10.232  20.389  0.00  0.00    +0.000 A 
ATOM     15  C   UNL     1       0.802   9.275  21.407  0.00  0.00    +0.000 A 
ATOM     16  C   UNL     1       1.193   7.949  21.183  0.00  0.00    +0.000 A 
BRANCH  15  17
ATOM     17  N   UNL     1       0.306   9.667  22.732  0.00  0.00    +0.000 N 
ATOM     18  O   UNL     1      -0.830  10.163  22.798  0.00  0.00    +0.000 OA
ATOM     19  O   UNL     1       1.050   9.485  23.705  0.00  0.00    +0.000 OA
ENDBRANCH  15  17
ENDBRANCH   7  11
BRANCH   1  20
ATOM     20  N   UNL     1       5.665   3.509  18.899  0.00  0.00    +0.000 N 
ATOM     21  H   UNL     1       6.218   3.049  19.610  0.00  0.00    +0.000 HD
BRANCH  20  25
ATOM     22  C   UNL     1       7.468   7.015  17.362  0.00  0.00    +0.000 A 
ATOM     23  C   UNL     1       7.735   6.580  18.660  0.00  0.00    +0.000 A 
ATOM     24  C   UNL     1       7.166   5.397  19.144  0.00  0.00    +0.000 A 
ATOM     25  C   UNL     1       6.286   4.648  18.352  0.00  0.00    +0.000 A 
ATOM     26  C   UNL     1       6.054   5.088  17.044  0.00  0.00    +0.000 A 
ATOM     27  C   UNL     1       6.620   6.266  16.555  0.00  0.00    +0.000 A 
BRANCH  22  29
ATOM     28  C   UNL     1       8.279   9.111  18.057  0.00  0.00    +0.000 C 
ATOM     29  O   UNL     1       8.060   8.189  16.993  0.00  0.00    +0.000 OA
ENDBRANCH  22  29
ENDBRANCH  20  25
ENDBRANCH   1  20
TORSDOF 5
ENDMDL
MODEL 8
REMARK VINA RESULT:      -8.5      3.300      8.677
REMARK  Name = 
REMARK  6 active torsions:
REMARK  status: ('A' for Active; 'I' for Inactive)
REMARK    1  A    between atoms: C_1  and  O_2
REMARK    2  A    between atoms: O_2  and  C_3
REMARK    3  A    between atoms: C_6  and  N_7
REMARK    4  A    between atoms: N_7  and  C_8
REMARK    5  A    between atoms: C_14  and  C_15
REMARK    6  A    between atoms: C_19  and  N_20
REMARK                            x       y       z     vdW  Elec       q    Type
REMARK                         _______ _______ _______ _____ _____    ______ ____
ROOT
ATOM      1  C   UNL     1       0.468   9.795  19.431  0.00  0.00    +0.000 A 
ATOM      2  N   UNL     1       0.179  10.113  20.721  0.00  0.00    +0.000 NA
ATOM      3  C   UNL     1       0.729   9.415  21.725  0.00  0.00    +0.000 A 
ATOM      4  N   UNL     1       1.565   8.375  21.633  0.00  0.00    +0.000 NA
ATOM      5  C   UNL     1       1.806   8.064  20.353  0.00  0.00    +0.000 A 
ATOM      6  N   UNL     1       2.633   7.058  19.953  0.00  0.00    +0.000 N 
ATOM      7  C   UNL     1       2.679   6.987  18.576  0.00  0.00    +0.000 A 
ATOM      8  C   UNL     1       1.868   8.008  18.106  0.00  0.00    +0.000 A 
ATOM      9  C   UNL     1       1.309   8.689  19.224  0.00  0.00    +0.000 A 
ATOM     10  H   UNL     1       3.156   6.483  20.598  0.00  0.00    +0.000 HD
ENDROOT
BRANCH   7  11
ATOM     11  C   UNL     1       3.508   6.018  17.866  0.00  0.00    +0.000 A 
ATOM     12  C   UNL     1       3.049   4.708  17.649  0.00  0.00    +0.000 A 
ATOM     13  C   UNL     1       3.861   3.761  17.027  0.00  0.00    +0.000 A 
ATOM     14  C   UNL     1       5.142   4.108  16.607  0.00  0.00    +0.000 A 
ATOM     15  C   UNL     1       5.596   5.419  16.796  0.00  0.00    +0.000 A 
ATOM     16  C   UNL     1       4.782   6.378  17.413  0.00  0.00    +0.000 A 
BRANCH  15  17
ATOM     17  N   UNL     1       6.949   5.791  16.365  0.00  0.00    +0.000 N 
ATOM     18  O   UNL     1       7.550   5.007  15.613  0.00  0.00    +0.000 OA
ATOM     19  O   UNL     1       7.415   6.861  16.781  0.00  0.00    +0.000 OA
ENDBRANCH  15  17
ENDBRANCH   7  11
BRANCH   1  20
ATOM     20  N   UNL     1      -0.001  10.572  18.357  0.00  0.00    +0.000 N 
ATOM     21  H   UNL     1       0.586  11.375  18.176  0.00  0.00    +0.000 HD
BRANCH  20  25
ATOM     22  C   UNL     1      -4.051  11.048  17.229  0.00  0.00    +0.000 A 
ATOM     23  C   UNL     1      -3.485  11.843  18.225  0.00  0.00    +0.000 A 
ATOM     24  C   UNL     1      -2.134  11.705  18.562  0.00  0.00    +0.000 A 
ATOM     25  C   UNL     1      -1.334  10.741  17.935  0.00  0.00    +0.000 A 
ATOM     26  C   UNL     1      -1.915   9.975  16.919  0.00  0.00    +0.000 A 
ATOM     27  C   UNL     1      -3.261  10.108  16.578  0.00  0.00    +0.000 A 
BRANCH  22  29
ATOM     28  C   UNL     1      -5.920  12.438  17.563  0.00  0.00    +0.000 C 
ATOM     29  O   UNL     1      -5.380  11.251  16.989  0.00  0.00    +0.000 OA
ENDBRANCH  22  29
ENDBRANCH  20  25
ENDBRANCH   1  20
TORSDOF 5
ENDMDL
MODEL 9
REMARK VINA RESULT:      -8.4      2.818      7.826
REMARK  Name = 
REMARK  6 active torsions:
REMARK  status: ('A' for Active; 'I' for Inactive)
REMARK    1  A    between atoms: C_1  and  O_2
REMARK    2  A    between atoms: O_2  and  C_3
REMARK    3  A    between atoms: C_6  and  N_7
REMARK    4  A    between atoms: N_7  and  C_8
REMARK    5  A    between atoms: C_14  and  C_15
REMARK    6  A    between atoms: C_19  and  N_20
REMARK                            x       y       z     vdW  Elec       q    Type
REMARK                         _______ _______ _______ _____ _____    ______ ____
ROOT
ATOM      1  C   UNL     1       2.116   5.243  19.881  0.00  0.00    +0.000 A 
ATOM      2  N   UNL     1       1.226   4.348  20.386  0.00  0.00    +0.000 NA
ATOM      3  C   UNL     1       1.136   3.118  19.859  0.00  0.00    +0.000 A 
ATOM      4  N   UNL     1       1.833   2.618  18.833  0.00  0.00    +0.000 NA
ATOM      5  C   UNL     1       2.677   3.530  18.335  0.00  0.00    +0.000 A 
ATOM      6  N   UNL     1       3.527   3.300  17.295  0.00  0.00    +0.000 N 
ATOM      7  C   UNL     1       4.269   4.428  17.016  0.00  0.00    +0.000 A 
ATOM      8  C   UNL     1       3.882   5.388  17.938  0.00  0.00    +0.000 A 
ATOM      9  C   UNL     1       2.873   4.828  18.772  0.00  0.00    +0.000 A 
ATOM     10  H   UNL     1       3.606   2.405  16.834  0.00  0.00    +0.000 HD
ENDROOT
BRANCH   7  11
ATOM     11  C   UNL     1       5.282   4.464  15.965  0.00  0.00    +0.000 A 
ATOM     12  C   UNL     1       6.502   5.129  16.171  0.00  0.00    +0.000 A 
ATOM     13  C   UNL     1       7.446   5.221  15.150  0.00  0.00    +0.000 A 
ATOM     14  C   UNL     1       7.190   4.644  13.909  0.00  0.00    +0.000 A 
ATOM     15  C   UNL     1       5.987   3.957  13.705  0.00  0.00    +0.000 A 
ATOM     16  C   UNL     1       5.038   3.854  14.730  0.00  0.00    +0.000 A 
BRANCH  15  17
ATOM     17  N   UNL     1       5.704   3.355  12.396  0.00  0.00    +0.000 N 
ATOM     18  O   UNL     1       6.616   2.718  11.846  0.00  0.00    +0.000 OA
ATOM     19  O   UNL     1       4.574   3.522  11.916  0.00  0.00    +0.000 OA
ENDBRANCH  15  17
ENDBRANCH   7  11
BRANCH   1  20
ATOM     20  N   UNL     1       2.317   6.501  20.476  0.00  0.00    +0.000 N 
ATOM     21  H   UNL     1       2.460   6.437  21.475  0.00  0.00    +0.000 HD
BRANCH  20  25
ATOM     22  C   UNL     1       0.622  10.179  19.253  0.00  0.00    +0.000 A 
ATOM     23  C   UNL     1       0.436   9.698  20.548  0.00  0.00    +0.000 A 
ATOM     24  C   UNL     1       1.034   8.501  20.955  0.00  0.00    +0.000 A 
ATOM     25  C   UNL     1       1.799   7.742  20.059  0.00  0.00    +0.000 A 
ATOM     26  C   UNL     1       1.996   8.257  18.774  0.00  0.00    +0.000 A 
ATOM     27  C   UNL     1       1.403   9.451  18.363  0.00  0.00    +0.000 A 
BRANCH  22  29
ATOM     28  C   UNL     1      -1.438  11.301  19.071  0.00  0.00    +0.000 C 
ATOM     29  O   UNL     1      -0.019  11.348  18.952  0.00  0.00    +0.000 OA
ENDBRANCH  22  29
ENDBRANCH  20  25
ENDBRANCH   1  20
TORSDOF 5
ENDMDL
