MODEL 1
REMARK VINA RESULT:      -7.8      0.000      0.000
REMARK  Name = 
REMARK  8 active torsions:
REMARK  status: ('A' for Active; 'I' for Inactive)
REMARK    1  A    between atoms: C_1  and  C_2
REMARK    2  A    between atoms: C_2  and  C_3
REMARK    3  A    between atoms: C_2  and  C_4
REMARK    4  A    between atoms: C_6  and  N_7
REMARK    5  A    between atoms: N_7  and  C_8
REMARK    6  A    between atoms: C_17  and  C_18
REMARK    7  A    between atoms: N_20  and  C_21
REMARK    8  A    between atoms: C_21  and  C_22
REMARK                            x       y       z     vdW  Elec       q    Type
REMARK                         _______ _______ _______ _____ _____    ______ ____
ROOT
ATOM      1  C   UNL     1       2.966   5.492  18.133  0.00  0.00    +0.000 A 
ATOM      2  C   UNL     1       3.914   4.717  17.425  0.00  0.00    +0.000 A 
ATOM      3  C   UNL     1       4.971   5.305  16.738  0.00  0.00    +0.000 A 
ATOM      4  N   UNL     1       5.094   6.641  16.685  0.00  0.00    +0.000 NA
ATOM      5  C   UNL     1       4.156   7.392  17.319  0.00  0.00    +0.000 A 
ATOM      6  C   UNL     1       3.093   6.896  18.075  0.00  0.00    +0.000 A 
ENDROOT
BRANCH   6   7
ATOM      7  C   UNL     1       2.159   7.898  18.697  0.00  0.00    +0.000 C 
ATOM      8  O   UNL     1       1.914   7.878  19.895  0.00  0.00    +0.000 OA
ATOM      9  N   UNL     1       1.582   8.829  17.843  0.00  0.00    +0.000 N 
ATOM     10  H   UNL     1       1.915   8.913  16.891  0.00  0.00    +0.000 HD
BRANCH   9  11
ATOM     11  C   UNL     1       0.649   9.859  18.290  0.00  0.00    +0.000 C 
BRANCH  11  12
ATOM     12  C   UNL     1       1.330  11.106  18.891  0.00  0.00    +0.000 C 
ATOM     13  C   UNL     1       0.308  12.169  19.333  0.00  0.00    +0.000 C 
ATOM     14  C   UNL     1       0.994  13.471  19.729  0.00  0.00    +0.000 C 
ATOM     15  O   UNL     1       1.787  13.963  18.652  0.00  0.00    +0.000 OA
ATOM     16  C   UNL     1       2.853  13.071  18.335  0.00  0.00    +0.000 C 
ATOM     17  C   UNL     1       2.310  11.722  17.872  0.00  0.00    +0.000 C 
ENDBRANCH  11  12
ENDBRANCH   9  11
ENDBRANCH   6   7
BRANCH   1  19
ATOM     18  C   UNL     1       1.454   3.433  18.180  0.00  0.00    +0.000 C 
ATOM     19  C   UNL     1       1.929   4.691  18.904  0.00  0.00    +0.000 C 
ATOM     20  C   UNL     1       2.311   4.498  20.370  0.00  0.00    +0.000 C 
ENDBRANCH   1  19
BRANCH   3  21
ATOM     21  N   UNL     1       5.931   4.447  16.176  0.00  0.00    +0.000 N 
ATOM     22  H   UNL     1       6.101   3.633  16.753  0.00  0.00    +0.000 HD
BRANCH  21  23
ATOM     23  C   UNL     1       6.326   4.300  14.830  0.00  0.00    +0.000 A 
ATOM     24  C   UNL     1       7.396   5.070  14.350  0.00  0.00    +0.000 A 
ATOM     25  C   UNL     1       7.740   5.059  12.994  0.00  0.00    +0.000 A 
ATOM     26  C   UNL     1       7.007   4.290  12.095  0.00  0.00    +0.000 A 
ATOM     27  C   UNL     1       5.938   3.530  12.558  0.00  0.00    +0.000 A 
ATOM     28 CL   UNL     1       5.011   2.591  11.451  0.00  0.00    +0.000 Cl
ATOM     29  C   UNL     1       5.595   3.541  13.909  0.00  0.00    +0.000 A 
ENDBRANCH  21  23
ENDBRANCH   3  21
TORSDOF 6
ENDMDL
MODEL 2
REMARK VINA RESULT:      -7.8      3.123      4.443
REMARK  Name = 
REMARK  8 active torsions:
REMARK  status: ('A' for Active; 'I' for Inactive)
REMARK    1  A    between atoms: C_1  and  C_2
REMARK    2  A    between atoms: C_2  and  C_3
REMARK    3  A    between atoms: C_2  and  C_4
REMARK    4  A    between atoms: C_6  and  N_7
REMARK    5  A    between atoms: N_7  and  C_8
REMARK    6  A    between atoms: C_17  and  C_18
REMARK    7  A    between atoms: N_20  and  C_21
REMARK    8  A    between atoms: C_21  and  C_22
REMARK                            x       y       z     vdW  Elec       q    Type
REMARK                         _______ _______ _______ _____ _____    ______ ____
ROOT
ATOM      1  C   UNL     1       1.577   8.043  20.239  0.00  0.00    +0.000 A 
ATOM      2  C   UNL     1       2.239   6.802  20.090  0.00  0.00    +0.000 A 
ATOM      3  C   UNL     1       2.903   6.466  18.914  0.00  0.00    +0.000 A 
ATOM      4  N   UNL     1       2.891   7.296  17.860  0.00  0.00    +0.000 NA
ATOM      5  C   UNL     1       2.211   8.466  17.979  0.00  0.00    +0.000 A 
ATOM      6  C   UNL     1       1.561   8.914  19.130  0.00  0.00    +0.000 A 
ENDROOT
BRANCH   6   7
ATOM      7  C   UNL     1       0.860  10.243  19.056  0.00  0.00    +0.000 C 
ATOM      8  O   UNL     1       1.487  11.293  19.078  0.00  0.00    +0.000 OA
ATOM      9  N   UNL     1      -0.527  10.216  18.977  0.00  0.00    +0.000 N 
ATOM     10  H   UNL     1      -1.004   9.339  18.813  0.00  0.00    +0.000 HD
BRANCH   9  11
ATOM     11  C   UNL     1      -1.352  11.419  18.909  0.00  0.00    +0.000 C 
BRANCH  11  12
ATOM     12  C   UNL     1      -2.191  11.532  17.620  0.00  0.00    +0.000 C 
ATOM     13  C   UNL     1      -3.697  11.651  17.917  0.00  0.00    +0.000 C 
ATOM     14  C   UNL     1      -4.526  11.553  16.641  0.00  0.00    +0.000 C 
ATOM     15  O   UNL     1      -4.249  10.331  15.962  0.00  0.00    +0.000 OA
ATOM     16  C   UNL     1      -2.894  10.270  15.521  0.00  0.00    +0.000 C 
ATOM     17  C   UNL     1      -1.938  10.313  16.709  0.00  0.00    +0.000 C 
ENDBRANCH  11  12
ENDBRANCH   9  11
ENDBRANCH   6   7
BRANCH   1  19
ATOM     18  C   UNL     1       1.602   9.471  22.358  0.00  0.00    +0.000 C 
ATOM     19  C   UNL     1       0.980   8.290  21.615  0.00  0.00    +0.000 C 
ATOM     20  C   UNL     1      -0.547   8.253  21.606  0.00  0.00    +0.000 C 
ENDBRANCH   1  19
BRANCH   3  21
ATOM     21  N   UNL     1       3.639   5.270  18.910  0.00  0.00    +0.000 N 
ATOM     22  H   UNL     1       3.063   4.465  19.121  0.00  0.00    +0.000 HD
BRANCH  21  23
ATOM     23  C   UNL     1       4.852   4.964  18.258  0.00  0.00    +0.000 A 
ATOM     24  C   UNL     1       6.062   5.288  18.890  0.00  0.00    +0.000 A 
ATOM     25  C   UNL     1       7.285   5.127  18.230  0.00  0.00    +0.000 A 
ATOM     26  C   UNL     1       7.314   4.655  16.921  0.00  0.00    +0.000 A 
ATOM     27  C   UNL     1       6.120   4.341  16.280  0.00  0.00    +0.000 A 
ATOM     28 CL   UNL     1       6.143   3.776  14.654  0.00  0.00    +0.000 Cl
ATOM     29  C   UNL     1       4.901   4.500  16.938  0.00  0.00    +0.000 A 
ENDBRANCH  21  23
ENDBRANCH   3  21
TORSDOF 6
ENDMDL
MODEL 3
REMARK VINA RESULT:      -7.8      2.027      2.398
REMARK  Name = 
REMARK  8 active torsions:
REMARK  status: ('A' for Active; 'I' for Inactive)
REMARK    1  A    between atoms: C_1  and  C_2
REMARK    2  A    between atoms: C_2  and  C_3
REMARK    3  A    between atoms: C_2  and  C_4
REMARK    4  A    between atoms: C_6  and  N_7
REMARK    5  A    between atoms: N_7  and  C_8
REMARK    6  A    between atoms: C_17  and  C_18
REMARK    7  A    between atoms: N_20  and  C_21
REMARK    8  A    between atoms: C_21  and  C_22
REMARK                            x       y       z     vdW  Elec       q    Type
REMARK                         _______ _______ _______ _____ _____    ______ ____
ROOT
ATOM      1  C   UNL     1       4.068   4.057  18.319  0.00  0.00    +0.000 A 
ATOM      2  C   UNL     1       5.151   3.970  17.413  0.00  0.00    +0.000 A 
ATOM      3  C   UNL     1       5.698   5.103  16.818  0.00  0.00    +0.000 A 
ATOM      4  N   UNL     1       5.178   6.318  17.052  0.00  0.00    +0.000 NA
ATOM      5  C   UNL     1       4.105   6.401  17.880  0.00  0.00    +0.000 A 
ATOM      6  C   UNL     1       3.519   5.334  18.562  0.00  0.00    +0.000 A 
ENDROOT
BRANCH   6   7
ATOM      7  C   UNL     1       2.331   5.637  19.433  0.00  0.00    +0.000 C 
ATOM      8  O   UNL     1       1.391   4.858  19.517  0.00  0.00    +0.000 OA
ATOM      9  N   UNL     1       2.350   6.844  20.120  0.00  0.00    +0.000 N 
ATOM     10  H   UNL     1       3.198   7.395  20.147  0.00  0.00    +0.000 HD
BRANCH   9  11
ATOM     11  C   UNL     1       1.269   7.288  20.997  0.00  0.00    +0.000 C 
BRANCH  11  12
ATOM     12  C   UNL     1       1.144   8.821  21.112  0.00  0.00    +0.000 C 
ATOM     13  C   UNL     1      -0.027   9.240  22.019  0.00  0.00    +0.000 C 
ATOM     14  C   UNL     1      -0.267  10.745  21.959  0.00  0.00    +0.000 C 
ATOM     15  O   UNL     1      -0.507  11.156  20.615  0.00  0.00    +0.000 OA
ATOM     16  C   UNL     1       0.632  10.936  19.786  0.00  0.00    +0.000 C 
ATOM     17  C   UNL     1       0.968   9.449  19.715  0.00  0.00    +0.000 C 
ENDBRANCH  11  12
ENDBRANCH   9  11
ENDBRANCH   6   7
BRANCH   1  19
ATOM     18  C   UNL     1       3.388   1.624  17.935  0.00  0.00    +0.000 C 
ATOM     19  C   UNL     1       3.649   2.738  18.948  0.00  0.00    +0.000 C 
ATOM     20  C   UNL     1       4.528   2.351  20.135  0.00  0.00    +0.000 C 
ENDBRANCH   1  19
BRANCH   3  21
ATOM     21  N   UNL     1       6.851   4.925  16.036  0.00  0.00    +0.000 N 
ATOM     22  H   UNL     1       7.644   4.619  16.586  0.00  0.00    +0.000 HD
BRANCH  21  23
ATOM     23  C   UNL     1       6.968   4.670  14.654  0.00  0.00    +0.000 A 
ATOM     24  C   UNL     1       7.848   5.453  13.892  0.00  0.00    +0.000 A 
ATOM     25  C   UNL     1       7.902   5.329  12.499  0.00  0.00    +0.000 A 
ATOM     26  C   UNL     1       7.063   4.431  11.847  0.00  0.00    +0.000 A 
ATOM     27  C   UNL     1       6.179   3.656  12.591  0.00  0.00    +0.000 A 
ATOM     28 CL   UNL     1       5.121   2.556  11.791  0.00  0.00    +0.000 Cl
ATOM     29  C   UNL     1       6.126   3.779  13.978  0.00  0.00    +0.000 A 
ENDBRANCH  21  23
ENDBRANCH   3  21
TORSDOF 6
ENDMDL
MODEL 4
REMARK VINA RESULT:      -7.6      1.895      2.394
REMARK  Name = 
REMARK  8 active torsions:
REMARK  status: ('A' for Active; 'I' for Inactive)
REMARK    1  A    between atoms: C_1  and  C_2
REMARK    2  A    between atoms: C_2  and  C_3
REMARK    3  A    between atoms: C_2  and  C_4
REMARK    4  A    between atoms: C_6  and  N_7
REMARK    5  A    between atoms: N_7  and  C_8
REMARK    6  A    between atoms: C_17  and  C_18
REMARK    7  A    between atoms: N_20  and  C_21
REMARK    8  A    between atoms: C_21  and  C_22
REMARK                            x       y       z     vdW  Elec       q    Type
REMARK                         _______ _______ _______ _____ _____    ______ ____
ROOT
ATOM      1  C   UNL     1       2.765   5.152  18.403  0.00  0.00    +0.000 A 
ATOM      2  C   UNL     1       3.545   4.373  17.515  0.00  0.00    +0.000 A 
ATOM      3  C   UNL     1       4.539   4.943  16.726  0.00  0.00    +0.000 A 
ATOM      4  N   UNL     1       4.755   6.268  16.747  0.00  0.00    +0.000 NA
ATOM      5  C   UNL     1       3.972   7.027  17.558  0.00  0.00    +0.000 A 
ATOM      6  C   UNL     1       2.989   6.545  18.422  0.00  0.00    +0.000 A 
ENDROOT
BRANCH   6   7
ATOM      7  C   UNL     1       2.228   7.554  19.238  0.00  0.00    +0.000 C 
ATOM      8  O   UNL     1       1.945   7.340  20.409  0.00  0.00    +0.000 OA
ATOM      9  N   UNL     1       1.853   8.725  18.593  0.00  0.00    +0.000 N 
ATOM     10  H   UNL     1       2.226   8.936  17.676  0.00  0.00    +0.000 HD
BRANCH   9  11
ATOM     11  C   UNL     1       1.103   9.797  19.242  0.00  0.00    +0.000 C 
BRANCH  11  12
ATOM     12  C   UNL     1       0.075  10.490  18.323  0.00  0.00    +0.000 C 
ATOM     13  C   UNL     1      -0.772  11.527  19.081  0.00  0.00    +0.000 C 
ATOM     14  C   UNL     1      -1.915  12.051  18.218  0.00  0.00    +0.000 C 
ATOM     15  O   UNL     1      -2.733  10.973  17.770  0.00  0.00    +0.000 OA
ATOM     16  C   UNL     1      -2.012  10.084  16.920  0.00  0.00    +0.000 C 
ATOM     17  C   UNL     1      -0.849   9.442  17.671  0.00  0.00    +0.000 C 
ENDBRANCH  11  12
ENDBRANCH   9  11
ENDBRANCH   6   7
BRANCH   1  19
ATOM     18  C   UNL     1       1.086   3.228  18.512  0.00  0.00    +0.000 C 
ATOM     19  C   UNL     1       1.786   4.363  19.257  0.00  0.00    +0.000 C 
ATOM     20  C   UNL     1       2.367   3.991  20.620  0.00  0.00    +0.000 C 
ENDBRANCH   1  19
BRANCH   3  21
ATOM     21  N   UNL     1       5.344   4.070  15.976  0.00  0.00    +0.000 N 
ATOM     22  H   UNL     1       5.253   3.109  16.280  0.00  0.00    +0.000 HD
BRANCH  21  23
ATOM     23  C   UNL     1       5.864   4.223  14.674  0.00  0.00    +0.000 A 
ATOM     24  C   UNL     1       5.334   3.441  13.637  0.00  0.00    +0.000 A 
ATOM     25  C   UNL     1       5.902   3.459  12.358  0.00  0.00    +0.000 A 
ATOM     26  C   UNL     1       7.019   4.249  12.104  0.00  0.00    +0.000 A 
ATOM     27  C   UNL     1       7.560   5.021  13.127  0.00  0.00    +0.000 A 
ATOM     28 CL   UNL     1       8.955   5.985  12.828  0.00  0.00    +0.000 Cl
ATOM     29  C   UNL     1       6.993   5.003  14.400  0.00  0.00    +0.000 A 
ENDBRANCH  21  23
ENDBRANCH   3  21
TORSDOF 6
ENDMDL
MODEL 5
REMARK VINA RESULT:      -7.6      5.719     11.262
REMARK  Name = 
REMARK  8 active torsions:
REMARK  status: ('A' for Active; 'I' for Inactive)
REMARK    1  A    between atoms: C_1  and  C_2
REMARK    2  A    between atoms: C_2  and  C_3
REMARK    3  A    between atoms: C_2  and  C_4
REMARK    4  A    between atoms: C_6  and  N_7
REMARK    5  A    between atoms: N_7  and  C_8
REMARK    6  A    between atoms: C_17  and  C_18
REMARK    7  A    between atoms: N_20  and  C_21
REMARK    8  A    between atoms: C_21  and  C_22
REMARK                            x       y       z     vdW  Elec       q    Type
REMARK                         _______ _______ _______ _____ _____    ______ ____
ROOT
ATOM      1  C   UNL     1      -0.312  10.618  20.313  0.00  0.00    +0.000 A 
ATOM      2  C   UNL     1      -1.092  11.461  21.141  0.00  0.00    +0.000 A 
ATOM      3  C   UNL     1      -1.066  11.348  22.527  0.00  0.00    +0.000 A 
ATOM      4  N   UNL     1      -0.333  10.396  23.124  0.00  0.00    +0.000 NA
ATOM      5  C   UNL     1       0.376   9.550  22.332  0.00  0.00    +0.000 A 
ATOM      6  C   UNL     1       0.456   9.614  20.940  0.00  0.00    +0.000 A 
ENDROOT
BRANCH   6   7
ATOM      7  C   UNL     1       1.297   8.578  20.246  0.00  0.00    +0.000 C 
ATOM      8  O   UNL     1       1.756   8.778  19.129  0.00  0.00    +0.000 OA
ATOM      9  N   UNL     1       1.510   7.387  20.926  0.00  0.00    +0.000 N 
ATOM     10  H   UNL     1       1.244   7.309  21.900  0.00  0.00    +0.000 HD
BRANCH   9  11
ATOM     11  C   UNL     1       2.294   6.280  20.385  0.00  0.00    +0.000 C 
BRANCH  11  12
ATOM     12  C   UNL     1       1.556   4.925  20.390  0.00  0.00    +0.000 C 
ATOM     13  C   UNL     1       2.152   3.944  21.415  0.00  0.00    +0.000 C 
ATOM     14  C   UNL     1       1.554   2.550  21.265  0.00  0.00    +0.000 C 
ATOM     15  O   UNL     1       1.751   2.064  19.940  0.00  0.00    +0.000 OA
ATOM     16  C   UNL     1       1.062   2.862  18.980  0.00  0.00    +0.000 C 
ATOM     17  C   UNL     1       1.593   4.292  18.984  0.00  0.00    +0.000 C 
ENDBRANCH  11  12
ENDBRANCH   9  11
ENDBRANCH   6   7
BRANCH   1  19
ATOM     18  C   UNL     1      -1.446  10.128  18.076  0.00  0.00    +0.000 C 
ATOM     19  C   UNL     1      -0.386  10.931  18.828  0.00  0.00    +0.000 C 
ATOM     20  C   UNL     1      -0.380  12.432  18.546  0.00  0.00    +0.000 C 
ENDBRANCH   1  19
BRANCH   3  21
ATOM     21  N   UNL     1      -1.773  12.314  23.263  0.00  0.00    +0.000 N 
ATOM     22  H   UNL     1      -1.180  13.078  23.561  0.00  0.00    +0.000 HD
BRANCH  21  23
ATOM     23  C   UNL     1      -3.152  12.611  23.263  0.00  0.00    +0.000 A 
ATOM     24  C   UNL     1      -3.884  12.432  24.447  0.00  0.00    +0.000 A 
ATOM     25  C   UNL     1      -5.275  12.586  24.464  0.00  0.00    +0.000 A 
ATOM     26  C   UNL     1      -5.955  12.904  23.292  0.00  0.00    +0.000 A 
ATOM     27  C   UNL     1      -5.241  13.074  22.110  0.00  0.00    +0.000 A 
ATOM     28 CL   UNL     1      -6.075  13.447  20.651  0.00  0.00    +0.000 Cl
ATOM     29  C   UNL     1      -3.855  12.921  22.094  0.00  0.00    +0.000 A 
ENDBRANCH  21  23
ENDBRANCH   3  21
TORSDOF 6
ENDMDL
MODEL 6
REMARK VINA RESULT:      -7.6      3.203      4.579
REMARK  Name = 
REMARK  8 active torsions:
REMARK  status: ('A' for Active; 'I' for Inactive)
REMARK    1  A    between atoms: C_1  and  C_2
REMARK    2  A    between atoms: C_2  and  C_3
REMARK    3  A    between atoms: C_2  and  C_4
REMARK    4  A    between atoms: C_6  and  N_7
REMARK    5  A    between atoms: N_7  and  C_8
REMARK    6  A    between atoms: C_17  and  C_18
REMARK    7  A    between atoms: N_20  and  C_21
REMARK    8  A    between atoms: C_21  and  C_22
REMARK                            x       y       z     vdW  Elec       q    Type
REMARK                         _______ _______ _______ _____ _____    ______ ____
ROOT
ATOM      1  C   UNL     1       1.553   8.075  20.220  0.00  0.00    +0.000 A 
ATOM      2  C   UNL     1       2.221   6.834  20.095  0.00  0.00    +0.000 A 
ATOM      3  C   UNL     1       2.922   6.497  18.941  0.00  0.00    +0.000 A 
ATOM      4  N   UNL     1       2.943   7.325  17.885  0.00  0.00    +0.000 NA
ATOM      5  C   UNL     1       2.259   8.495  17.981  0.00  0.00    +0.000 A 
ATOM      6  C   UNL     1       1.572   8.944  19.109  0.00  0.00    +0.000 A 
ENDROOT
BRANCH   6   7
ATOM      7  C   UNL     1       0.873  10.273  19.011  0.00  0.00    +0.000 C 
ATOM      8  O   UNL     1       1.391  11.295  19.438  0.00  0.00    +0.000 OA
ATOM      9  N   UNL     1      -0.387  10.275  18.427  0.00  0.00    +0.000 N 
ATOM     10  H   UNL     1      -0.724   9.446  17.954  0.00  0.00    +0.000 HD
BRANCH   9  11
ATOM     11  C   UNL     1      -1.197  11.479  18.267  0.00  0.00    +0.000 C 
BRANCH  11  12
ATOM     12  C   UNL     1      -2.718  11.229  18.352  0.00  0.00    +0.000 C 
ATOM     13  C   UNL     1      -3.404  11.362  16.980  0.00  0.00    +0.000 C 
ATOM     14  C   UNL     1      -4.922  11.319  17.111  0.00  0.00    +0.000 C 
ATOM     15  O   UNL     1      -5.374  12.344  17.993  0.00  0.00    +0.000 OA
ATOM     16  C   UNL     1      -4.889  12.147  19.319  0.00  0.00    +0.000 C 
ATOM     17  C   UNL     1      -3.365  12.209  19.352  0.00  0.00    +0.000 C 
ENDBRANCH  11  12
ENDBRANCH   9  11
ENDBRANCH   6   7
BRANCH   1  19
ATOM     18  C   UNL     1       1.607   9.409  22.399  0.00  0.00    +0.000 C 
ATOM     19  C   UNL     1       0.913   8.325  21.576  0.00  0.00    +0.000 C 
ATOM     20  C   UNL     1      -0.607   8.437  21.493  0.00  0.00    +0.000 C 
ENDBRANCH   1  19
BRANCH   3  21
ATOM     21  N   UNL     1       3.659   5.301  18.963  0.00  0.00    +0.000 N 
ATOM     22  H   UNL     1       3.085   4.501  19.197  0.00  0.00    +0.000 HD
BRANCH  21  23
ATOM     23  C   UNL     1       4.868   4.980  18.312  0.00  0.00    +0.000 A 
ATOM     24  C   UNL     1       6.081   5.284  18.948  0.00  0.00    +0.000 A 
ATOM     25  C   UNL     1       7.304   5.107  18.290  0.00  0.00    +0.000 A 
ATOM     26  C   UNL     1       7.329   4.639  16.980  0.00  0.00    +0.000 A 
ATOM     27  C   UNL     1       6.132   4.344  16.336  0.00  0.00    +0.000 A 
ATOM     28 CL   UNL     1       6.150   3.784  14.707  0.00  0.00    +0.000 Cl
ATOM     29  C   UNL     1       4.914   4.519  16.991  0.00  0.00    +0.000 A 
ENDBRANCH  21  23
ENDBRANCH   3  21
TORSDOF 6
ENDMDL
MODEL 7
REMARK VINA RESULT:      -7.6      3.279      4.892
REMARK  Name = 
REMARK  8 active torsions:
REMARK  status: ('A' for Active; 'I' for Inactive)
REMARK    1  A    between atoms: C_1  and  C_2
REMARK    2  A    between atoms: C_2  and  C_3
REMARK    3  A    between atoms: C_2  and  C_4
REMARK    4  A    between atoms: C_6  and  N_7
REMARK    5  A    between atoms: N_7  and  C_8
REMARK    6  A    between atoms: C_17  and  C_18
REMARK    7  A    between atoms: N_20  and  C_21
REMARK    8  A    between atoms: C_21  and  C_22
REMARK                            x       y       z     vdW  Elec       q    Type
REMARK                         _______ _______ _______ _____ _____    ______ ____
ROOT
ATOM      1  C   UNL     1       1.524   8.885  19.430  0.00  0.00    +0.000 A 
ATOM      2  C   UNL     1       2.073   8.015  18.458  0.00  0.00    +0.000 A 
ATOM      3  C   UNL     1       2.473   6.722  18.780  0.00  0.00    +0.000 A 
ATOM      4  N   UNL     1       2.395   6.275  20.043  0.00  0.00    +0.000 NA
ATOM      5  C   UNL     1       1.918   7.125  20.990  0.00  0.00    +0.000 A 
ATOM      6  C   UNL     1       1.445   8.417  20.758  0.00  0.00    +0.000 A 
ENDROOT
BRANCH   6   7
ATOM      7  C   UNL     1       0.960   9.201  21.947  0.00  0.00    +0.000 C 
ATOM      8  O   UNL     1       1.724   9.532  22.843  0.00  0.00    +0.000 OA
ATOM      9  N   UNL     1      -0.393   9.513  21.981  0.00  0.00    +0.000 N 
ATOM     10  H   UNL     1      -0.967   9.355  21.162  0.00  0.00    +0.000 HD
BRANCH   9  11
ATOM     11  C   UNL     1      -1.020  10.258  23.069  0.00  0.00    +0.000 C 
BRANCH  11  12
ATOM     12  C   UNL     1      -1.388  11.712  22.704  0.00  0.00    +0.000 C 
ATOM     13  C   UNL     1      -2.751  12.127  23.284  0.00  0.00    +0.000 C 
ATOM     14  C   UNL     1      -3.196  13.483  22.747  0.00  0.00    +0.000 C 
ATOM     15  O   UNL     1      -3.250  13.459  21.323  0.00  0.00    +0.000 OA
ATOM     16  C   UNL     1      -1.961  13.246  20.752  0.00  0.00    +0.000 C 
ATOM     17  C   UNL     1      -1.401  11.890  21.172  0.00  0.00    +0.000 C 
ENDBRANCH  11  12
ENDBRANCH   9  11
ENDBRANCH   6   7
BRANCH   1  19
ATOM     18  C   UNL     1       2.127  10.999  18.127  0.00  0.00    +0.000 C 
ATOM     19  C   UNL     1       1.055  10.229  18.895  0.00  0.00    +0.000 C 
ATOM     20  C   UNL     1      -0.307  10.142  18.210  0.00  0.00    +0.000 C 
ENDBRANCH   1  19
BRANCH   3  21
ATOM     21  N   UNL     1       2.882   5.893  17.722  0.00  0.00    +0.000 N 
ATOM     22  H   UNL     1       2.135   5.716  17.063  0.00  0.00    +0.000 HD
BRANCH  21  23
ATOM     23  C   UNL     1       4.177   5.663  17.212  0.00  0.00    +0.000 A 
ATOM     24  C   UNL     1       4.456   4.430  16.604  0.00  0.00    +0.000 A 
ATOM     25  C   UNL     1       5.757   4.103  16.202  0.00  0.00    +0.000 A 
ATOM     26  C   UNL     1       6.799   4.999  16.418  0.00  0.00    +0.000 A 
ATOM     27  C   UNL     1       6.536   6.221  17.029  0.00  0.00    +0.000 A 
ATOM     28 CL   UNL     1       7.822   7.329  17.320  0.00  0.00    +0.000 Cl
ATOM     29  C   UNL     1       5.240   6.547  17.429  0.00  0.00    +0.000 A 
ENDBRANCH  21  23
ENDBRANCH   3  21
TORSDOF 6
ENDMDL
MODEL 8
REMARK VINA RESULT:      -7.6      0.978      1.148
REMARK  Name = 
REMARK  8 active torsions:
REMARK  status: ('A' for Active; 'I' for Inactive)
REMARK    1  A    between atoms: C_1  and  C_2
REMARK    2  A    between atoms: C_2  and  C_3
REMARK    3  A    between atoms: C_2  and  C_4
REMARK    4  A    between atoms: C_6  and  N_7
REMARK    5  A    between atoms: N_7  and  C_8
REMARK    6  A    between atoms: C_17  and  C_18
REMARK    7  A    between atoms: N_20  and  C_21
REMARK    8  A    between atoms: C_21  and  C_22
REMARK                            x       y       z     vdW  Elec       q    Type
REMARK                         _______ _______ _______ _____ _____    ______ ____
ROOT
ATOM      1  C   UNL     1       2.970   5.498  18.113  0.00  0.00    +0.000 A 
ATOM      2  C   UNL     1       3.926   4.725  17.413  0.00  0.00    +0.000 A 
ATOM      3  C   UNL     1       4.975   5.317  16.717  0.00  0.00    +0.000 A 
ATOM      4  N   UNL     1       5.084   6.653  16.648  0.00  0.00    +0.000 NA
ATOM      5  C   UNL     1       4.139   7.401  17.274  0.00  0.00    +0.000 A 
ATOM      6  C   UNL     1       3.082   6.903  18.038  0.00  0.00    +0.000 A 
ENDROOT
BRANCH   6   7
ATOM      7  C   UNL     1       2.137   7.901  18.648  0.00  0.00    +0.000 C 
ATOM      8  O   UNL     1       1.894   7.893  19.847  0.00  0.00    +0.000 OA
ATOM      9  N   UNL     1       1.550   8.816  17.785  0.00  0.00    +0.000 N 
ATOM     10  H   UNL     1       1.881   8.893  16.831  0.00  0.00    +0.000 HD
BRANCH   9  11
ATOM     11  C   UNL     1       0.605   9.842  18.220  0.00  0.00    +0.000 C 
BRANCH  11  12
ATOM     12  C   UNL     1       0.976  10.508  19.561  0.00  0.00    +0.000 C 
ATOM     13  C   UNL     1      -0.204  10.518  20.549  0.00  0.00    +0.000 C 
ATOM     14  C   UNL     1       0.109  11.358  21.782  0.00  0.00    +0.000 C 
ATOM     15  O   UNL     1       0.450  12.689  21.403  0.00  0.00    +0.000 OA
ATOM     16  C   UNL     1       1.645  12.724  20.626  0.00  0.00    +0.000 C 
ATOM     17  C   UNL     1       1.465  11.951  19.323  0.00  0.00    +0.000 C 
ENDBRANCH  11  12
ENDBRANCH   9  11
ENDBRANCH   6   7
BRANCH   1  19
ATOM     18  C   UNL     1       1.445   3.449  18.165  0.00  0.00    +0.000 C 
ATOM     19  C   UNL     1       1.943   4.695  18.894  0.00  0.00    +0.000 C 
ATOM     20  C   UNL     1       2.352   4.482  20.350  0.00  0.00    +0.000 C 
ENDBRANCH   1  19
BRANCH   3  21
ATOM     21  N   UNL     1       5.944   4.462  16.165  0.00  0.00    +0.000 N 
ATOM     22  H   UNL     1       6.118   3.654  16.748  0.00  0.00    +0.000 HD
BRANCH  21  23
ATOM     23  C   UNL     1       6.346   4.310  14.822  0.00  0.00    +0.000 A 
ATOM     24  C   UNL     1       7.410   5.088  14.341  0.00  0.00    +0.000 A 
ATOM     25  C   UNL     1       7.759   5.071  12.986  0.00  0.00    +0.000 A 
ATOM     26  C   UNL     1       7.038   4.288  12.090  0.00  0.00    +0.000 A 
ATOM     27  C   UNL     1       5.975   3.519  12.554  0.00  0.00    +0.000 A 
ATOM     28 CL   UNL     1       5.063   2.562  11.450  0.00  0.00    +0.000 Cl
ATOM     29  C   UNL     1       5.627   3.536  13.903  0.00  0.00    +0.000 A 
ENDBRANCH  21  23
ENDBRANCH   3  21
TORSDOF 6
ENDMDL
MODEL 9
REMARK VINA RESULT:      -7.5      1.451      1.945
REMARK  Name = 
REMARK  8 active torsions:
REMARK  status: ('A' for Active; 'I' for Inactive)
REMARK    1  A    between atoms: C_1  and  C_2
REMARK    2  A    between atoms: C_2  and  C_3
REMARK    3  A    between atoms: C_2  and  C_4
REMARK    4  A    between atoms: C_6  and  N_7
REMARK    5  A    between atoms: N_7  and  C_8
REMARK    6  A    between atoms: C_17  and  C_18
REMARK    7  A    between atoms: N_20  and  C_21
REMARK    8  A    between atoms: C_21  and  C_22
REMARK                            x       y       z     vdW  Elec       q    Type
REMARK                         _______ _______ _______ _____ _____    ______ ____
ROOT
ATOM      1  C   UNL     1       2.780   4.880  18.410  0.00  0.00    +0.000 A 
ATOM      2  C   UNL     1       3.565   4.157  17.481  0.00  0.00    +0.000 A 
ATOM      3  C   UNL     1       4.579   4.769  16.751  0.00  0.00    +0.000 A 
ATOM      4  N   UNL     1       4.812   6.085  16.872  0.00  0.00    +0.000 NA
ATOM      5  C   UNL     1       4.025   6.794  17.723  0.00  0.00    +0.000 A 
ATOM      6  C   UNL     1       3.021   6.264  18.534  0.00  0.00    +0.000 A 
ENDROOT
BRANCH   6   7
ATOM      7  C   UNL     1       2.259   7.222  19.409  0.00  0.00    +0.000 C 
ATOM      8  O   UNL     1       2.064   6.982  20.592  0.00  0.00    +0.000 OA
ATOM      9  N   UNL     1       1.780   8.376  18.803  0.00  0.00    +0.000 N 
ATOM     10  H   UNL     1       2.081   8.616  17.867  0.00  0.00    +0.000 HD
BRANCH   9  11
ATOM     11  C   UNL     1       1.015   9.399  19.512  0.00  0.00    +0.000 C 
BRANCH  11  12
ATOM     12  C   UNL     1       0.648  10.622  18.646  0.00  0.00    +0.000 C 
ATOM     13  C   UNL     1       1.412  11.886  19.076  0.00  0.00    +0.000 C 
ATOM     14  C   UNL     1       0.891  13.124  18.355  0.00  0.00    +0.000 C 
ATOM     15  O   UNL     1      -0.506  13.285  18.590  0.00  0.00    +0.000 OA
ATOM     16  C   UNL     1      -1.258  12.202  18.046  0.00  0.00    +0.000 C 
ATOM     17  C   UNL     1      -0.870  10.886  18.713  0.00  0.00    +0.000 C 
ENDBRANCH  11  12
ENDBRANCH   9  11
ENDBRANCH   6   7
BRANCH   1  19
ATOM     18  C   UNL     1       1.180   2.887  18.389  0.00  0.00    +0.000 C 
ATOM     19  C   UNL     1       1.776   4.044  19.188  0.00  0.00    +0.000 C 
ATOM     20  C   UNL     1       2.274   3.687  20.587  0.00  0.00    +0.000 C 
ENDBRANCH   1  19
BRANCH   3  21
ATOM     21  N   UNL     1       5.386   3.941  15.953  0.00  0.00    +0.000 N 
ATOM     22  H   UNL     1       5.313   2.967  16.216  0.00  0.00    +0.000 HD
BRANCH  21  23
ATOM     23  C   UNL     1       5.885   4.159  14.652  0.00  0.00    +0.000 A 
ATOM     24  C   UNL     1       5.316   3.452  13.581  0.00  0.00    +0.000 A 
ATOM     25  C   UNL     1       5.860   3.532  12.294  0.00  0.00    +0.000 A 
ATOM     26  C   UNL     1       6.992   4.309  12.064  0.00  0.00    +0.000 A 
ATOM     27  C   UNL     1       7.570   5.006  13.119  0.00  0.00    +0.000 A 
ATOM     28 CL   UNL     1       8.983   5.954  12.849  0.00  0.00    +0.000 Cl
ATOM     29  C   UNL     1       7.028   4.926  14.401  0.00  0.00    +0.000 A 
ENDBRANCH  21  23
ENDBRANCH   3  21
TORSDOF 6
ENDMDL
