MODEL 1
REMARK VINA RESULT:      -7.5      0.000      0.000
REMARK  Name = 
REMARK  5 active torsions:
REMARK  status: ('A' for Active; 'I' for Inactive)
REMARK    1  A    between atoms: C_1  and  O_2
REMARK    2  A    between atoms: O_2  and  C_3
REMARK    3  A    between atoms: C_9  and  N_10
REMARK    4  A    between atoms: N_10  and  S_11
REMARK    5  A    between atoms: S_11  and  C_14
REMARK                            x       y       z     vdW  Elec       q    Type
REMARK                         _______ _______ _______ _____ _____    ______ ____
ROOT
ATOM      1  N   UNL     1       5.484   4.041  17.700  0.00  0.00    +0.000 N 
ATOM      2  H   UNL     1       4.947   3.180  17.614  0.00  0.00    +0.000 HD
ENDROOT
BRANCH   1   9
ATOM      3  C   UNL     1       7.114   5.356  16.320  0.00  0.00    +0.000 A 
ATOM      4  N   UNL     1       7.648   5.625  15.098  0.00  0.00    +0.000 NA
ATOM      5  C   UNL     1       7.055   5.006  14.052  0.00  0.00    +0.000 A 
ATOM      6  C   UNL     1       5.962   4.168  14.215  0.00  0.00    +0.000 A 
ATOM      7 CL   UNL     1       5.212   3.404  12.881  0.00  0.00    +0.000 Cl
ATOM      8  N   UNL     1       5.417   3.882  15.419  0.00  0.00    +0.000 NA
ATOM      9  C   UNL     1       6.028   4.471  16.467  0.00  0.00    +0.000 A 
BRANCH   3  11
ATOM     10  C   UNL     1       7.604   7.303  17.501  0.00  0.00    +0.000 C 
ATOM     11  O   UNL     1       7.733   5.884  17.432  0.00  0.00    +0.000 OA
ENDBRANCH   3  11
ENDBRANCH   1   9
BRANCH   1  12
ATOM     12  S   UNL     1       4.671   5.167  18.640  0.00  0.00    +0.000 S 
ATOM     13  O   UNL     1       5.559   5.571  19.704  0.00  0.00    +0.000 OA
ATOM     14  O   UNL     1       4.099   6.158  17.746  0.00  0.00    +0.000 OA
BRANCH  12  15
ATOM     15  C   UNL     1       3.310   4.311  19.408  0.00  0.00    +0.000 A 
ATOM     16  C   UNL     1       3.179   4.429  20.805  0.00  0.00    +0.000 A 
ATOM     17  C   UNL     1       2.146   3.783  21.479  0.00  0.00    +0.000 A 
ATOM     18  C   UNL     1       1.242   3.002  20.767  0.00  0.00    +0.000 A 
ATOM     19  C   UNL     1       1.386   2.849  19.382  0.00  0.00    +0.000 A 
ATOM     20 CL   UNL     1       0.220   1.837  18.593  0.00  0.00    +0.000 Cl
ATOM     21  C   UNL     1       2.430   3.494  18.686  0.00  0.00    +0.000 A 
ATOM     22 CL   UNL     1       2.591   3.261  16.976  0.00  0.00    +0.000 Cl
ENDBRANCH  12  15
ENDBRANCH   1  12
TORSDOF 4
ENDMDL
MODEL 2
REMARK VINA RESULT:      -7.2      2.068      2.436
REMARK  Name = 
REMARK  5 active torsions:
REMARK  status: ('A' for Active; 'I' for Inactive)
REMARK    1  A    between atoms: C_1  and  O_2
REMARK    2  A    between atoms: O_2  and  C_3
REMARK    3  A    between atoms: C_9  and  N_10
REMARK    4  A    between atoms: N_10  and  S_11
REMARK    5  A    between atoms: S_11  and  C_14
REMARK                            x       y       z     vdW  Elec       q    Type
REMARK                         _______ _______ _______ _____ _____    ______ ____
ROOT
ATOM      1  N   UNL     1       5.432   3.654  17.686  0.00  0.00    +0.000 N 
ATOM      2  H   UNL     1       5.989   2.892  18.069  0.00  0.00    +0.000 HD
ENDROOT
BRANCH   1   9
ATOM      3  C   UNL     1       6.895   5.378  16.601  0.00  0.00    +0.000 A 
ATOM      4  N   UNL     1       7.527   5.826  15.482  0.00  0.00    +0.000 NA
ATOM      5  C   UNL     1       7.260   5.143  14.346  0.00  0.00    +0.000 A 
ATOM      6  C   UNL     1       6.382   4.069  14.322  0.00  0.00    +0.000 A 
ATOM      7 CL   UNL     1       6.040   3.223  12.876  0.00  0.00    +0.000 Cl
ATOM      8  N   UNL     1       5.746   3.603  15.421  0.00  0.00    +0.000 NA
ATOM      9  C   UNL     1       6.037   4.261  16.561  0.00  0.00    +0.000 A 
BRANCH   3  11
ATOM     10  C   UNL     1       7.572   7.344  17.651  0.00  0.00    +0.000 C 
ATOM     11  O   UNL     1       7.199   5.976  17.804  0.00  0.00    +0.000 OA
ENDBRANCH   3  11
ENDBRANCH   1   9
BRANCH   1  12
ATOM     12  S   UNL     1       3.815   3.223  17.577  0.00  0.00    +0.000 S 
ATOM     13  O   UNL     1       3.306   3.751  16.333  0.00  0.00    +0.000 OA
ATOM     14  O   UNL     1       3.716   1.803  17.866  0.00  0.00    +0.000 OA
BRANCH  12  15
ATOM     15  C   UNL     1       2.963   4.082  18.884  0.00  0.00    +0.000 A 
ATOM     16  C   UNL     1       2.320   3.297  19.861  0.00  0.00    +0.000 A 
ATOM     17  C   UNL     1       1.628   3.895  20.910  0.00  0.00    +0.000 A 
ATOM     18  C   UNL     1       1.558   5.281  20.988  0.00  0.00    +0.000 A 
ATOM     19  C   UNL     1       2.163   6.071  20.001  0.00  0.00    +0.000 A 
ATOM     20 CL   UNL     1       1.999   7.787  20.179  0.00  0.00    +0.000 Cl
ATOM     21  C   UNL     1       2.865   5.480  18.930  0.00  0.00    +0.000 A 
ATOM     22 CL   UNL     1       3.581   6.487  17.714  0.00  0.00    +0.000 Cl
ENDBRANCH  12  15
ENDBRANCH   1  12
TORSDOF 4
ENDMDL
MODEL 3
REMARK VINA RESULT:      -6.9      2.021      2.264
REMARK  Name = 
REMARK  5 active torsions:
REMARK  status: ('A' for Active; 'I' for Inactive)
REMARK    1  A    between atoms: C_1  and  O_2
REMARK    2  A    between atoms: O_2  and  C_3
REMARK    3  A    between atoms: C_9  and  N_10
REMARK    4  A    between atoms: N_10  and  S_11
REMARK    5  A    between atoms: S_11  and  C_14
REMARK                            x       y       z     vdW  Elec       q    Type
REMARK                         _______ _______ _______ _____ _____    ______ ____
ROOT
ATOM      1  N   UNL     1       4.259   4.731  16.749  0.00  0.00    +0.000 N 
ATOM      2  H   UNL     1       3.904   5.607  17.129  0.00  0.00    +0.000 HD
ENDROOT
BRANCH   1   9
ATOM      3  C   UNL     1       6.499   5.706  16.183  0.00  0.00    +0.000 A 
ATOM      4  N   UNL     1       7.575   5.737  15.351  0.00  0.00    +0.000 NA
ATOM      5  C   UNL     1       7.471   4.981  14.234  0.00  0.00    +0.000 A 
ATOM      6  C   UNL     1       6.333   4.242  13.948  0.00  0.00    +0.000 A 
ATOM      7 CL   UNL     1       6.209   3.304  12.523  0.00  0.00    +0.000 Cl
ATOM      8  N   UNL     1       5.254   4.193  14.761  0.00  0.00    +0.000 NA
ATOM      9  C   UNL     1       5.369   4.917  15.893  0.00  0.00    +0.000 A 
BRANCH   3  11
ATOM     10  C   UNL     1       7.572   7.409  17.355  0.00  0.00    +0.000 C 
ATOM     11  O   UNL     1       6.583   6.381  17.381  0.00  0.00    +0.000 OA
ENDBRANCH   3  11
ENDBRANCH   1   9
BRANCH   1  12
ATOM     12  S   UNL     1       4.370   3.558  17.943  0.00  0.00    +0.000 S 
ATOM     13  O   UNL     1       4.109   2.280  17.325  0.00  0.00    +0.000 OA
ATOM     14  O   UNL     1       5.608   3.783  18.668  0.00  0.00    +0.000 OA
BRANCH  12  15
ATOM     15  C   UNL     1       3.036   3.856  19.085  0.00  0.00    +0.000 A 
ATOM     16  C   UNL     1       2.253   2.749  19.466  0.00  0.00    +0.000 A 
ATOM     17  C   UNL     1       1.188   2.903  20.349  0.00  0.00    +0.000 A 
ATOM     18  C   UNL     1       0.885   4.165  20.850  0.00  0.00    +0.000 A 
ATOM     19  C   UNL     1       1.635   5.278  20.448  0.00  0.00    +0.000 A 
ATOM     20 CL   UNL     1       1.161   6.807  21.112  0.00  0.00    +0.000 Cl
ATOM     21  C   UNL     1       2.714   5.139  19.551  0.00  0.00    +0.000 A 
ATOM     22 CL   UNL     1       3.605   6.541  19.057  0.00  0.00    +0.000 Cl
ENDBRANCH  12  15
ENDBRANCH   1  12
TORSDOF 4
ENDMDL
MODEL 4
REMARK VINA RESULT:      -6.9      0.913      1.050
REMARK  Name = 
REMARK  5 active torsions:
REMARK  status: ('A' for Active; 'I' for Inactive)
REMARK    1  A    between atoms: C_1  and  O_2
REMARK    2  A    between atoms: O_2  and  C_3
REMARK    3  A    between atoms: C_9  and  N_10
REMARK    4  A    between atoms: N_10  and  S_11
REMARK    5  A    between atoms: S_11  and  C_14
REMARK                            x       y       z     vdW  Elec       q    Type
REMARK                         _______ _______ _______ _____ _____    ______ ____
ROOT
ATOM      1  N   UNL     1       4.810   5.719  17.343  0.00  0.00    +0.000 N 
ATOM      2  H   UNL     1       4.723   6.712  17.551  0.00  0.00    +0.000 HD
ENDROOT
BRANCH   1   9
ATOM      3  C   UNL     1       7.038   5.752  16.192  0.00  0.00    +0.000 A 
ATOM      4  N   UNL     1       7.805   5.367  15.136  0.00  0.00    +0.000 NA
ATOM      5  C   UNL     1       7.152   4.716  14.146  0.00  0.00    +0.000 A 
ATOM      6  C   UNL     1       5.787   4.478  14.197  0.00  0.00    +0.000 A 
ATOM      7 CL   UNL     1       4.971   3.668  12.931  0.00  0.00    +0.000 Cl
ATOM      8  N   UNL     1       5.005   4.847  15.238  0.00  0.00    +0.000 NA
ATOM      9  C   UNL     1       5.659   5.465  16.242  0.00  0.00    +0.000 A 
BRANCH   3  11
ATOM     10  C   UNL     1       7.534   7.756  17.271  0.00  0.00    +0.000 C 
ATOM     11  O   UNL     1       7.663   6.335  17.272  0.00  0.00    +0.000 OA
ENDBRANCH   3  11
ENDBRANCH   1   9
BRANCH   1  12
ATOM     12  S   UNL     1       5.044   4.827  18.744  0.00  0.00    +0.000 S 
ATOM     13  O   UNL     1       5.700   3.596  18.373  0.00  0.00    +0.000 OA
ATOM     14  O   UNL     1       5.641   5.707  19.733  0.00  0.00    +0.000 OA
BRANCH  12  15
ATOM     15  C   UNL     1       3.428   4.383  19.349  0.00  0.00    +0.000 A 
ATOM     16  C   UNL     1       2.972   5.035  20.511  0.00  0.00    +0.000 A 
ATOM     17  C   UNL     1       1.723   4.737  21.048  0.00  0.00    +0.000 A 
ATOM     18  C   UNL     1       0.922   3.777  20.440  0.00  0.00    +0.000 A 
ATOM     19  C   UNL     1       1.383   3.097  19.305  0.00  0.00    +0.000 A 
ATOM     20 CL   UNL     1       0.318   1.903  18.637  0.00  0.00    +0.000 Cl
ATOM     21  C   UNL     1       2.647   3.384  18.751  0.00  0.00    +0.000 A 
ATOM     22 CL   UNL     1       3.194   2.506  17.360  0.00  0.00    +0.000 Cl
ENDBRANCH  12  15
ENDBRANCH   1  12
TORSDOF 4
ENDMDL
MODEL 5
REMARK VINA RESULT:      -6.7      1.712      1.971
REMARK  Name = 
REMARK  5 active torsions:
REMARK  status: ('A' for Active; 'I' for Inactive)
REMARK    1  A    between atoms: C_1  and  O_2
REMARK    2  A    between atoms: O_2  and  C_3
REMARK    3  A    between atoms: C_9  and  N_10
REMARK    4  A    between atoms: N_10  and  S_11
REMARK    5  A    between atoms: S_11  and  C_14
REMARK                            x       y       z     vdW  Elec       q    Type
REMARK                         _______ _______ _______ _____ _____    ______ ____
ROOT
ATOM      1  N   UNL     1       4.831   5.301  16.754  0.00  0.00    +0.000 N 
ATOM      2  H   UNL     1       4.870   6.221  17.189  0.00  0.00    +0.000 HD
ENDROOT
BRANCH   1   9
ATOM      3  C   UNL     1       7.034   5.643  15.605  0.00  0.00    +0.000 A 
ATOM      4  N   UNL     1       7.840   5.385  14.539  0.00  0.00    +0.000 NA
ATOM      5  C   UNL     1       7.270   4.685  13.532  0.00  0.00    +0.000 A 
ATOM      6  C   UNL     1       5.946   4.276  13.576  0.00  0.00    +0.000 A 
ATOM      7 CL   UNL     1       5.233   3.406  12.288  0.00  0.00    +0.000 Cl
ATOM      8  N   UNL     1       5.127   4.517  14.625  0.00  0.00    +0.000 NA
ATOM      9  C   UNL     1       5.703   5.184  15.646  0.00  0.00    +0.000 A 
BRANCH   3  11
ATOM     10  C   UNL     1       6.863   7.442  17.073  0.00  0.00    +0.000 C 
ATOM     11  O   UNL     1       7.585   6.270  16.701  0.00  0.00    +0.000 OA
ENDBRANCH   3  11
ENDBRANCH   1   9
BRANCH   1  12
ATOM     12  S   UNL     1       4.857   4.086  17.910  0.00  0.00    +0.000 S 
ATOM     13  O   UNL     1       4.487   2.853  17.256  0.00  0.00    +0.000 OA
ATOM     14  O   UNL     1       6.114   4.187  18.629  0.00  0.00    +0.000 OA
BRANCH  12  15
ATOM     15  C   UNL     1       3.560   4.456  19.074  0.00  0.00    +0.000 A 
ATOM     16  C   UNL     1       3.123   5.792  19.150  0.00  0.00    +0.000 A 
ATOM     17  C   UNL     1       2.118   6.161  20.041  0.00  0.00    +0.000 A 
ATOM     18  C   UNL     1       1.550   5.204  20.873  0.00  0.00    +0.000 A 
ATOM     19  C   UNL     1       2.003   3.879  20.831  0.00  0.00    +0.000 A 
ATOM     20 CL   UNL     1       1.245   2.769  21.925  0.00  0.00    +0.000 Cl
ATOM     21  C   UNL     1       3.023   3.490  19.937  0.00  0.00    +0.000 A 
ATOM     22 CL   UNL     1       3.576   1.847  19.929  0.00  0.00    +0.000 Cl
ENDBRANCH  12  15
ENDBRANCH   1  12
TORSDOF 4
ENDMDL
MODEL 6
REMARK VINA RESULT:      -6.7      3.355      6.182
REMARK  Name = 
REMARK  5 active torsions:
REMARK  status: ('A' for Active; 'I' for Inactive)
REMARK    1  A    between atoms: C_1  and  O_2
REMARK    2  A    between atoms: O_2  and  C_3
REMARK    3  A    between atoms: C_9  and  N_10
REMARK    4  A    between atoms: N_10  and  S_11
REMARK    5  A    between atoms: S_11  and  C_14
REMARK                            x       y       z     vdW  Elec       q    Type
REMARK                         _______ _______ _______ _____ _____    ______ ____
ROOT
ATOM      1  N   UNL     1       2.404   3.649  18.015  0.00  0.00    +0.000 N 
ATOM      2  H   UNL     1       1.665   2.956  18.113  0.00  0.00    +0.000 HD
ENDROOT
BRANCH   1   9
ATOM      3  C   UNL     1       1.634   4.866  20.068  0.00  0.00    +0.000 A 
ATOM      4  N   UNL     1       1.531   6.036  20.753  0.00  0.00    +0.000 NA
ATOM      5  C   UNL     1       1.938   7.141  20.088  0.00  0.00    +0.000 A 
ATOM      6  C   UNL     1       2.409   7.084  18.785  0.00  0.00    +0.000 A 
ATOM      7 CL   UNL     1       2.905   8.491  17.948  0.00  0.00    +0.000 Cl
ATOM      8  N   UNL     1       2.524   5.932  18.085  0.00  0.00    +0.000 NA
ATOM      9  C   UNL     1       2.152   4.825  18.759  0.00  0.00    +0.000 A 
BRANCH   3  11
ATOM     10  C   UNL     1       2.181   3.456  21.840  0.00  0.00    +0.000 C 
ATOM     11  O   UNL     1       1.322   3.697  20.727  0.00  0.00    +0.000 OA
ENDBRANCH   3  11
ENDBRANCH   1   9
BRANCH   1  12
ATOM     12  S   UNL     1       3.918   2.939  18.151  0.00  0.00    +0.000 S 
ATOM     13  O   UNL     1       4.344   3.077  19.524  0.00  0.00    +0.000 OA
ATOM     14  O   UNL     1       3.847   1.626  17.534  0.00  0.00    +0.000 OA
BRANCH  12  15
ATOM     15  C   UNL     1       5.036   3.917  17.168  0.00  0.00    +0.000 A 
ATOM     16  C   UNL     1       5.194   3.554  15.817  0.00  0.00    +0.000 A 
ATOM     17  C   UNL     1       6.055   4.265  14.986  0.00  0.00    +0.000 A 
ATOM     18  C   UNL     1       6.777   5.338  15.498  0.00  0.00    +0.000 A 
ATOM     19  C   UNL     1       6.654   5.684  16.850  0.00  0.00    +0.000 A 
ATOM     20 CL   UNL     1       7.614   7.021  17.394  0.00  0.00    +0.000 Cl
ATOM     21  C   UNL     1       5.789   4.970  17.705  0.00  0.00    +0.000 A 
ATOM     22 CL   UNL     1       5.681   5.412  19.378  0.00  0.00    +0.000 Cl
ENDBRANCH  12  15
ENDBRANCH   1  12
TORSDOF 4
ENDMDL
MODEL 7
REMARK VINA RESULT:      -6.7      1.713      1.884
REMARK  Name = 
REMARK  5 active torsions:
REMARK  status: ('A' for Active; 'I' for Inactive)
REMARK    1  A    between atoms: C_1  and  O_2
REMARK    2  A    between atoms: O_2  and  C_3
REMARK    3  A    between atoms: C_9  and  N_10
REMARK    4  A    between atoms: N_10  and  S_11
REMARK    5  A    between atoms: S_11  and  C_14
REMARK                            x       y       z     vdW  Elec       q    Type
REMARK                         _______ _______ _______ _____ _____    ______ ____
ROOT
ATOM      1  N   UNL     1       5.587   3.473  16.936  0.00  0.00    +0.000 N 
ATOM      2  H   UNL     1       5.601   2.457  16.884  0.00  0.00    +0.000 HD
ENDROOT
BRANCH   1   9
ATOM      3  C   UNL     1       7.149   5.094  15.830  0.00  0.00    +0.000 A 
ATOM      4  N   UNL     1       7.736   5.546  14.689  0.00  0.00    +0.000 NA
ATOM      5  C   UNL     1       7.299   4.977  13.542  0.00  0.00    +0.000 A 
ATOM      6  C   UNL     1       6.302   4.013  13.531  0.00  0.00    +0.000 A 
ATOM      7 CL   UNL     1       5.747   3.314  12.073  0.00  0.00    +0.000 Cl
ATOM      8  N   UNL     1       5.707   3.546  14.653  0.00  0.00    +0.000 NA
ATOM      9  C   UNL     1       6.166   4.086  15.800  0.00  0.00    +0.000 A 
BRANCH   3  11
ATOM     10  C   UNL     1       7.268   6.934  17.254  0.00  0.00    +0.000 C 
ATOM     11  O   UNL     1       7.618   5.569  17.035  0.00  0.00    +0.000 OA
ENDBRANCH   3  11
ENDBRANCH   1   9
BRANCH   1  12
ATOM     12  S   UNL     1       4.093   4.030  17.459  0.00  0.00    +0.000 S 
ATOM     13  O   UNL     1       4.216   5.448  17.700  0.00  0.00    +0.000 OA
ATOM     14  O   UNL     1       3.088   3.527  16.539  0.00  0.00    +0.000 OA
BRANCH  12  15
ATOM     15  C   UNL     1       3.783   3.268  19.038  0.00  0.00    +0.000 A 
ATOM     16  C   UNL     1       4.798   2.449  19.570  0.00  0.00    +0.000 A 
ATOM     17  C   UNL     1       4.628   1.813  20.797  0.00  0.00    +0.000 A 
ATOM     18  C   UNL     1       3.438   1.976  21.498  0.00  0.00    +0.000 A 
ATOM     19  C   UNL     1       2.408   2.758  20.960  0.00  0.00    +0.000 A 
ATOM     20 CL   UNL     1       0.959   2.878  21.902  0.00  0.00    +0.000 Cl
ATOM     21  C   UNL     1       2.564   3.406  19.717  0.00  0.00    +0.000 A 
ATOM     22 CL   UNL     1       1.260   4.347  19.071  0.00  0.00    +0.000 Cl
ENDBRANCH  12  15
ENDBRANCH   1  12
TORSDOF 4
ENDMDL
MODEL 8
REMARK VINA RESULT:      -6.7      1.823      2.154
REMARK  Name = 
REMARK  5 active torsions:
REMARK  status: ('A' for Active; 'I' for Inactive)
REMARK    1  A    between atoms: C_1  and  O_2
REMARK    2  A    between atoms: O_2  and  C_3
REMARK    3  A    between atoms: C_9  and  N_10
REMARK    4  A    between atoms: N_10  and  S_11
REMARK    5  A    between atoms: S_11  and  C_14
REMARK                            x       y       z     vdW  Elec       q    Type
REMARK                         _______ _______ _______ _____ _____    ______ ____
ROOT
ATOM      1  N   UNL     1       4.276   5.203  16.526  0.00  0.00    +0.000 N 
ATOM      2  H   UNL     1       4.431   5.909  17.242  0.00  0.00    +0.000 HD
ENDROOT
BRANCH   1   9
ATOM      3  C   UNL     1       6.669   5.553  15.864  0.00  0.00    +0.000 A 
ATOM      4  N   UNL     1       7.680   5.303  14.988  0.00  0.00    +0.000 NA
ATOM      5  C   UNL     1       7.335   4.608  13.880  0.00  0.00    +0.000 A 
ATOM      6  C   UNL     1       6.031   4.198  13.645  0.00  0.00    +0.000 A 
ATOM      7 CL   UNL     1       5.605   3.334  12.231  0.00  0.00    +0.000 Cl
ATOM      8  N   UNL     1       5.011   4.431  14.502  0.00  0.00    +0.000 NA
ATOM      9  C   UNL     1       5.359   5.093  15.623  0.00  0.00    +0.000 A 
BRANCH   3  11
ATOM     10  C   UNL     1       7.469   5.260  18.032  0.00  0.00    +0.000 C 
ATOM     11  O   UNL     1       6.978   6.175  17.054  0.00  0.00    +0.000 OA
ENDBRANCH   3  11
ENDBRANCH   1   9
BRANCH   1  12
ATOM     12  S   UNL     1       3.658   3.793  17.193  0.00  0.00    +0.000 S 
ATOM     13  O   UNL     1       2.609   3.320  16.321  0.00  0.00    +0.000 OA
ATOM     14  O   UNL     1       4.780   2.932  17.524  0.00  0.00    +0.000 OA
BRANCH  12  15
ATOM     15  C   UNL     1       2.880   4.248  18.729  0.00  0.00    +0.000 A 
ATOM     16  C   UNL     1       2.836   5.619  19.049  0.00  0.00    +0.000 A 
ATOM     17  C   UNL     1       2.251   6.053  20.236  0.00  0.00    +0.000 A 
ATOM     18  C   UNL     1       1.716   5.123  21.120  0.00  0.00    +0.000 A 
ATOM     19  C   UNL     1       1.787   3.754  20.828  0.00  0.00    +0.000 A 
ATOM     20 CL   UNL     1       1.112   2.678  22.007  0.00  0.00    +0.000 Cl
ATOM     21  C   UNL     1       2.381   3.299  19.632  0.00  0.00    +0.000 A 
ATOM     22 CL   UNL     1       2.473   1.597  19.315  0.00  0.00    +0.000 Cl
ENDBRANCH  12  15
ENDBRANCH   1  12
TORSDOF 4
ENDMDL
MODEL 9
REMARK VINA RESULT:      -6.7      3.489      3.865
REMARK  Name = 
REMARK  5 active torsions:
REMARK  status: ('A' for Active; 'I' for Inactive)
REMARK    1  A    between atoms: C_1  and  O_2
REMARK    2  A    between atoms: O_2  and  C_3
REMARK    3  A    between atoms: C_9  and  N_10
REMARK    4  A    between atoms: N_10  and  S_11
REMARK    5  A    between atoms: S_11  and  C_14
REMARK                            x       y       z     vdW  Elec       q    Type
REMARK                         _______ _______ _______ _____ _____    ______ ____
ROOT
ATOM      1  N   UNL     1       4.588   6.893  17.183  0.00  0.00    +0.000 N 
ATOM      2  H   UNL     1       5.001   7.753  17.540  0.00  0.00    +0.000 HD
ENDROOT
BRANCH   1   9
ATOM      3  C   UNL     1       6.782   5.679  17.196  0.00  0.00    +0.000 A 
ATOM      4  N   UNL     1       7.593   4.742  16.636  0.00  0.00    +0.000 NA
ATOM      5  C   UNL     1       7.141   4.187  15.488  0.00  0.00    +0.000 A 
ATOM      6  C   UNL     1       5.938   4.567  14.912  0.00  0.00    +0.000 A 
ATOM      7 CL   UNL     1       5.385   3.870  13.451  0.00  0.00    +0.000 Cl
ATOM      8  N   UNL     1       5.113   5.493  15.452  0.00  0.00    +0.000 NA
ATOM      9  C   UNL     1       5.546   6.022  16.614  0.00  0.00    +0.000 A 
BRANCH   3  11
ATOM     10  C   UNL     1       8.030   7.322  18.278  0.00  0.00    +0.000 C 
ATOM     11  O   UNL     1       7.146   6.211  18.414  0.00  0.00    +0.000 OA
ENDBRANCH   3  11
ENDBRANCH   1   9
BRANCH   1  12
ATOM     12  S   UNL     1       3.489   6.253  18.277  0.00  0.00    +0.000 S 
ATOM     13  O   UNL     1       2.663   5.308  17.564  0.00  0.00    +0.000 OA
ATOM     14  O   UNL     1       4.229   5.838  19.455  0.00  0.00    +0.000 OA
BRANCH  12  15
ATOM     15  C   UNL     1       2.422   7.590  18.776  0.00  0.00    +0.000 A 
ATOM     16  C   UNL     1       2.416   8.746  17.972  0.00  0.00    +0.000 A 
ATOM     17  C   UNL     1       1.614   9.835  18.300  0.00  0.00    +0.000 A 
ATOM     18  C   UNL     1       0.820   9.787  19.442  0.00  0.00    +0.000 A 
ATOM     19  C   UNL     1       0.847   8.656  20.268  0.00  0.00    +0.000 A 
ATOM     20 CL   UNL     1      -0.160   8.707  21.677  0.00  0.00    +0.000 Cl
ATOM     21  C   UNL     1       1.658   7.546  19.951  0.00  0.00    +0.000 A 
ATOM     22 CL   UNL     1       1.684   6.174  21.009  0.00  0.00    +0.000 Cl
ENDBRANCH  12  15
ENDBRANCH   1  12
TORSDOF 4
ENDMDL
