MODEL 1
REMARK VINA RESULT:      -6.6      0.000      0.000
REMARK  Name = 
REMARK  13 active torsions:
REMARK  status: ('A' for Active; 'I' for Inactive)
REMARK    1  A    between atoms: C_1  and  C_2
REMARK    2  A    between atoms: C_2  and  C_3
REMARK    3  A    between atoms: C_3  and  C_4
REMARK    4  A    between atoms: C_3  and  C_5
REMARK    5  A    between atoms: C_9  and  C_10
REMARK    6  A    between atoms: C_10  and  C_11
REMARK    7  A    between atoms: C_10  and  C_12
REMARK    8  A    between atoms: C_15  and  O_16
REMARK    9  A    between atoms: O_16  and  C_17
REMARK   10  A    between atoms: C_17  and  O_18
REMARK   11  A    between atoms: O_18  and  P_19
REMARK   12  A    between atoms: P_19  and  O_21
REMARK   13  A    between atoms: P_19  and  O_22
REMARK                            x       y       z     vdW  Elec       q    Type
REMARK                         _______ _______ _______ _____ _____    ______ ____
ROOT
ATOM      1  C   UNL     1       2.795   6.632  19.310  0.00  0.00    +0.000 A 
ATOM      2  C   UNL     1       2.302   7.656  18.478  0.00  0.00    +0.000 A 
ATOM      3  C   UNL     1       2.938   7.979  17.297  0.00  0.00    +0.000 A 
ATOM      4  C   UNL     1       4.104   7.314  16.953  0.00  0.00    +0.000 A 
ATOM      5  C   UNL     1       4.683   6.309  17.771  0.00  0.00    +0.000 A 
ATOM      6  C   UNL     1       3.997   5.933  18.960  0.00  0.00    +0.000 A 
ENDROOT
BRANCH   1   7
ATOM      7  C   UNL     1       1.945   6.377  20.568  0.00  0.00    +0.000 C 
ATOM      8  C   UNL     1       1.347   4.967  20.549  0.00  0.00    +0.000 C 
BRANCH   7  10
ATOM      9  C   UNL     1       1.477   8.546  21.866  0.00  0.00    +0.000 C 
ATOM     10  C   UNL     1       0.956   7.515  20.874  0.00  0.00    +0.000 C 
ENDBRANCH   7  10
ENDBRANCH   1   7
BRANCH   5  11
ATOM     11  C   UNL     1       6.006   5.789  17.207  0.00  0.00    +0.000 C 
ATOM     12  C   UNL     1       7.202   6.685  17.561  0.00  0.00    +0.000 C 
BRANCH  11  13
ATOM     13  C   UNL     1       5.823   5.357  15.755  0.00  0.00    +0.000 C 
ATOM     14  C   UNL     1       6.968   4.814  14.937  0.00  0.00    +0.000 C 
ATOM     15  C   UNL     1       5.847   3.904  15.360  0.00  0.00    +0.000 C 
ENDBRANCH  11  13
ENDBRANCH   5  11
BRANCH   6  16
ATOM     16  O   UNL     1       4.299   4.926  19.838  0.00  0.00    +0.000 OA
BRANCH  16  17
ATOM     17  C   UNL     1       4.800   3.642  19.515  0.00  0.00    +0.000 C 
BRANCH  17  18
ATOM     18  O   UNL     1       3.815   2.649  19.698  0.00  0.00    +0.000 OA
BRANCH  18  19
ATOM     19  P   UNL     1       3.095   2.084  18.395  0.00  0.00    +0.000 P 
ATOM     20  O   UNL     1       2.941   2.986  17.224  0.00  0.00    +0.000 OA
BRANCH  19  21
ATOM     21  O   UNL     1       3.933   0.753  18.131  0.00  0.00    +0.000 OA
ATOM     22  H   UNL     1       4.505   0.865  17.353  0.00  0.00    +0.000 HD
ENDBRANCH  19  21
BRANCH  19  23
ATOM     23  O   UNL     1       1.733   1.496  18.980  0.00  0.00    +0.000 OA
ATOM     24  H   UNL     1       1.177   1.131  18.268  0.00  0.00    +0.000 HD
ENDBRANCH  19  23
ENDBRANCH  18  19
ENDBRANCH  17  18
ENDBRANCH  16  17
ENDBRANCH   6  16
TORSDOF 10
ENDMDL
MODEL 2
REMARK VINA RESULT:      -6.6      3.128      4.834
REMARK  Name = 
REMARK  13 active torsions:
REMARK  status: ('A' for Active; 'I' for Inactive)
REMARK    1  A    between atoms: C_1  and  C_2
REMARK    2  A    between atoms: C_2  and  C_3
REMARK    3  A    between atoms: C_3  and  C_4
REMARK    4  A    between atoms: C_3  and  C_5
REMARK    5  A    between atoms: C_9  and  C_10
REMARK    6  A    between atoms: C_10  and  C_11
REMARK    7  A    between atoms: C_10  and  C_12
REMARK    8  A    between atoms: C_15  and  O_16
REMARK    9  A    between atoms: O_16  and  C_17
REMARK   10  A    between atoms: C_17  and  O_18
REMARK   11  A    between atoms: O_18  and  P_19
REMARK   12  A    between atoms: P_19  and  O_21
REMARK   13  A    between atoms: P_19  and  O_22
REMARK                            x       y       z     vdW  Elec       q    Type
REMARK                         _______ _______ _______ _____ _____    ______ ____
ROOT
ATOM      1  C   UNL     1       3.241   4.002  19.155  0.00  0.00    +0.000 A 
ATOM      2  C   UNL     1       3.546   2.830  18.435  0.00  0.00    +0.000 A 
ATOM      3  C   UNL     1       4.434   2.857  17.379  0.00  0.00    +0.000 A 
ATOM      4  C   UNL     1       4.996   4.064  16.997  0.00  0.00    +0.000 A 
ATOM      5  C   UNL     1       4.691   5.290  17.646  0.00  0.00    +0.000 A 
ATOM      6  C   UNL     1       3.822   5.256  18.772  0.00  0.00    +0.000 A 
ENDROOT
BRANCH   1   7
ATOM      7  C   UNL     1       2.262   3.787  20.323  0.00  0.00    +0.000 C 
ATOM      8  C   UNL     1       2.753   2.673  21.252  0.00  0.00    +0.000 C 
BRANCH   7  10
ATOM      9  C   UNL     1       0.494   2.474  18.997  0.00  0.00    +0.000 C 
ATOM     10  C   UNL     1       0.795   3.682  19.875  0.00  0.00    +0.000 C 
ENDBRANCH   7  10
ENDBRANCH   1   7
BRANCH   5  11
ATOM     11  C   UNL     1       5.379   6.486  16.985  0.00  0.00    +0.000 C 
ATOM     12  C   UNL     1       4.826   6.797  15.586  0.00  0.00    +0.000 C 
BRANCH  11  13
ATOM     13  C   UNL     1       6.890   6.387  17.165  0.00  0.00    +0.000 C 
ATOM     14  C   UNL     1       7.704   7.538  17.701  0.00  0.00    +0.000 C 
ATOM     15  C   UNL     1       7.512   6.300  18.534  0.00  0.00    +0.000 C 
ENDBRANCH  11  13
ENDBRANCH   5  11
BRANCH   6  16
ATOM     16  O   UNL     1       3.476   6.279  19.614  0.00  0.00    +0.000 OA
BRANCH  16  17
ATOM     17  C   UNL     1       2.371   7.153  19.477  0.00  0.00    +0.000 C 
BRANCH  17  18
ATOM     18  O   UNL     1       1.649   7.255  20.684  0.00  0.00    +0.000 OA
BRANCH  18  19
ATOM     19  P   UNL     1       1.032   8.678  21.050  0.00  0.00    +0.000 P 
ATOM     20  O   UNL     1       1.014   9.731  20.002  0.00  0.00    +0.000 OA
BRANCH  19  21
ATOM     21  O   UNL     1      -0.393   8.259  21.629  0.00  0.00    +0.000 OA
ATOM     22  H   UNL     1      -0.348   8.160  22.595  0.00  0.00    +0.000 HD
ENDBRANCH  19  21
BRANCH  19  23
ATOM     23  O   UNL     1       1.820   9.063  22.382  0.00  0.00    +0.000 OA
ATOM     24  H   UNL     1       1.842   8.311  23.002  0.00  0.00    +0.000 HD
ENDBRANCH  19  23
ENDBRANCH  18  19
ENDBRANCH  17  18
ENDBRANCH  16  17
ENDBRANCH   6  16
TORSDOF 10
ENDMDL
MODEL 3
REMARK VINA RESULT:      -6.5      0.614      5.038
REMARK  Name = 
REMARK  13 active torsions:
REMARK  status: ('A' for Active; 'I' for Inactive)
REMARK    1  A    between atoms: C_1  and  C_2
REMARK    2  A    between atoms: C_2  and  C_3
REMARK    3  A    between atoms: C_3  and  C_4
REMARK    4  A    between atoms: C_3  and  C_5
REMARK    5  A    between atoms: C_9  and  C_10
REMARK    6  A    between atoms: C_10  and  C_11
REMARK    7  A    between atoms: C_10  and  C_12
REMARK    8  A    between atoms: C_15  and  O_16
REMARK    9  A    between atoms: O_16  and  C_17
REMARK   10  A    between atoms: C_17  and  O_18
REMARK   11  A    between atoms: O_18  and  P_19
REMARK   12  A    between atoms: P_19  and  O_21
REMARK   13  A    between atoms: P_19  and  O_22
REMARK                            x       y       z     vdW  Elec       q    Type
REMARK                         _______ _______ _______ _____ _____    ______ ____
ROOT
ATOM      1  C   UNL     1       4.789   5.830  17.823  0.00  0.00    +0.000 A 
ATOM      2  C   UNL     1       4.415   6.847  16.924  0.00  0.00    +0.000 A 
ATOM      3  C   UNL     1       3.378   7.708  17.217  0.00  0.00    +0.000 A 
ATOM      4  C   UNL     1       2.668   7.535  18.394  0.00  0.00    +0.000 A 
ATOM      5  C   UNL     1       2.958   6.498  19.319  0.00  0.00    +0.000 A 
ATOM      6  C   UNL     1       4.066   5.647  19.047  0.00  0.00    +0.000 A 
ENDROOT
BRANCH   1   7
ATOM      7  C   UNL     1       5.989   4.985  17.356  0.00  0.00    +0.000 C 
ATOM      8  C   UNL     1       7.248   5.848  17.226  0.00  0.00    +0.000 C 
BRANCH   7  10
ATOM      9  C   UNL     1       6.392   4.485  14.867  0.00  0.00    +0.000 C 
ATOM     10  C   UNL     1       5.668   4.090  16.147  0.00  0.00    +0.000 C 
ENDBRANCH   7  10
ENDBRANCH   1   7
BRANCH   5  11
ATOM     11  C   UNL     1       1.981   6.475  20.495  0.00  0.00    +0.000 C 
ATOM     12  C   UNL     1       1.151   5.184  20.560  0.00  0.00    +0.000 C 
BRANCH  11  13
ATOM     13  C   UNL     1       1.256   7.813  20.601  0.00  0.00    +0.000 C 
ATOM     14  C   UNL     1       0.152   8.043  21.603  0.00  0.00    +0.000 C 
ATOM     15  C   UNL     1       1.477   8.735  21.771  0.00  0.00    +0.000 C 
ENDBRANCH  11  13
ENDBRANCH   5  11
BRANCH   6  16
ATOM     16  O   UNL     1       4.599   4.662  19.835  0.00  0.00    +0.000 OA
BRANCH  16  17
ATOM     17  C   UNL     1       4.445   3.264  19.667  0.00  0.00    +0.000 C 
BRANCH  17  18
ATOM     18  O   UNL     1       3.084   2.912  19.553  0.00  0.00    +0.000 OA
BRANCH  18  19
ATOM     19  P   UNL     1       2.603   2.289  18.168  0.00  0.00    +0.000 P 
ATOM     20  O   UNL     1       2.393   3.204  17.016  0.00  0.00    +0.000 OA
BRANCH  19  21
ATOM     21  O   UNL     1       3.693   1.146  17.947  0.00  0.00    +0.000 OA
ATOM     22  H   UNL     1       4.447   1.280  18.546  0.00  0.00    +0.000 HD
ENDBRANCH  19  21
BRANCH  19  23
ATOM     23  O   UNL     1       1.325   1.437  18.598  0.00  0.00    +0.000 OA
ATOM     24  H   UNL     1       1.235   1.412  19.568  0.00  0.00    +0.000 HD
ENDBRANCH  19  23
ENDBRANCH  18  19
ENDBRANCH  17  18
ENDBRANCH  16  17
ENDBRANCH   6  16
TORSDOF 10
ENDMDL
MODEL 4
REMARK VINA RESULT:      -6.5      3.388      5.058
REMARK  Name = 
REMARK  13 active torsions:
REMARK  status: ('A' for Active; 'I' for Inactive)
REMARK    1  A    between atoms: C_1  and  C_2
REMARK    2  A    between atoms: C_2  and  C_3
REMARK    3  A    between atoms: C_3  and  C_4
REMARK    4  A    between atoms: C_3  and  C_5
REMARK    5  A    between atoms: C_9  and  C_10
REMARK    6  A    between atoms: C_10  and  C_11
REMARK    7  A    between atoms: C_10  and  C_12
REMARK    8  A    between atoms: C_15  and  O_16
REMARK    9  A    between atoms: O_16  and  C_17
REMARK   10  A    between atoms: C_17  and  O_18
REMARK   11  A    between atoms: O_18  and  P_19
REMARK   12  A    between atoms: P_19  and  O_21
REMARK   13  A    between atoms: P_19  and  O_22
REMARK                            x       y       z     vdW  Elec       q    Type
REMARK                         _______ _______ _______ _____ _____    ______ ____
ROOT
ATOM      1  C   UNL     1       3.071   4.704  19.086  0.00  0.00    +0.000 A 
ATOM      2  C   UNL     1       3.840   3.638  19.593  0.00  0.00    +0.000 A 
ATOM      3  C   UNL     1       5.144   3.447  19.184  0.00  0.00    +0.000 A 
ATOM      4  C   UNL     1       5.684   4.290  18.228  0.00  0.00    +0.000 A 
ATOM      5  C   UNL     1       4.948   5.350  17.638  0.00  0.00    +0.000 A 
ATOM      6  C   UNL     1       3.623   5.587  18.100  0.00  0.00    +0.000 A 
ENDROOT
BRANCH   1   7
ATOM      7  C   UNL     1       1.652   4.793  19.675  0.00  0.00    +0.000 C 
ATOM      8  C   UNL     1       1.589   5.833  20.797  0.00  0.00    +0.000 C 
BRANCH   7  10
ATOM      9  C   UNL     1       0.637   2.606  18.784  0.00  0.00    +0.000 C 
ATOM     10  C   UNL     1       1.043   3.420  20.005  0.00  0.00    +0.000 C 
ENDBRANCH   7  10
ENDBRANCH   1   7
BRANCH   5  11
ATOM     11  C   UNL     1       5.744   6.081  16.555  0.00  0.00    +0.000 C 
ATOM     12  C   UNL     1       5.516   5.503  15.150  0.00  0.00    +0.000 C 
BRANCH  11  13
ATOM     13  C   UNL     1       7.177   6.312  17.023  0.00  0.00    +0.000 C 
ATOM     14  C   UNL     1       7.668   7.677  17.438  0.00  0.00    +0.000 C 
ATOM     15  C   UNL     1       7.494   6.594  18.468  0.00  0.00    +0.000 C 
ENDBRANCH  11  13
ENDBRANCH   5  11
BRANCH   6  16
ATOM     16  O   UNL     1       2.771   6.605  17.765  0.00  0.00    +0.000 OA
BRANCH  16  17
ATOM     17  C   UNL     1       2.979   7.990  17.976  0.00  0.00    +0.000 C 
BRANCH  17  18
ATOM     18  O   UNL     1       1.949   8.755  17.390  0.00  0.00    +0.000 OA
BRANCH  18  19
ATOM     19  P   UNL     1       1.330   9.937  18.261  0.00  0.00    +0.000 P 
ATOM     20  O   UNL     1       2.047  11.237  18.299  0.00  0.00    +0.000 OA
BRANCH  19  21
ATOM     21  O   UNL     1      -0.160   9.990  17.696  0.00  0.00    +0.000 OA
ATOM     22  H   UNL     1      -0.654   9.199  17.974  0.00  0.00    +0.000 HD
ENDBRANCH  19  21
BRANCH  19  23
ATOM     23  O   UNL     1       1.112   9.241  19.680  0.00  0.00    +0.000 OA
ATOM     24  H   UNL     1       1.852   8.643  19.891  0.00  0.00    +0.000 HD
ENDBRANCH  19  23
ENDBRANCH  18  19
ENDBRANCH  17  18
ENDBRANCH  16  17
ENDBRANCH   6  16
TORSDOF 10
ENDMDL
MODEL 5
REMARK VINA RESULT:      -6.5      3.570      6.371
REMARK  Name = 
REMARK  13 active torsions:
REMARK  status: ('A' for Active; 'I' for Inactive)
REMARK    1  A    between atoms: C_1  and  C_2
REMARK    2  A    between atoms: C_2  and  C_3
REMARK    3  A    between atoms: C_3  and  C_4
REMARK    4  A    between atoms: C_3  and  C_5
REMARK    5  A    between atoms: C_9  and  C_10
REMARK    6  A    between atoms: C_10  and  C_11
REMARK    7  A    between atoms: C_10  and  C_12
REMARK    8  A    between atoms: C_15  and  O_16
REMARK    9  A    between atoms: O_16  and  C_17
REMARK   10  A    between atoms: C_17  and  O_18
REMARK   11  A    between atoms: O_18  and  P_19
REMARK   12  A    between atoms: P_19  and  O_21
REMARK   13  A    between atoms: P_19  and  O_22
REMARK                            x       y       z     vdW  Elec       q    Type
REMARK                         _______ _______ _______ _____ _____    ______ ____
ROOT
ATOM      1  C   UNL     1       4.521   5.505  17.292  0.00  0.00    +0.000 A 
ATOM      2  C   UNL     1       4.809   4.232  16.764  0.00  0.00    +0.000 A 
ATOM      3  C   UNL     1       4.071   3.126  17.136  0.00  0.00    +0.000 A 
ATOM      4  C   UNL     1       3.065   3.270  18.077  0.00  0.00    +0.000 A 
ATOM      5  C   UNL     1       2.758   4.514  18.686  0.00  0.00    +0.000 A 
ATOM      6  C   UNL     1       3.477   5.666  18.261  0.00  0.00    +0.000 A 
ENDROOT
BRANCH   1   7
ATOM      7  C   UNL     1       5.415   6.632  16.743  0.00  0.00    +0.000 C 
ATOM      8  C   UNL     1       5.196   6.821  15.239  0.00  0.00    +0.000 C 
BRANCH   7  10
ATOM      9  C   UNL     1       7.556   7.855  17.471  0.00  0.00    +0.000 C 
ATOM     10  C   UNL     1       6.882   6.518  17.193  0.00  0.00    +0.000 C 
ENDBRANCH   7  10
ENDBRANCH   1   7
BRANCH   5  11
ATOM     11  C   UNL     1       1.662   4.390  19.746  0.00  0.00    +0.000 C 
ATOM     12  C   UNL     1       1.608   5.595  20.697  0.00  0.00    +0.000 C 
BRANCH  11  13
ATOM     13  C   UNL     1       1.671   2.988  20.347  0.00  0.00    +0.000 C 
ATOM     14  C   UNL     1       2.650   2.590  21.424  0.00  0.00    +0.000 C 
ATOM     15  C   UNL     1       1.188   2.734  21.751  0.00  0.00    +0.000 C 
ENDBRANCH  11  13
ENDBRANCH   5  11
BRANCH   6  16
ATOM     16  O   UNL     1       3.283   6.974  18.619  0.00  0.00    +0.000 OA
BRANCH  16  17
ATOM     17  C   UNL     1       2.388   7.893  18.022  0.00  0.00    +0.000 C 
BRANCH  17  18
ATOM     18  O   UNL     1       1.735   8.676  18.997  0.00  0.00    +0.000 OA
BRANCH  18  19
ATOM     19  P   UNL     1       1.189  10.102  18.545  0.00  0.00    +0.000 P 
ATOM     20  O   UNL     1       0.951  11.132  19.590  0.00  0.00    +0.000 OA
BRANCH  19  21
ATOM     21  O   UNL     1       2.247  10.497  17.419  0.00  0.00    +0.000 OA
ATOM     22  H   UNL     1       1.837  11.089  16.765  0.00  0.00    +0.000 HD
ENDBRANCH  19  21
BRANCH  19  23
ATOM     23  O   UNL     1      -0.088   9.721  17.668  0.00  0.00    +0.000 OA
ATOM     24  H   UNL     1       0.179   9.405  16.786  0.00  0.00    +0.000 HD
ENDBRANCH  19  23
ENDBRANCH  18  19
ENDBRANCH  17  18
ENDBRANCH  16  17
ENDBRANCH   6  16
TORSDOF 10
ENDMDL
MODEL 6
REMARK VINA RESULT:      -6.4      3.357      5.040
REMARK  Name = 
REMARK  13 active torsions:
REMARK  status: ('A' for Active; 'I' for Inactive)
REMARK    1  A    between atoms: C_1  and  C_2
REMARK    2  A    between atoms: C_2  and  C_3
REMARK    3  A    between atoms: C_3  and  C_4
REMARK    4  A    between atoms: C_3  and  C_5
REMARK    5  A    between atoms: C_9  and  C_10
REMARK    6  A    between atoms: C_10  and  C_11
REMARK    7  A    between atoms: C_10  and  C_12
REMARK    8  A    between atoms: C_15  and  O_16
REMARK    9  A    between atoms: O_16  and  C_17
REMARK   10  A    between atoms: C_17  and  O_18
REMARK   11  A    between atoms: O_18  and  P_19
REMARK   12  A    between atoms: P_19  and  O_21
REMARK   13  A    between atoms: P_19  and  O_22
REMARK                            x       y       z     vdW  Elec       q    Type
REMARK                         _______ _______ _______ _____ _____    ______ ____
ROOT
ATOM      1  C   UNL     1       3.057   4.655  19.111  0.00  0.00    +0.000 A 
ATOM      2  C   UNL     1       3.872   3.610  19.587  0.00  0.00    +0.000 A 
ATOM      3  C   UNL     1       5.181   3.484  19.171  0.00  0.00    +0.000 A 
ATOM      4  C   UNL     1       5.682   4.374  18.236  0.00  0.00    +0.000 A 
ATOM      5  C   UNL     1       4.900   5.418  17.676  0.00  0.00    +0.000 A 
ATOM      6  C   UNL     1       3.568   5.586  18.148  0.00  0.00    +0.000 A 
ENDROOT
BRANCH   1   7
ATOM      7  C   UNL     1       1.637   4.669  19.706  0.00  0.00    +0.000 C 
ATOM      8  C   UNL     1       1.541   5.658  20.872  0.00  0.00    +0.000 C 
BRANCH   7  10
ATOM      9  C   UNL     1       1.211   2.807  21.426  0.00  0.00    +0.000 C 
ATOM     10  C   UNL     1       1.078   3.262  19.979  0.00  0.00    +0.000 C 
ENDBRANCH   7  10
ENDBRANCH   1   7
BRANCH   5  11
ATOM     11  C   UNL     1       5.660   6.211  16.611  0.00  0.00    +0.000 C 
ATOM     12  C   UNL     1       5.362   5.733  15.182  0.00  0.00    +0.000 C 
BRANCH  11  13
ATOM     13  C   UNL     1       7.116   6.389  17.030  0.00  0.00    +0.000 C 
ATOM     14  C   UNL     1       7.676   7.738  17.405  0.00  0.00    +0.000 C 
ATOM     15  C   UNL     1       7.490   6.682  18.460  0.00  0.00    +0.000 C 
ENDBRANCH  11  13
ENDBRANCH   5  11
BRANCH   6  16
ATOM     16  O   UNL     1       2.672   6.577  17.843  0.00  0.00    +0.000 OA
BRANCH  16  17
ATOM     17  C   UNL     1       2.853   7.969  18.023  0.00  0.00    +0.000 C 
BRANCH  17  18
ATOM     18  O   UNL     1       1.869   8.504  18.880  0.00  0.00    +0.000 OA
BRANCH  18  19
ATOM     19  P   UNL     1       1.102   9.811  18.387  0.00  0.00    +0.000 P 
ATOM     20  O   UNL     1      -0.247   9.653  17.785  0.00  0.00    +0.000 OA
BRANCH  19  21
ATOM     21  O   UNL     1       1.169  10.721  19.695  0.00  0.00    +0.000 OA
ATOM     22  H   UNL     1       2.057  10.679  20.089  0.00  0.00    +0.000 HD
ENDBRANCH  19  21
BRANCH  19  23
ATOM     23  O   UNL     1       2.184  10.513  17.450  0.00  0.00    +0.000 OA
ATOM     24  H   UNL     1       2.984   9.963  17.370  0.00  0.00    +0.000 HD
ENDBRANCH  19  23
ENDBRANCH  18  19
ENDBRANCH  17  18
ENDBRANCH  16  17
ENDBRANCH   6  16
TORSDOF 10
ENDMDL
MODEL 7
REMARK VINA RESULT:      -6.4      2.598      5.116
REMARK  Name = 
REMARK  13 active torsions:
REMARK  status: ('A' for Active; 'I' for Inactive)
REMARK    1  A    between atoms: C_1  and  C_2
REMARK    2  A    between atoms: C_2  and  C_3
REMARK    3  A    between atoms: C_3  and  C_4
REMARK    4  A    between atoms: C_3  and  C_5
REMARK    5  A    between atoms: C_9  and  C_10
REMARK    6  A    between atoms: C_10  and  C_11
REMARK    7  A    between atoms: C_10  and  C_12
REMARK    8  A    between atoms: C_15  and  O_16
REMARK    9  A    between atoms: O_16  and  C_17
REMARK   10  A    between atoms: C_17  and  O_18
REMARK   11  A    between atoms: O_18  and  P_19
REMARK   12  A    between atoms: P_19  and  O_21
REMARK   13  A    between atoms: P_19  and  O_22
REMARK                            x       y       z     vdW  Elec       q    Type
REMARK                         _______ _______ _______ _____ _____    ______ ____
ROOT
ATOM      1  C   UNL     1       2.792   3.227  19.811  0.00  0.00    +0.000 A 
ATOM      2  C   UNL     1       1.582   2.911  20.459  0.00  0.00    +0.000 A 
ATOM      3  C   UNL     1       0.669   3.896  20.779  0.00  0.00    +0.000 A 
ATOM      4  C   UNL     1       0.973   5.217  20.496  0.00  0.00    +0.000 A 
ATOM      5  C   UNL     1       2.196   5.610  19.892  0.00  0.00    +0.000 A 
ATOM      6  C   UNL     1       3.113   4.591  19.508  0.00  0.00    +0.000 A 
ENDROOT
BRANCH   1   7
ATOM      7  C   UNL     1       3.676   2.007  19.496  0.00  0.00    +0.000 C 
ATOM      8  C   UNL     1       4.911   1.977  20.401  0.00  0.00    +0.000 C 
BRANCH   7  10
ATOM      9  C   UNL     1       2.749   2.116  17.100  0.00  0.00    +0.000 C 
ATOM     10  C   UNL     1       3.949   1.827  17.993  0.00  0.00    +0.000 C 
ENDBRANCH   7  10
ENDBRANCH   1   7
BRANCH   5  11
ATOM     11  C   UNL     1       2.321   7.129  19.761  0.00  0.00    +0.000 C 
ATOM     12  C   UNL     1       1.526   7.891  20.833  0.00  0.00    +0.000 C 
BRANCH  11  13
ATOM     13  C   UNL     1       2.158   7.543  18.302  0.00  0.00    +0.000 C 
ATOM     14  C   UNL     1       2.353   8.971  17.854  0.00  0.00    +0.000 C 
ATOM     15  C   UNL     1       3.346   7.913  17.454  0.00  0.00    +0.000 C 
ENDBRANCH  11  13
ENDBRANCH   5  11
BRANCH   6  16
ATOM     16  O   UNL     1       4.290   4.718  18.819  0.00  0.00    +0.000 OA
BRANCH  16  17
ATOM     17  C   UNL     1       5.465   5.372  19.261  0.00  0.00    +0.000 C 
BRANCH  17  18
ATOM     18  O   UNL     1       6.615   4.609  18.967  0.00  0.00    +0.000 OA
BRANCH  18  19
ATOM     19  P   UNL     1       7.266   4.793  17.525  0.00  0.00    +0.000 P 
ATOM     20  O   UNL     1       7.483   6.172  17.018  0.00  0.00    +0.000 OA
BRANCH  19  21
ATOM     21  O   UNL     1       8.578   3.896  17.661  0.00  0.00    +0.000 OA
ATOM     22  H   UNL     1       8.777   3.461  16.815  0.00  0.00    +0.000 HD
ENDBRANCH  19  21
BRANCH  19  23
ATOM     23  O   UNL     1       6.340   3.872  16.609  0.00  0.00    +0.000 OA
ATOM     24  H   UNL     1       5.609   3.489  17.127  0.00  0.00    +0.000 HD
ENDBRANCH  19  23
ENDBRANCH  18  19
ENDBRANCH  17  18
ENDBRANCH  16  17
ENDBRANCH   6  16
TORSDOF 10
ENDMDL
MODEL 8
REMARK VINA RESULT:      -6.3      2.803      4.940
REMARK  Name = 
REMARK  13 active torsions:
REMARK  status: ('A' for Active; 'I' for Inactive)
REMARK    1  A    between atoms: C_1  and  C_2
REMARK    2  A    between atoms: C_2  and  C_3
REMARK    3  A    between atoms: C_3  and  C_4
REMARK    4  A    between atoms: C_3  and  C_5
REMARK    5  A    between atoms: C_9  and  C_10
REMARK    6  A    between atoms: C_10  and  C_11
REMARK    7  A    between atoms: C_10  and  C_12
REMARK    8  A    between atoms: C_15  and  O_16
REMARK    9  A    between atoms: O_16  and  C_17
REMARK   10  A    between atoms: C_17  and  O_18
REMARK   11  A    between atoms: O_18  and  P_19
REMARK   12  A    between atoms: P_19  and  O_21
REMARK   13  A    between atoms: P_19  and  O_22
REMARK                            x       y       z     vdW  Elec       q    Type
REMARK                         _______ _______ _______ _____ _____    ______ ____
ROOT
ATOM      1  C   UNL     1       3.261   3.729  18.758  0.00  0.00    +0.000 A 
ATOM      2  C   UNL     1       2.142   3.394  17.972  0.00  0.00    +0.000 A 
ATOM      3  C   UNL     1       1.262   4.365  17.538  0.00  0.00    +0.000 A 
ATOM      4  C   UNL     1       1.463   5.680  17.924  0.00  0.00    +0.000 A 
ATOM      5  C   UNL     1       2.540   6.078  18.758  0.00  0.00    +0.000 A 
ATOM      6  C   UNL     1       3.482   5.089  19.157  0.00  0.00    +0.000 A 
ENDROOT
BRANCH   1   7
ATOM      7  C   UNL     1       4.157   2.532  19.123  0.00  0.00    +0.000 C 
ATOM      8  C   UNL     1       3.874   1.337  18.207  0.00  0.00    +0.000 C 
BRANCH   7  10
ATOM      9  C   UNL     1       2.850   2.467  21.336  0.00  0.00    +0.000 C 
ATOM     10  C   UNL     1       4.178   2.225  20.630  0.00  0.00    +0.000 C 
ENDBRANCH   7  10
ENDBRANCH   1   7
BRANCH   5  11
ATOM     11  C   UNL     1       2.493   7.568  19.100  0.00  0.00    +0.000 C 
ATOM     12  C   UNL     1       1.799   7.853  20.441  0.00  0.00    +0.000 C 
BRANCH  11  13
ATOM     13  C   UNL     1       2.070   8.374  17.876  0.00  0.00    +0.000 C 
ATOM     14  C   UNL     1       0.858   9.272  17.895  0.00  0.00    +0.000 C 
ATOM     15  C   UNL     1       2.237   9.870  17.827  0.00  0.00    +0.000 C 
ENDBRANCH  11  13
ENDBRANCH   5  11
BRANCH   6  16
ATOM     16  O   UNL     1       4.647   5.252  19.858  0.00  0.00    +0.000 OA
BRANCH  16  17
ATOM     17  C   UNL     1       5.950   5.385  19.320  0.00  0.00    +0.000 C 
BRANCH  17  18
ATOM     18  O   UNL     1       5.903   5.756  17.959  0.00  0.00    +0.000 OA
BRANCH  18  19
ATOM     19  P   UNL     1       6.705   4.847  16.925  0.00  0.00    +0.000 P 
ATOM     20  O   UNL     1       5.943   3.874  16.100  0.00  0.00    +0.000 OA
BRANCH  19  21
ATOM     21  O   UNL     1       7.520   5.949  16.111  0.00  0.00    +0.000 OA
ATOM     22  H   UNL     1       7.735   5.620  15.222  0.00  0.00    +0.000 HD
ENDBRANCH  19  21
BRANCH  19  23
ATOM     23  O   UNL     1       7.847   4.211  17.839  0.00  0.00    +0.000 OA
ATOM     24  H   UNL     1       8.317   4.902  18.340  0.00  0.00    +0.000 HD
ENDBRANCH  19  23
ENDBRANCH  18  19
ENDBRANCH  17  18
ENDBRANCH  16  17
ENDBRANCH   6  16
TORSDOF 10
ENDMDL
MODEL 9
REMARK VINA RESULT:      -6.3      3.403      5.033
REMARK  Name = 
REMARK  13 active torsions:
REMARK  status: ('A' for Active; 'I' for Inactive)
REMARK    1  A    between atoms: C_1  and  C_2
REMARK    2  A    between atoms: C_2  and  C_3
REMARK    3  A    between atoms: C_3  and  C_4
REMARK    4  A    between atoms: C_3  and  C_5
REMARK    5  A    between atoms: C_9  and  C_10
REMARK    6  A    between atoms: C_10  and  C_11
REMARK    7  A    between atoms: C_10  and  C_12
REMARK    8  A    between atoms: C_15  and  O_16
REMARK    9  A    between atoms: O_16  and  C_17
REMARK   10  A    between atoms: C_17  and  O_18
REMARK   11  A    between atoms: O_18  and  P_19
REMARK   12  A    between atoms: P_19  and  O_21
REMARK   13  A    between atoms: P_19  and  O_22
REMARK                            x       y       z     vdW  Elec       q    Type
REMARK                         _______ _______ _______ _____ _____    ______ ____
ROOT
ATOM      1  C   UNL     1       2.954   4.500  18.702  0.00  0.00    +0.000 A 
ATOM      2  C   UNL     1       3.290   3.143  18.537  0.00  0.00    +0.000 A 
ATOM      3  C   UNL     1       4.355   2.766  17.744  0.00  0.00    +0.000 A 
ATOM      4  C   UNL     1       5.071   3.739  17.066  0.00  0.00    +0.000 A 
ATOM      5  C   UNL     1       4.752   5.120  17.146  0.00  0.00    +0.000 A 
ATOM      6  C   UNL     1       3.693   5.516  18.010  0.00  0.00    +0.000 A 
ENDROOT
BRANCH   1   7
ATOM      7  C   UNL     1       1.764   4.745  19.648  0.00  0.00    +0.000 C 
ATOM      8  C   UNL     1       2.209   5.508  20.900  0.00  0.00    +0.000 C 
BRANCH   7  10
ATOM      9  C   UNL     1       1.182   2.815  21.244  0.00  0.00    +0.000 C 
ATOM     10  C   UNL     1       0.920   3.485  19.901  0.00  0.00    +0.000 C 
ENDBRANCH   7  10
ENDBRANCH   1   7
BRANCH   5  11
ATOM     11  C   UNL     1       5.642   5.977  16.244  0.00  0.00    +0.000 C 
ATOM     12  C   UNL     1       5.545   5.587  14.761  0.00  0.00    +0.000 C 
BRANCH  11  13
ATOM     13  C   UNL     1       7.025   6.132  16.867  0.00  0.00    +0.000 C 
ATOM     14  C   UNL     1       7.495   7.444  17.444  0.00  0.00    +0.000 C 
ATOM     15  C   UNL     1       7.203   6.283  18.355  0.00  0.00    +0.000 C 
ENDBRANCH  11  13
ENDBRANCH   5  11
BRANCH   6  16
ATOM     16  O   UNL     1       3.282   6.782  18.332  0.00  0.00    +0.000 OA
BRANCH  16  17
ATOM     17  C   UNL     1       2.166   7.473  17.799  0.00  0.00    +0.000 C 
BRANCH  17  18
ATOM     18  O   UNL     1       2.465   8.834  17.584  0.00  0.00    +0.000 OA
BRANCH  18  19
ATOM     19  P   UNL     1       1.522   9.910  18.285  0.00  0.00    +0.000 P 
ATOM     20  O   UNL     1       1.304   9.810  19.752  0.00  0.00    +0.000 OA
BRANCH  19  21
ATOM     21  O   UNL     1       2.177  11.273  17.779  0.00  0.00    +0.000 OA
ATOM     22  H   UNL     1       1.496  11.848  17.390  0.00  0.00    +0.000 HD
ENDBRANCH  19  21
BRANCH  19  23
ATOM     23  O   UNL     1       0.199   9.839  17.398  0.00  0.00    +0.000 OA
ATOM     24  H   UNL     1       0.232   9.083  16.784  0.00  0.00    +0.000 HD
ENDBRANCH  19  23
ENDBRANCH  18  19
ENDBRANCH  17  18
ENDBRANCH  16  17
ENDBRANCH   6  16
TORSDOF 10
ENDMDL
