MODEL 1
REMARK VINA RESULT:      -9.1      0.000      0.000
REMARK  Name = 
REMARK  6 active torsions:
REMARK  status: ('A' for Active; 'I' for Inactive)
REMARK    1  A    between atoms: C_1  and  C_2
REMARK    2  A    between atoms: C_2  and  O_3
REMARK    3  A    between atoms: C_2  and  C_12
REMARK    4  A    between atoms: O_3  and  C_4
REMARK    5  A    between atoms: N_14  and  C_15
REMARK    6  A    between atoms: C_15  and  C_16
REMARK                            x       y       z     vdW  Elec       q    Type
REMARK                         _______ _______ _______ _____ _____    ______ ____
ROOT
ATOM      1  C   UNL     1       7.579   4.828  17.765  0.00  0.00    +0.000 C 
ATOM      2  O   UNL     1       8.395   3.980  17.397  0.00  0.00    +0.000 OA
ATOM      3  N   UNL     1       6.970   4.667  18.981  0.00  0.00    +0.000 N 
ATOM      4  H   UNL     1       7.177   3.781  19.433  0.00  0.00    +0.000 HD
ENDROOT
BRANCH   1   6
ATOM      5  C   UNL     1       7.660   7.411  17.551  0.00  0.00    +0.000 C 
ATOM      6  C   UNL     1       7.233   6.086  16.913  0.00  0.00    +0.000 C 
BRANCH   6   7
ATOM      7  O   UNL     1       7.593   6.092  15.533  0.00  0.00    +0.000 OA
BRANCH   7   8
ATOM      8  C   UNL     1       6.974   5.231  14.668  0.00  0.00    +0.000 A 
ATOM      9  C   UNL     1       5.768   4.572  14.904  0.00  0.00    +0.000 A 
ATOM     10  C   UNL     1       5.233   3.716  13.945  0.00  0.00    +0.000 A 
ATOM     11  C   UNL     1       5.895   3.527  12.737  0.00  0.00    +0.000 A 
ATOM     12 CL   UNL     1       5.232   2.446  11.573  0.00  0.00    +0.000 Cl
ATOM     13  C   UNL     1       7.077   4.205  12.464  0.00  0.00    +0.000 A 
ATOM     14  C   UNL     1       7.607   5.049  13.431  0.00  0.00    +0.000 A 
ATOM     15  F   UNL     1       8.722   5.737  13.140  0.00  0.00    +0.000 F 
ENDBRANCH   7   8
ENDBRANCH   6   7
ENDBRANCH   1   6
BRANCH   3  16
ATOM     16  C   UNL     1       5.827   5.414  19.463  0.00  0.00    +0.000 C 
BRANCH  16  17
ATOM     17  C   UNL     1       4.522   4.866  18.977  0.00  0.00    +0.000 A 
ATOM     18  C   UNL     1       3.682   5.637  18.141  0.00  0.00    +0.000 A 
ATOM     19  C   UNL     1       2.424   5.158  17.772  0.00  0.00    +0.000 A 
ATOM     20  C   UNL     1       2.049   3.918  18.241  0.00  0.00    +0.000 A 
ATOM     21  C   UNL     1       2.879   3.157  19.030  0.00  0.00    +0.000 A 
ATOM     22  C   UNL     1       4.123   3.595  19.409  0.00  0.00    +0.000 A 
ATOM     23  O   UNL     1       2.314   1.978  19.398  0.00  0.00    +0.000 OA
ATOM     24  C   UNL     1       1.025   2.093  18.765  0.00  0.00    +0.000 C 
ATOM     25  O   UNL     1       0.857   3.309  18.008  0.00  0.00    +0.000 OA
ENDBRANCH  16  17
ENDBRANCH   3  16
TORSDOF 5
ENDMDL
MODEL 2
REMARK VINA RESULT:      -8.7      1.259      1.529
REMARK  Name = 
REMARK  6 active torsions:
REMARK  status: ('A' for Active; 'I' for Inactive)
REMARK    1  A    between atoms: C_1  and  C_2
REMARK    2  A    between atoms: C_2  and  O_3
REMARK    3  A    between atoms: C_2  and  C_12
REMARK    4  A    between atoms: O_3  and  C_4
REMARK    5  A    between atoms: N_14  and  C_15
REMARK    6  A    between atoms: C_15  and  C_16
REMARK                            x       y       z     vdW  Elec       q    Type
REMARK                         _______ _______ _______ _____ _____    ______ ____
ROOT
ATOM      1  C   UNL     1       7.226   4.694  17.665  0.00  0.00    +0.000 C 
ATOM      2  O   UNL     1       8.320   4.416  18.160  0.00  0.00    +0.000 OA
ATOM      3  N   UNL     1       6.148   3.909  17.976  0.00  0.00    +0.000 N 
ATOM      4  H   UNL     1       6.380   3.084  18.521  0.00  0.00    +0.000 HD
ENDROOT
BRANCH   1   6
ATOM      5  C   UNL     1       7.382   7.263  17.349  0.00  0.00    +0.000 C 
ATOM      6  C   UNL     1       7.018   5.916  16.720  0.00  0.00    +0.000 C 
BRANCH   6   7
ATOM      7  O   UNL     1       7.554   5.852  15.400  0.00  0.00    +0.000 OA
BRANCH   7   8
ATOM      8  C   UNL     1       6.957   5.053  14.464  0.00  0.00    +0.000 A 
ATOM      9  C   UNL     1       5.727   4.412  14.611  0.00  0.00    +0.000 A 
ATOM     10  C   UNL     1       5.219   3.619  13.584  0.00  0.00    +0.000 A 
ATOM     11  C   UNL     1       5.933   3.476  12.400  0.00  0.00    +0.000 A 
ATOM     12 CL   UNL     1       5.302   2.472  11.152  0.00  0.00    +0.000 Cl
ATOM     13  C   UNL     1       7.141   4.139  12.216  0.00  0.00    +0.000 A 
ATOM     14  C   UNL     1       7.643   4.919  13.249  0.00  0.00    +0.000 A 
ATOM     15  F   UNL     1       8.785   5.594  13.046  0.00  0.00    +0.000 F 
ENDBRANCH   7   8
ENDBRANCH   6   7
ENDBRANCH   1   6
BRANCH   3  16
ATOM     16  C   UNL     1       4.861   3.933  17.313  0.00  0.00    +0.000 C 
BRANCH  16  17
ATOM     17  C   UNL     1       3.723   3.622  18.232  0.00  0.00    +0.000 A 
ATOM     18  C   UNL     1       2.388   3.885  17.844  0.00  0.00    +0.000 A 
ATOM     19  C   UNL     1       1.340   3.684  18.742  0.00  0.00    +0.000 A 
ATOM     20  C   UNL     1       1.656   3.214  19.998  0.00  0.00    +0.000 A 
ATOM     21  C   UNL     1       2.950   2.930  20.365  0.00  0.00    +0.000 A 
ATOM     22  C   UNL     1       4.004   3.114  19.506  0.00  0.00    +0.000 A 
ATOM     23  O   UNL     1       3.047   2.496  21.647  0.00  0.00    +0.000 OA
ATOM     24  C   UNL     1       1.666   2.557  22.053  0.00  0.00    +0.000 C 
ATOM     25  O   UNL     1       0.773   2.987  21.005  0.00  0.00    +0.000 OA
ENDBRANCH  16  17
ENDBRANCH   3  16
TORSDOF 5
ENDMDL
MODEL 3
REMARK VINA RESULT:      -8.1      4.298      5.889
REMARK  Name = 
REMARK  6 active torsions:
REMARK  status: ('A' for Active; 'I' for Inactive)
REMARK    1  A    between atoms: C_1  and  C_2
REMARK    2  A    between atoms: C_2  and  O_3
REMARK    3  A    between atoms: C_2  and  C_12
REMARK    4  A    between atoms: O_3  and  C_4
REMARK    5  A    between atoms: N_14  and  C_15
REMARK    6  A    between atoms: C_15  and  C_16
REMARK                            x       y       z     vdW  Elec       q    Type
REMARK                         _______ _______ _______ _____ _____    ______ ____
ROOT
ATOM      1  C   UNL     1       2.599   3.937  18.294  0.00  0.00    +0.000 C 
ATOM      2  O   UNL     1       1.956   3.255  17.493  0.00  0.00    +0.000 OA
ATOM      3  N   UNL     1       2.009   5.051  18.828  0.00  0.00    +0.000 N 
ATOM      4  H   UNL     1       1.105   5.276  18.421  0.00  0.00    +0.000 HD
ENDROOT
BRANCH   1   6
ATOM      5  C   UNL     1       4.167   2.184  19.386  0.00  0.00    +0.000 C 
ATOM      6  C   UNL     1       4.046   3.567  18.739  0.00  0.00    +0.000 C 
BRANCH   6   7
ATOM      7  O   UNL     1       5.110   3.744  17.807  0.00  0.00    +0.000 OA
BRANCH   7   8
ATOM      8  C   UNL     1       5.895   4.863  17.879  0.00  0.00    +0.000 A 
ATOM      9  C   UNL     1       7.081   4.976  18.603  0.00  0.00    +0.000 A 
ATOM     10  C   UNL     1       7.797   6.171  18.602  0.00  0.00    +0.000 A 
ATOM     11  C   UNL     1       7.336   7.255  17.863  0.00  0.00    +0.000 A 
ATOM     12 CL   UNL     1       8.218   8.732  17.893  0.00  0.00    +0.000 Cl
ATOM     13  C   UNL     1       6.177   7.152  17.102  0.00  0.00    +0.000 A 
ATOM     14  C   UNL     1       5.466   5.959  17.118  0.00  0.00    +0.000 A 
ATOM     15  F   UNL     1       4.376   5.851  16.342  0.00  0.00    +0.000 F 
ENDBRANCH   7   8
ENDBRANCH   6   7
ENDBRANCH   1   6
BRANCH   3  16
ATOM     16  C   UNL     1       2.682   6.089  19.581  0.00  0.00    +0.000 C 
BRANCH  16  17
ATOM     17  C   UNL     1       2.132   7.454  19.315  0.00  0.00    +0.000 A 
ATOM     18  C   UNL     1       2.292   8.063  18.048  0.00  0.00    +0.000 A 
ATOM     19  C   UNL     1       1.863   9.374  17.836  0.00  0.00    +0.000 A 
ATOM     20  C   UNL     1       1.278  10.033  18.894  0.00  0.00    +0.000 A 
ATOM     21  C   UNL     1       1.096   9.431  20.117  0.00  0.00    +0.000 A 
ATOM     22  C   UNL     1       1.502   8.143  20.359  0.00  0.00    +0.000 A 
ATOM     23  O   UNL     1       0.517  10.257  21.026  0.00  0.00    +0.000 OA
ATOM     24  C   UNL     1       0.372  11.456  20.240  0.00  0.00    +0.000 C 
ATOM     25  O   UNL     1       0.829  11.315  18.879  0.00  0.00    +0.000 OA
ENDBRANCH  16  17
ENDBRANCH   3  16
TORSDOF 5
ENDMDL
MODEL 4
REMARK VINA RESULT:      -8.1      4.002      7.092
REMARK  Name = 
REMARK  6 active torsions:
REMARK  status: ('A' for Active; 'I' for Inactive)
REMARK    1  A    between atoms: C_1  and  C_2
REMARK    2  A    between atoms: C_2  and  O_3
REMARK    3  A    between atoms: C_2  and  C_12
REMARK    4  A    between atoms: O_3  and  C_4
REMARK    5  A    between atoms: N_14  and  C_15
REMARK    6  A    between atoms: C_15  and  C_16
REMARK                            x       y       z     vdW  Elec       q    Type
REMARK                         _______ _______ _______ _____ _____    ______ ____
ROOT
ATOM      1  C   UNL     1       3.741   2.827  18.230  0.00  0.00    +0.000 C 
ATOM      2  O   UNL     1       3.799   1.779  18.876  0.00  0.00    +0.000 OA
ATOM      3  N   UNL     1       4.601   2.996  17.177  0.00  0.00    +0.000 N 
ATOM      4  H   UNL     1       5.297   2.262  17.090  0.00  0.00    +0.000 HD
ENDROOT
BRANCH   1   6
ATOM      5  C   UNL     1       1.332   3.443  18.964  0.00  0.00    +0.000 C 
ATOM      6  C   UNL     1       2.714   3.955  18.550  0.00  0.00    +0.000 C 
BRANCH   6   7
ATOM      7  O   UNL     1       3.110   5.005  19.430  0.00  0.00    +0.000 OA
BRANCH   7   8
ATOM      8  C   UNL     1       2.704   6.287  19.181  0.00  0.00    +0.000 A 
ATOM      9  C   UNL     1       2.924   6.992  17.997  0.00  0.00    +0.000 A 
ATOM     10  C   UNL     1       2.462   8.299  17.859  0.00  0.00    +0.000 A 
ATOM     11  C   UNL     1       1.764   8.901  18.899  0.00  0.00    +0.000 A 
ATOM     12 CL   UNL     1       1.223  10.526  18.721  0.00  0.00    +0.000 Cl
ATOM     13  C   UNL     1       1.498   8.204  20.072  0.00  0.00    +0.000 A 
ATOM     14  C   UNL     1       1.971   6.905  20.203  0.00  0.00    +0.000 A 
ATOM     15  F   UNL     1       1.668   6.222  21.318  0.00  0.00    +0.000 F 
ENDBRANCH   7   8
ENDBRANCH   6   7
ENDBRANCH   1   6
BRANCH   3  16
ATOM     16  C   UNL     1       4.842   4.237  16.470  0.00  0.00    +0.000 C 
BRANCH  16  17
ATOM     17  C   UNL     1       5.920   5.066  17.094  0.00  0.00    +0.000 A 
ATOM     18  C   UNL     1       6.707   4.550  18.150  0.00  0.00    +0.000 A 
ATOM     19  C   UNL     1       7.644   5.361  18.793  0.00  0.00    +0.000 A 
ATOM     20  C   UNL     1       7.772   6.659  18.353  0.00  0.00    +0.000 A 
ATOM     21  C   UNL     1       7.027   7.152  17.307  0.00  0.00    +0.000 A 
ATOM     22  C   UNL     1       6.100   6.381  16.651  0.00  0.00    +0.000 A 
ATOM     23  O   UNL     1       7.294   8.457  17.043  0.00  0.00    +0.000 OA
ATOM     24  C   UNL     1       8.280   8.736  18.056  0.00  0.00    +0.000 C 
ATOM     25  O   UNL     1       8.608   7.594  18.875  0.00  0.00    +0.000 OA
ENDBRANCH  16  17
ENDBRANCH   3  16
TORSDOF 5
ENDMDL
MODEL 5
REMARK VINA RESULT:      -8.1      3.901      5.699
REMARK  Name = 
REMARK  6 active torsions:
REMARK  status: ('A' for Active; 'I' for Inactive)
REMARK    1  A    between atoms: C_1  and  C_2
REMARK    2  A    between atoms: C_2  and  O_3
REMARK    3  A    between atoms: C_2  and  C_12
REMARK    4  A    between atoms: O_3  and  C_4
REMARK    5  A    between atoms: N_14  and  C_15
REMARK    6  A    between atoms: C_15  and  C_16
REMARK                            x       y       z     vdW  Elec       q    Type
REMARK                         _______ _______ _______ _____ _____    ______ ____
ROOT
ATOM      1  C   UNL     1       1.880   3.183  18.766  0.00  0.00    +0.000 C 
ATOM      2  O   UNL     1       0.978   2.538  18.228  0.00  0.00    +0.000 OA
ATOM      3  N   UNL     1       1.541   4.227  19.585  0.00  0.00    +0.000 N 
ATOM      4  H   UNL     1       0.548   4.443  19.590  0.00  0.00    +0.000 HD
ENDROOT
BRANCH   1   6
ATOM      5  C   UNL     1       3.704   1.345  18.627  0.00  0.00    +0.000 C 
ATOM      6  C   UNL     1       3.389   2.842  18.570  0.00  0.00    +0.000 C 
BRANCH   6   7
ATOM      7  O   UNL     1       4.080   3.426  17.468  0.00  0.00    +0.000 OA
BRANCH   7   8
ATOM      8  C   UNL     1       5.028   4.386  17.695  0.00  0.00    +0.000 A 
ATOM      9  C   UNL     1       5.710   4.584  18.895  0.00  0.00    +0.000 A 
ATOM     10  C   UNL     1       6.658   5.598  19.008  0.00  0.00    +0.000 A 
ATOM     11  C   UNL     1       6.939   6.410  17.915  0.00  0.00    +0.000 A 
ATOM     12 CL   UNL     1       8.094   7.675  18.079  0.00  0.00    +0.000 Cl
ATOM     13  C   UNL     1       6.300   6.205  16.697  0.00  0.00    +0.000 A 
ATOM     14  C   UNL     1       5.350   5.197  16.598  0.00  0.00    +0.000 A 
ATOM     15  F   UNL     1       4.774   4.973  15.407  0.00  0.00    +0.000 F 
ENDBRANCH   7   8
ENDBRANCH   6   7
ENDBRANCH   1   6
BRANCH   3  16
ATOM     16  C   UNL     1       2.448   5.231  20.100  0.00  0.00    +0.000 C 
BRANCH  16  17
ATOM     17  C   UNL     1       2.155   6.604  19.583  0.00  0.00    +0.000 A 
ATOM     18  C   UNL     1       2.541   6.981  18.275  0.00  0.00    +0.000 A 
ATOM     19  C   UNL     1       2.352   8.291  17.834  0.00  0.00    +0.000 A 
ATOM     20  C   UNL     1       1.773   9.182  18.709  0.00  0.00    +0.000 A 
ATOM     21  C   UNL     1       1.371   8.808  19.970  0.00  0.00    +0.000 A 
ATOM     22  C   UNL     1       1.539   7.528  20.435  0.00  0.00    +0.000 A 
ATOM     23  O   UNL     1       0.840   9.839  20.678  0.00  0.00    +0.000 OA
ATOM     24  C   UNL     1       0.972  10.911  19.724  0.00  0.00    +0.000 C 
ATOM     25  O   UNL     1       1.539  10.498  18.463  0.00  0.00    +0.000 OA
ENDBRANCH  16  17
ENDBRANCH   3  16
TORSDOF 5
ENDMDL
MODEL 6
REMARK VINA RESULT:      -8.0      3.874      6.975
REMARK  Name = 
REMARK  6 active torsions:
REMARK  status: ('A' for Active; 'I' for Inactive)
REMARK    1  A    between atoms: C_1  and  C_2
REMARK    2  A    between atoms: C_2  and  O_3
REMARK    3  A    between atoms: C_2  and  C_12
REMARK    4  A    between atoms: O_3  and  C_4
REMARK    5  A    between atoms: N_14  and  C_15
REMARK    6  A    between atoms: C_15  and  C_16
REMARK                            x       y       z     vdW  Elec       q    Type
REMARK                         _______ _______ _______ _____ _____    ______ ____
ROOT
ATOM      1  C   UNL     1       1.732   3.368  18.774  0.00  0.00    +0.000 C 
ATOM      2  O   UNL     1       0.697   2.956  18.246  0.00  0.00    +0.000 OA
ATOM      3  N   UNL     1       2.931   3.089  18.173  0.00  0.00    +0.000 N 
ATOM      4  H   UNL     1       2.858   2.459  17.379  0.00  0.00    +0.000 HD
ENDROOT
BRANCH   1   6
ATOM      5  C   UNL     1       1.664   3.382  21.366  0.00  0.00    +0.000 C 
ATOM      6  C   UNL     1       1.727   4.215  20.083  0.00  0.00    +0.000 C 
BRANCH   6   7
ATOM      7  O   UNL     1       2.710   5.238  20.233  0.00  0.00    +0.000 OA
BRANCH   7   8
ATOM      8  C   UNL     1       2.546   6.434  19.590  0.00  0.00    +0.000 A 
ATOM      9  C   UNL     1       3.019   6.739  18.314  0.00  0.00    +0.000 A 
ATOM     10  C   UNL     1       2.792   7.997  17.760  0.00  0.00    +0.000 A 
ATOM     11  C   UNL     1       2.076   8.950  18.475  0.00  0.00    +0.000 A 
ATOM     12 CL   UNL     1       1.826  10.508  17.786  0.00  0.00    +0.000 Cl
ATOM     13  C   UNL     1       1.560   8.654  19.732  0.00  0.00    +0.000 A 
ATOM     14  C   UNL     1       1.801   7.401  20.278  0.00  0.00    +0.000 A 
ATOM     15  F   UNL     1       1.258   7.106  21.470  0.00  0.00    +0.000 F 
ENDBRANCH   7   8
ENDBRANCH   6   7
ENDBRANCH   1   6
BRANCH   3  16
ATOM     16  C   UNL     1       4.240   3.276  18.763  0.00  0.00    +0.000 C 
BRANCH  16  17
ATOM     17  C   UNL     1       5.241   3.833  17.801  0.00  0.00    +0.000 A 
ATOM     18  C   UNL     1       6.267   4.698  18.247  0.00  0.00    +0.000 A 
ATOM     19  C   UNL     1       7.138   5.290  17.332  0.00  0.00    +0.000 A 
ATOM     20  C   UNL     1       6.962   4.991  15.999  0.00  0.00    +0.000 A 
ATOM     21  C   UNL     1       5.983   4.128  15.568  0.00  0.00    +0.000 A 
ATOM     22  C   UNL     1       5.112   3.526  16.442  0.00  0.00    +0.000 A 
ATOM     23  O   UNL     1       5.969   3.983  14.218  0.00  0.00    +0.000 OA
ATOM     24  C   UNL     1       7.041   4.871  13.845  0.00  0.00    +0.000 C 
ATOM     25  O   UNL     1       7.694   5.495  14.970  0.00  0.00    +0.000 OA
ENDBRANCH  16  17
ENDBRANCH   3  16
TORSDOF 5
ENDMDL
MODEL 7
REMARK VINA RESULT:      -8.0      3.922      6.883
REMARK  Name = 
REMARK  6 active torsions:
REMARK  status: ('A' for Active; 'I' for Inactive)
REMARK    1  A    between atoms: C_1  and  C_2
REMARK    2  A    between atoms: C_2  and  O_3
REMARK    3  A    between atoms: C_2  and  C_12
REMARK    4  A    between atoms: O_3  and  C_4
REMARK    5  A    between atoms: N_14  and  C_15
REMARK    6  A    between atoms: C_15  and  C_16
REMARK                            x       y       z     vdW  Elec       q    Type
REMARK                         _______ _______ _______ _____ _____    ______ ____
ROOT
ATOM      1  C   UNL     1       3.464   2.940  19.840  0.00  0.00    +0.000 C 
ATOM      2  O   UNL     1       3.768   2.486  20.945  0.00  0.00    +0.000 OA
ATOM      3  N   UNL     1       4.115   2.462  18.734  0.00  0.00    +0.000 N 
ATOM      4  H   UNL     1       4.885   1.834  18.946  0.00  0.00    +0.000 HD
ENDROOT
BRANCH   1   6
ATOM      5  C   UNL     1       0.928   3.475  19.788  0.00  0.00    +0.000 C 
ATOM      6  C   UNL     1       2.353   4.017  19.651  0.00  0.00    +0.000 C 
BRANCH   6   7
ATOM      7  O   UNL     1       2.464   5.241  20.375  0.00  0.00    +0.000 OA
BRANCH   7   8
ATOM      8  C   UNL     1       2.348   6.432  19.713  0.00  0.00    +0.000 A 
ATOM      9  C   UNL     1       2.789   6.684  18.414  0.00  0.00    +0.000 A 
ATOM     10  C   UNL     1       2.616   7.943  17.842  0.00  0.00    +0.000 A 
ATOM     11  C   UNL     1       1.987   8.951  18.563  0.00  0.00    +0.000 A 
ATOM     12 CL   UNL     1       1.804  10.507  17.851  0.00  0.00    +0.000 Cl
ATOM     13  C   UNL     1       1.503   8.710  19.844  0.00  0.00    +0.000 A 
ATOM     14  C   UNL     1       1.689   7.455  20.408  0.00  0.00    +0.000 A 
ATOM     15  F   UNL     1       1.176   7.216  21.625  0.00  0.00    +0.000 F 
ENDBRANCH   7   8
ENDBRANCH   6   7
ENDBRANCH   1   6
BRANCH   3  16
ATOM     16  C   UNL     1       4.067   3.039  17.406  0.00  0.00    +0.000 C 
BRANCH  16  17
ATOM     17  C   UNL     1       4.912   4.266  17.271  0.00  0.00    +0.000 A 
ATOM     18  C   UNL     1       4.901   5.022  16.075  0.00  0.00    +0.000 A 
ATOM     19  C   UNL     1       5.763   6.108  15.919  0.00  0.00    +0.000 A 
ATOM     20  C   UNL     1       6.602   6.412  16.968  0.00  0.00    +0.000 A 
ATOM     21  C   UNL     1       6.592   5.695  18.142  0.00  0.00    +0.000 A 
ATOM     22  C   UNL     1       5.755   4.624  18.329  0.00  0.00    +0.000 A 
ATOM     23  O   UNL     1       7.505   6.147  19.039  0.00  0.00    +0.000 OA
ATOM     24  C   UNL     1       8.106   7.220  18.288  0.00  0.00    +0.000 C 
ATOM     25  O   UNL     1       7.522   7.412  16.983  0.00  0.00    +0.000 OA
ENDBRANCH  16  17
ENDBRANCH   3  16
TORSDOF 5
ENDMDL
MODEL 8
REMARK VINA RESULT:      -7.9      4.345      5.979
REMARK  Name = 
REMARK  6 active torsions:
REMARK  status: ('A' for Active; 'I' for Inactive)
REMARK    1  A    between atoms: C_1  and  C_2
REMARK    2  A    between atoms: C_2  and  O_3
REMARK    3  A    between atoms: C_2  and  C_12
REMARK    4  A    between atoms: O_3  and  C_4
REMARK    5  A    between atoms: N_14  and  C_15
REMARK    6  A    between atoms: C_15  and  C_16
REMARK                            x       y       z     vdW  Elec       q    Type
REMARK                         _______ _______ _______ _____ _____    ______ ____
ROOT
ATOM      1  C   UNL     1       5.468   6.523  16.685  0.00  0.00    +0.000 C 
ATOM      2  O   UNL     1       6.615   6.973  16.692  0.00  0.00    +0.000 OA
ATOM      3  N   UNL     1       4.462   7.283  17.220  0.00  0.00    +0.000 N 
ATOM      4  H   UNL     1       4.783   8.129  17.682  0.00  0.00    +0.000 HD
ENDROOT
BRANCH   1   6
ATOM      5  C   UNL     1       5.780   4.862  14.718  0.00  0.00    +0.000 C 
ATOM      6  C   UNL     1       5.114   5.135  16.070  0.00  0.00    +0.000 C 
BRANCH   6   7
ATOM      7  O   UNL     1       5.232   3.977  16.894  0.00  0.00    +0.000 OA
BRANCH   7   8
ATOM      8  C   UNL     1       4.226   3.660  17.765  0.00  0.00    +0.000 A 
ATOM      9  C   UNL     1       3.049   2.988  17.434  0.00  0.00    +0.000 A 
ATOM     10  C   UNL     1       2.092   2.720  18.410  0.00  0.00    +0.000 A 
ATOM     11  C   UNL     1       2.315   3.110  19.725  0.00  0.00    +0.000 A 
ATOM     12 CL   UNL     1       1.111   2.794  20.914  0.00  0.00    +0.000 Cl
ATOM     13  C   UNL     1       3.499   3.745  20.086  0.00  0.00    +0.000 A 
ATOM     14  C   UNL     1       4.442   4.016  19.103  0.00  0.00    +0.000 A 
ATOM     15  F   UNL     1       5.601   4.585  19.467  0.00  0.00    +0.000 F 
ENDBRANCH   7   8
ENDBRANCH   6   7
ENDBRANCH   1   6
BRANCH   3  16
ATOM     16  C   UNL     1       3.120   6.826  17.516  0.00  0.00    +0.000 C 
BRANCH  16  17
ATOM     17  C   UNL     1       2.412   7.694  18.509  0.00  0.00    +0.000 A 
ATOM     18  C   UNL     1       2.215   7.256  19.839  0.00  0.00    +0.000 A 
ATOM     19  C   UNL     1       1.470   8.028  20.732  0.00  0.00    +0.000 A 
ATOM     20  C   UNL     1       0.955   9.219  20.271  0.00  0.00    +0.000 A 
ATOM     21  C   UNL     1       1.172   9.658  18.986  0.00  0.00    +0.000 A 
ATOM     22  C   UNL     1       1.902   8.926  18.083  0.00  0.00    +0.000 A 
ATOM     23  O   UNL     1       0.564  10.844  18.729  0.00  0.00    +0.000 OA
ATOM     24  C   UNL     1      -0.077  11.094  19.995  0.00  0.00    +0.000 C 
ATOM     25  O   UNL     1       0.186  10.080  20.987  0.00  0.00    +0.000 OA
ENDBRANCH  16  17
ENDBRANCH   3  16
TORSDOF 5
ENDMDL
MODEL 9
REMARK VINA RESULT:      -7.9      4.293      5.822
REMARK  Name = 
REMARK  6 active torsions:
REMARK  status: ('A' for Active; 'I' for Inactive)
REMARK    1  A    between atoms: C_1  and  C_2
REMARK    2  A    between atoms: C_2  and  O_3
REMARK    3  A    between atoms: C_2  and  C_12
REMARK    4  A    between atoms: O_3  and  C_4
REMARK    5  A    between atoms: N_14  and  C_15
REMARK    6  A    between atoms: C_15  and  C_16
REMARK                            x       y       z     vdW  Elec       q    Type
REMARK                         _______ _______ _______ _____ _____    ______ ____
ROOT
ATOM      1  C   UNL     1       5.433   6.151  16.914  0.00  0.00    +0.000 C 
ATOM      2  O   UNL     1       6.620   6.458  17.040  0.00  0.00    +0.000 OA
ATOM      3  N   UNL     1       4.485   6.948  17.499  0.00  0.00    +0.000 N 
ATOM      4  H   UNL     1       4.868   7.682  18.089  0.00  0.00    +0.000 HD
ENDROOT
BRANCH   1   6
ATOM      5  C   UNL     1       5.675   4.748  14.747  0.00  0.00    +0.000 C 
ATOM      6  C   UNL     1       4.968   4.909  16.095  0.00  0.00    +0.000 C 
BRANCH   6   7
ATOM      7  O   UNL     1       4.915   3.644  16.752  0.00  0.00    +0.000 OA
BRANCH   7   8
ATOM      8  C   UNL     1       3.961   3.416  17.706  0.00  0.00    +0.000 A 
ATOM      9  C   UNL     1       2.651   3.006  17.459  0.00  0.00    +0.000 A 
ATOM     10  C   UNL     1       1.765   2.805  18.516  0.00  0.00    +0.000 A 
ATOM     11  C   UNL     1       2.191   2.998  19.825  0.00  0.00    +0.000 A 
ATOM     12 CL   UNL     1       1.077   2.770  21.116  0.00  0.00    +0.000 Cl
ATOM     13  C   UNL     1       3.504   3.367  20.095  0.00  0.00    +0.000 A 
ATOM     14  C   UNL     1       4.376   3.574  19.035  0.00  0.00    +0.000 A 
ATOM     15  F   UNL     1       5.654   3.881  19.306  0.00  0.00    +0.000 F 
ENDBRANCH   7   8
ENDBRANCH   6   7
ENDBRANCH   1   6
BRANCH   3  16
ATOM     16  C   UNL     1       3.084   6.619  17.663  0.00  0.00    +0.000 C 
BRANCH  16  17
ATOM     17  C   UNL     1       2.322   7.665  18.414  0.00  0.00    +0.000 A 
ATOM     18  C   UNL     1       1.925   8.865  17.779  0.00  0.00    +0.000 A 
ATOM     19  C   UNL     1       1.301   9.877  18.509  0.00  0.00    +0.000 A 
ATOM     20  C   UNL     1       1.082   9.653  19.851  0.00  0.00    +0.000 A 
ATOM     21  C   UNL     1       1.442   8.475  20.462  0.00  0.00    +0.000 A 
ATOM     22  C   UNL     1       2.054   7.459  19.772  0.00  0.00    +0.000 A 
ATOM     23  O   UNL     1       1.154   8.464  21.788  0.00  0.00    +0.000 OA
ATOM     24  C   UNL     1       0.589   9.780  21.948  0.00  0.00    +0.000 C 
ATOM     25  O   UNL     1       0.516  10.532  20.719  0.00  0.00    +0.000 OA
ENDBRANCH  16  17
ENDBRANCH   3  16
TORSDOF 5
ENDMDL
