MODEL 1
REMARK VINA RESULT:      -8.3      0.000      0.000
REMARK  Name = 
REMARK  10 active torsions:
REMARK  status: ('A' for Active; 'I' for Inactive)
REMARK    1  A    between atoms: C_1  and  C_2
REMARK    2  A    between atoms: C_2  and  O_3
REMARK    3  A    between atoms: O_3  and  C_4
REMARK    4  A    between atoms: C_4  and  C_6
REMARK    5  A    between atoms: C_7  and  N_8
REMARK    6  A    between atoms: C_9  and  C_11
REMARK    7  A    between atoms: C_12  and  C_13
REMARK    8  A    between atoms: C_16  and  C_17
REMARK    9  A    between atoms: C_17  and  C_18
REMARK   10  A    between atoms: C_17  and  C_19
REMARK                            x       y       z     vdW  Elec       q    Type
REMARK                         _______ _______ _______ _____ _____    ______ ____
ROOT
ATOM      1  N   UNL     1       6.544   7.829  17.094  0.00  0.00    +0.000 N 
ATOM      2  C   UNL     1       7.666   7.905  17.885  0.00  0.00    +0.000 C 
ATOM      3  O   UNL     1       8.042   7.051  18.688  0.00  0.00    +0.000 OA
ATOM      4  H   UNL     1       6.538   8.340  16.221  0.00  0.00    +0.000 HD
ENDROOT
BRANCH   1   6
ATOM      5  C   UNL     1       5.939   5.385  16.717  0.00  0.00    +0.000 A 
ATOM      6  C   UNL     1       5.756   6.697  17.155  0.00  0.00    +0.000 A 
ATOM      7  S   UNL     1       4.264   6.961  17.968  0.00  0.00    +0.000 S 
ATOM      8  C   UNL     1       3.790   5.398  17.628  0.00  0.00    +0.000 A 
ATOM      9  C   UNL     1       4.754   4.649  17.012  0.00  0.00    +0.000 A 
ATOM     10  C   UNL     1       4.321   3.233  16.878  0.00  0.00    +0.000 C 
ATOM     11  C   UNL     1       2.787   3.336  17.133  0.00  0.00    +0.000 C 
ATOM     12  C   UNL     1       2.555   4.645  17.949  0.00  0.00    +0.000 C 
BRANCH   5  13
ATOM     13  C   UNL     1       7.167   4.799  16.176  0.00  0.00    +0.000 C 
ATOM     14  O   UNL     1       7.997   4.236  16.881  0.00  0.00    +0.000 OA
BRANCH  13  15
ATOM     15  O   UNL     1       7.355   5.091  14.861  0.00  0.00    +0.000 OA
BRANCH  15  17
ATOM     16  C   UNL     1       7.160   4.188  12.615  0.00  0.00    +0.000 C 
ATOM     17  C   UNL     1       6.459   4.499  13.921  0.00  0.00    +0.000 C 
ENDBRANCH  15  17
ENDBRANCH  13  15
ENDBRANCH   5  13
ENDBRANCH   1   6
BRANCH   2  18
ATOM     18  C   UNL     1       8.482   9.122  17.614  0.00  0.00    +0.000 C 
ATOM     19  C   UNL     1       8.787   9.943  18.635  0.00  0.00    +0.000 C 
BRANCH  19  20
ATOM     20  C   UNL     1       9.572  11.179  18.525  0.00  0.00    +0.000 A 
ATOM     21  C   UNL     1      10.746  11.166  17.761  0.00  0.00    +0.000 A 
ATOM     22  C   UNL     1      11.486  12.337  17.556  0.00  0.00    +0.000 A 
ATOM     23  C   UNL     1      11.057  13.556  18.098  0.00  0.00    +0.000 A 
ATOM     24  C   UNL     1       9.890  13.563  18.875  0.00  0.00    +0.000 A 
ATOM     25  C   UNL     1       9.153  12.393  19.079  0.00  0.00    +0.000 A 
BRANCH  23  26
ATOM     26  C   UNL     1      11.815  14.836  17.794  0.00  0.00    +0.000 C 
ATOM     27  C   UNL     1      10.972  15.779  16.928  0.00  0.00    +0.000 C 
ATOM     28  C   UNL     1      12.279  15.549  19.066  0.00  0.00    +0.000 C 
ENDBRANCH  23  26
ENDBRANCH  19  20
ENDBRANCH   2  18
TORSDOF 7
ENDMDL
MODEL 2
REMARK VINA RESULT:      -8.3      1.014      1.319
REMARK  Name = 
REMARK  10 active torsions:
REMARK  status: ('A' for Active; 'I' for Inactive)
REMARK    1  A    between atoms: C_1  and  C_2
REMARK    2  A    between atoms: C_2  and  O_3
REMARK    3  A    between atoms: O_3  and  C_4
REMARK    4  A    between atoms: C_4  and  C_6
REMARK    5  A    between atoms: C_7  and  N_8
REMARK    6  A    between atoms: C_9  and  C_11
REMARK    7  A    between atoms: C_12  and  C_13
REMARK    8  A    between atoms: C_16  and  C_17
REMARK    9  A    between atoms: C_17  and  C_18
REMARK   10  A    between atoms: C_17  and  C_19
REMARK                            x       y       z     vdW  Elec       q    Type
REMARK                         _______ _______ _______ _____ _____    ______ ____
ROOT
ATOM      1  N   UNL     1       6.267   7.295  17.418  0.00  0.00    +0.000 N 
ATOM      2  C   UNL     1       7.469   7.290  18.085  0.00  0.00    +0.000 C 
ATOM      3  O   UNL     1       7.923   6.358  18.747  0.00  0.00    +0.000 OA
ATOM      4  H   UNL     1       6.170   7.895  16.610  0.00  0.00    +0.000 HD
ENDROOT
BRANCH   1   6
ATOM      5  C   UNL     1       5.457   4.999  16.673  0.00  0.00    +0.000 A 
ATOM      6  C   UNL     1       5.480   6.160  17.445  0.00  0.00    +0.000 A 
ATOM      7  S   UNL     1       4.321   6.178  18.716  0.00  0.00    +0.000 S 
ATOM      8  C   UNL     1       3.690   4.731  18.175  0.00  0.00    +0.000 A 
ATOM      9  C   UNL     1       4.384   4.181  17.132  0.00  0.00    +0.000 A 
ATOM     10  C   UNL     1       3.862   2.828  16.805  0.00  0.00    +0.000 C 
ATOM     11  C   UNL     1       2.485   2.823  17.534  0.00  0.00    +0.000 C 
ATOM     12  C   UNL     1       2.577   3.889  18.670  0.00  0.00    +0.000 C 
BRANCH   5  13
ATOM     13  C   UNL     1       6.433   4.596  15.658  0.00  0.00    +0.000 C 
ATOM     14  O   UNL     1       7.637   4.780  15.789  0.00  0.00    +0.000 OA
BRANCH  13  15
ATOM     15  O   UNL     1       5.847   4.156  14.511  0.00  0.00    +0.000 OA
BRANCH  15  17
ATOM     16  C   UNL     1       6.033   3.262  12.261  0.00  0.00    +0.000 C 
ATOM     17  C   UNL     1       6.644   4.146  13.327  0.00  0.00    +0.000 C 
ENDBRANCH  15  17
ENDBRANCH  13  15
ENDBRANCH   5  13
ENDBRANCH   1   6
BRANCH   2  18
ATOM     18  C   UNL     1       8.261   8.531  17.855  0.00  0.00    +0.000 C 
ATOM     19  C   UNL     1       8.724   9.214  18.918  0.00  0.00    +0.000 C 
BRANCH  19  20
ATOM     20  C   UNL     1       9.510  10.453  18.853  0.00  0.00    +0.000 A 
ATOM     21  C   UNL     1       9.856  11.097  20.048  0.00  0.00    +0.000 A 
ATOM     22  C   UNL     1      10.673  12.233  20.044  0.00  0.00    +0.000 A 
ATOM     23  C   UNL     1      11.179  12.745  18.842  0.00  0.00    +0.000 A 
ATOM     24  C   UNL     1      10.819  12.109  17.646  0.00  0.00    +0.000 A 
ATOM     25  C   UNL     1      10.003  10.973  17.651  0.00  0.00    +0.000 A 
BRANCH  23  26
ATOM     26  C   UNL     1      12.138  13.922  18.856  0.00  0.00    +0.000 C 
ATOM     27  C   UNL     1      12.277  14.532  17.456  0.00  0.00    +0.000 C 
ATOM     28  C   UNL     1      11.724  14.993  19.867  0.00  0.00    +0.000 C 
ENDBRANCH  23  26
ENDBRANCH  19  20
ENDBRANCH   2  18
TORSDOF 7
ENDMDL
MODEL 3
REMARK VINA RESULT:      -8.0      5.950      8.558
REMARK  Name = 
REMARK  10 active torsions:
REMARK  status: ('A' for Active; 'I' for Inactive)
REMARK    1  A    between atoms: C_1  and  C_2
REMARK    2  A    between atoms: C_2  and  O_3
REMARK    3  A    between atoms: O_3  and  C_4
REMARK    4  A    between atoms: C_4  and  C_6
REMARK    5  A    between atoms: C_7  and  N_8
REMARK    6  A    between atoms: C_9  and  C_11
REMARK    7  A    between atoms: C_12  and  C_13
REMARK    8  A    between atoms: C_16  and  C_17
REMARK    9  A    between atoms: C_17  and  C_18
REMARK   10  A    between atoms: C_17  and  C_19
REMARK                            x       y       z     vdW  Elec       q    Type
REMARK                         _______ _______ _______ _____ _____    ______ ____
ROOT
ATOM      1  N   UNL     1       2.488   6.621  18.663  0.00  0.00    +0.000 N 
ATOM      2  C   UNL     1       2.340   6.216  19.968  0.00  0.00    +0.000 C 
ATOM      3  O   UNL     1       2.961   5.305  20.516  0.00  0.00    +0.000 OA
ATOM      4  H   UNL     1       2.265   7.580  18.430  0.00  0.00    +0.000 HD
ENDROOT
BRANCH   1   6
ATOM      5  C   UNL     1       3.528   4.702  17.351  0.00  0.00    +0.000 A 
ATOM      6  C   UNL     1       3.428   5.994  17.868  0.00  0.00    +0.000 A 
ATOM      7  S   UNL     1       4.713   7.036  17.399  0.00  0.00    +0.000 S 
ATOM      8  C   UNL     1       5.478   5.766  16.635  0.00  0.00    +0.000 A 
ATOM      9  C   UNL     1       4.755   4.606  16.631  0.00  0.00    +0.000 A 
ATOM     10  C   UNL     1       5.424   3.566  15.806  0.00  0.00    +0.000 C 
ATOM     11  C   UNL     1       6.863   4.145  15.656  0.00  0.00    +0.000 C 
ATOM     12  C   UNL     1       6.752   5.685  15.883  0.00  0.00    +0.000 C 
BRANCH   5  13
ATOM     13  C   UNL     1       2.509   3.652  17.400  0.00  0.00    +0.000 C 
ATOM     14  O   UNL     1       1.311   3.888  17.296  0.00  0.00    +0.000 OA
BRANCH  13  15
ATOM     15  O   UNL     1       3.022   2.436  17.732  0.00  0.00    +0.000 OA
BRANCH  15  17
ATOM     16  C   UNL     1       4.312   2.148  19.770  0.00  0.00    +0.000 C 
ATOM     17  C   UNL     1       2.956   2.046  19.104  0.00  0.00    +0.000 C 
ENDBRANCH  15  17
ENDBRANCH  13  15
ENDBRANCH   5  13
ENDBRANCH   1   6
BRANCH   2  18
ATOM     18  C   UNL     1       1.388   7.070  20.733  0.00  0.00    +0.000 C 
ATOM     19  C   UNL     1       1.297   8.378  20.428  0.00  0.00    +0.000 C 
BRANCH  19  20
ATOM     20  C   UNL     1       0.415   9.344  21.094  0.00  0.00    +0.000 A 
ATOM     21  C   UNL     1       0.117   9.163  22.451  0.00  0.00    +0.000 A 
ATOM     22  C   UNL     1      -0.651  10.101  23.151  0.00  0.00    +0.000 A 
ATOM     23  C   UNL     1      -1.125  11.255  22.514  0.00  0.00    +0.000 A 
ATOM     24  C   UNL     1      -0.840  11.426  21.152  0.00  0.00    +0.000 A 
ATOM     25  C   UNL     1      -0.073  10.488  20.454  0.00  0.00    +0.000 A 
BRANCH  23  26
ATOM     26  C   UNL     1      -1.878  12.310  23.305  0.00  0.00    +0.000 C 
ATOM     27  C   UNL     1      -1.163  13.664  23.230  0.00  0.00    +0.000 C 
ATOM     28  C   UNL     1      -3.332  12.447  22.848  0.00  0.00    +0.000 C 
ENDBRANCH  23  26
ENDBRANCH  19  20
ENDBRANCH   2  18
TORSDOF 7
ENDMDL
MODEL 4
REMARK VINA RESULT:      -7.9      5.997      8.595
REMARK  Name = 
REMARK  10 active torsions:
REMARK  status: ('A' for Active; 'I' for Inactive)
REMARK    1  A    between atoms: C_1  and  C_2
REMARK    2  A    between atoms: C_2  and  O_3
REMARK    3  A    between atoms: O_3  and  C_4
REMARK    4  A    between atoms: C_4  and  C_6
REMARK    5  A    between atoms: C_7  and  N_8
REMARK    6  A    between atoms: C_9  and  C_11
REMARK    7  A    between atoms: C_12  and  C_13
REMARK    8  A    between atoms: C_16  and  C_17
REMARK    9  A    between atoms: C_17  and  C_18
REMARK   10  A    between atoms: C_17  and  C_19
REMARK                            x       y       z     vdW  Elec       q    Type
REMARK                         _______ _______ _______ _____ _____    ______ ____
ROOT
ATOM      1  N   UNL     1       2.539   6.677  18.750  0.00  0.00    +0.000 N 
ATOM      2  C   UNL     1       2.329   6.213  20.027  0.00  0.00    +0.000 C 
ATOM      3  O   UNL     1       2.862   5.227  20.534  0.00  0.00    +0.000 OA
ATOM      4  H   UNL     1       2.398   7.661  18.569  0.00  0.00    +0.000 HD
ENDROOT
BRANCH   1   6
ATOM      5  C   UNL     1       3.460   4.754  17.358  0.00  0.00    +0.000 A 
ATOM      6  C   UNL     1       3.446   6.021  17.940  0.00  0.00    +0.000 A 
ATOM      7  S   UNL     1       4.814   6.987  17.546  0.00  0.00    +0.000 S 
ATOM      8  C   UNL     1       5.498   5.703  16.730  0.00  0.00    +0.000 A 
ATOM      9  C   UNL     1       4.690   4.602  16.654  0.00  0.00    +0.000 A 
ATOM     10  C   UNL     1       5.298   3.558  15.787  0.00  0.00    +0.000 C 
ATOM     11  C   UNL     1       6.778   4.034  15.691  0.00  0.00    +0.000 C 
ATOM     12  C   UNL     1       6.777   5.565  15.996  0.00  0.00    +0.000 C 
BRANCH   5  13
ATOM     13  C   UNL     1       2.366   3.781  17.337  0.00  0.00    +0.000 C 
ATOM     14  O   UNL     1       1.188   4.114  17.283  0.00  0.00    +0.000 OA
BRANCH  13  15
ATOM     15  O   UNL     1       2.791   2.506  17.545  0.00  0.00    +0.000 OA
BRANCH  15  17
ATOM     16  C   UNL     1       1.769   2.118  19.714  0.00  0.00    +0.000 C 
ATOM     17  C   UNL     1       3.042   2.107  18.892  0.00  0.00    +0.000 C 
ENDBRANCH  15  17
ENDBRANCH  13  15
ENDBRANCH   5  13
ENDBRANCH   1   6
BRANCH   2  18
ATOM     18  C   UNL     1       1.428   7.097  20.820  0.00  0.00    +0.000 C 
ATOM     19  C   UNL     1       1.409   8.415  20.553  0.00  0.00    +0.000 C 
BRANCH  19  20
ATOM     20  C   UNL     1       0.585   9.410  21.251  0.00  0.00    +0.000 A 
ATOM     21  C   UNL     1       0.143  10.536  20.544  0.00  0.00    +0.000 A 
ATOM     22  C   UNL     1      -0.713  11.470  21.139  0.00  0.00    +0.000 A 
ATOM     23  C   UNL     1      -1.164  11.290  22.453  0.00  0.00    +0.000 A 
ATOM     24  C   UNL     1      -0.709  10.171  23.164  0.00  0.00    +0.000 A 
ATOM     25  C   UNL     1       0.146   9.238  22.568  0.00  0.00    +0.000 A 
BRANCH  23  26
ATOM     26  C   UNL     1      -2.165  12.259  23.058  0.00  0.00    +0.000 C 
ATOM     27  C   UNL     1      -1.468  13.541  23.528  0.00  0.00    +0.000 C 
ATOM     28  C   UNL     1      -3.303  12.593  22.091  0.00  0.00    +0.000 C 
ENDBRANCH  23  26
ENDBRANCH  19  20
ENDBRANCH   2  18
TORSDOF 7
ENDMDL
MODEL 5
REMARK VINA RESULT:      -7.9      1.432      1.705
REMARK  Name = 
REMARK  10 active torsions:
REMARK  status: ('A' for Active; 'I' for Inactive)
REMARK    1  A    between atoms: C_1  and  C_2
REMARK    2  A    between atoms: C_2  and  O_3
REMARK    3  A    between atoms: O_3  and  C_4
REMARK    4  A    between atoms: C_4  and  C_6
REMARK    5  A    between atoms: C_7  and  N_8
REMARK    6  A    between atoms: C_9  and  C_11
REMARK    7  A    between atoms: C_12  and  C_13
REMARK    8  A    between atoms: C_16  and  C_17
REMARK    9  A    between atoms: C_17  and  C_18
REMARK   10  A    between atoms: C_17  and  C_19
REMARK                            x       y       z     vdW  Elec       q    Type
REMARK                         _______ _______ _______ _____ _____    ______ ____
ROOT
ATOM      1  N   UNL     1       5.925   7.245  17.957  0.00  0.00    +0.000 N 
ATOM      2  C   UNL     1       7.276   7.213  17.709  0.00  0.00    +0.000 C 
ATOM      3  O   UNL     1       7.932   6.216  17.409  0.00  0.00    +0.000 OA
ATOM      4  H   UNL     1       5.427   8.109  17.791  0.00  0.00    +0.000 HD
ENDROOT
BRANCH   1   6
ATOM      5  C   UNL     1       4.797   5.306  16.752  0.00  0.00    +0.000 A 
ATOM      6  C   UNL     1       5.195   6.077  17.843  0.00  0.00    +0.000 A 
ATOM      7  S   UNL     1       4.715   5.435  19.365  0.00  0.00    +0.000 S 
ATOM      8  C   UNL     1       3.865   4.223  18.597  0.00  0.00    +0.000 A 
ATOM      9  C   UNL     1       4.010   4.221  17.237  0.00  0.00    +0.000 A 
ATOM     10  C   UNL     1       3.355   3.029  16.636  0.00  0.00    +0.000 C 
ATOM     11  C   UNL     1       2.441   2.538  17.799  0.00  0.00    +0.000 C 
ATOM     12  C   UNL     1       3.057   3.096  19.119  0.00  0.00    +0.000 C 
BRANCH   5  13
ATOM     13  C   UNL     1       5.212   5.471  15.357  0.00  0.00    +0.000 C 
ATOM     14  O   UNL     1       5.350   6.571  14.835  0.00  0.00    +0.000 OA
BRANCH  13  15
ATOM     15  O   UNL     1       5.264   4.292  14.681  0.00  0.00    +0.000 OA
BRANCH  15  17
ATOM     16  C   UNL     1       5.930   3.450  12.502  0.00  0.00    +0.000 C 
ATOM     17  C   UNL     1       6.371   4.084  13.804  0.00  0.00    +0.000 C 
ENDBRANCH  15  17
ENDBRANCH  13  15
ENDBRANCH   5  13
ENDBRANCH   1   6
BRANCH   2  18
ATOM     18  C   UNL     1       7.900   8.566  17.742  0.00  0.00    +0.000 C 
ATOM     19  C   UNL     1       8.649   8.913  18.805  0.00  0.00    +0.000 C 
BRANCH  19  20
ATOM     20  C   UNL     1       9.319  10.207  18.985  0.00  0.00    +0.000 A 
ATOM     21  C   UNL     1       9.652  10.958  17.850  0.00  0.00    +0.000 A 
ATOM     22  C   UNL     1      10.215  12.234  17.970  0.00  0.00    +0.000 A 
ATOM     23  C   UNL     1      10.443  12.798  19.232  0.00  0.00    +0.000 A 
ATOM     24  C   UNL     1      10.124  12.038  20.366  0.00  0.00    +0.000 A 
ATOM     25  C   UNL     1       9.561  10.764  20.245  0.00  0.00    +0.000 A 
BRANCH  23  26
ATOM     26  C   UNL     1      10.969  14.217  19.351  0.00  0.00    +0.000 C 
ATOM     27  C   UNL     1      10.544  15.061  18.144  0.00  0.00    +0.000 C 
ATOM     28  C   UNL     1      10.529  14.889  20.654  0.00  0.00    +0.000 C 
ENDBRANCH  23  26
ENDBRANCH  19  20
ENDBRANCH   2  18
TORSDOF 7
ENDMDL
MODEL 6
REMARK VINA RESULT:      -7.7      2.410      3.980
REMARK  Name = 
REMARK  10 active torsions:
REMARK  status: ('A' for Active; 'I' for Inactive)
REMARK    1  A    between atoms: C_1  and  C_2
REMARK    2  A    between atoms: C_2  and  O_3
REMARK    3  A    between atoms: O_3  and  C_4
REMARK    4  A    between atoms: C_4  and  C_6
REMARK    5  A    between atoms: C_7  and  N_8
REMARK    6  A    between atoms: C_9  and  C_11
REMARK    7  A    between atoms: C_12  and  C_13
REMARK    8  A    between atoms: C_16  and  C_17
REMARK    9  A    between atoms: C_17  and  C_18
REMARK   10  A    between atoms: C_17  and  C_19
REMARK                            x       y       z     vdW  Elec       q    Type
REMARK                         _______ _______ _______ _____ _____    ______ ____
ROOT
ATOM      1  N   UNL     1       6.168   6.235  18.598  0.00  0.00    +0.000 N 
ATOM      2  C   UNL     1       6.731   6.942  17.563  0.00  0.00    +0.000 C 
ATOM      3  O   UNL     1       6.361   6.923  16.390  0.00  0.00    +0.000 OA
ATOM      4  H   UNL     1       6.254   6.605  19.535  0.00  0.00    +0.000 HD
ENDROOT
BRANCH   1   6
ATOM      5  C   UNL     1       3.695   5.690  18.328  0.00  0.00    +0.000 A 
ATOM      6  C   UNL     1       5.067   5.440  18.345  0.00  0.00    +0.000 A 
ATOM      7  S   UNL     1       5.487   3.823  17.935  0.00  0.00    +0.000 S 
ATOM      8  C   UNL     1       3.872   3.408  17.872  0.00  0.00    +0.000 A 
ATOM      9  C   UNL     1       3.022   4.465  18.048  0.00  0.00    +0.000 A 
ATOM     10  C   UNL     1       1.611   4.053  17.827  0.00  0.00    +0.000 C 
ATOM     11  C   UNL     1       1.710   2.499  17.900  0.00  0.00    +0.000 C 
ATOM     12  C   UNL     1       3.190   2.129  17.571  0.00  0.00    +0.000 C 
BRANCH   5  13
ATOM     13  C   UNL     1       3.036   6.994  18.435  0.00  0.00    +0.000 C 
ATOM     14  O   UNL     1       3.331   7.944  17.719  0.00  0.00    +0.000 OA
BRANCH  13  15
ATOM     15  O   UNL     1       2.197   7.073  19.503  0.00  0.00    +0.000 OA
BRANCH  15  17
ATOM     16  C   UNL     1       1.337   8.519  21.255  0.00  0.00    +0.000 C 
ATOM     17  C   UNL     1       1.593   8.338  19.773  0.00  0.00    +0.000 C 
ENDBRANCH  15  17
ENDBRANCH  13  15
ENDBRANCH   5  13
ENDBRANCH   1   6
BRANCH   2  18
ATOM     18  C   UNL     1       7.822   7.852  18.013  0.00  0.00    +0.000 C 
ATOM     19  C   UNL     1       7.680   9.178  17.833  0.00  0.00    +0.000 C 
BRANCH  19  20
ATOM     20  C   UNL     1       8.667  10.196  18.215  0.00  0.00    +0.000 A 
ATOM     21  C   UNL     1       8.664  11.425  17.543  0.00  0.00    +0.000 A 
ATOM     22  C   UNL     1       9.529  12.458  17.925  0.00  0.00    +0.000 A 
ATOM     23  C   UNL     1      10.406  12.292  19.005  0.00  0.00    +0.000 A 
ATOM     24  C   UNL     1      10.419  11.056  19.666  0.00  0.00    +0.000 A 
ATOM     25  C   UNL     1       9.555  10.025  19.283  0.00  0.00    +0.000 A 
BRANCH  23  26
ATOM     26  C   UNL     1      11.274  13.448  19.469  0.00  0.00    +0.000 C 
ATOM     27  C   UNL     1      12.321  13.807  18.409  0.00  0.00    +0.000 C 
ATOM     28  C   UNL     1      10.445  14.680  19.841  0.00  0.00    +0.000 C 
ENDBRANCH  23  26
ENDBRANCH  19  20
ENDBRANCH   2  18
TORSDOF 7
ENDMDL
MODEL 7
REMARK VINA RESULT:      -7.6      1.471      1.770
REMARK  Name = 
REMARK  10 active torsions:
REMARK  status: ('A' for Active; 'I' for Inactive)
REMARK    1  A    between atoms: C_1  and  C_2
REMARK    2  A    between atoms: C_2  and  O_3
REMARK    3  A    between atoms: O_3  and  C_4
REMARK    4  A    between atoms: C_4  and  C_6
REMARK    5  A    between atoms: C_7  and  N_8
REMARK    6  A    between atoms: C_9  and  C_11
REMARK    7  A    between atoms: C_12  and  C_13
REMARK    8  A    between atoms: C_16  and  C_17
REMARK    9  A    between atoms: C_17  and  C_18
REMARK   10  A    between atoms: C_17  and  C_19
REMARK                            x       y       z     vdW  Elec       q    Type
REMARK                         _______ _______ _______ _____ _____    ______ ____
ROOT
ATOM      1  N   UNL     1       6.530   6.702  18.287  0.00  0.00    +0.000 N 
ATOM      2  C   UNL     1       6.632   7.514  17.182  0.00  0.00    +0.000 C 
ATOM      3  O   UNL     1       6.056   7.347  16.108  0.00  0.00    +0.000 OA
ATOM      4  H   UNL     1       6.688   7.110  19.198  0.00  0.00    +0.000 HD
ENDROOT
BRANCH   1   6
ATOM      5  C   UNL     1       5.656   4.471  17.425  0.00  0.00    +0.000 A 
ATOM      6  C   UNL     1       5.693   5.604  18.237  0.00  0.00    +0.000 A 
ATOM      7  S   UNL     1       4.472   5.636  19.448  0.00  0.00    +0.000 S 
ATOM      8  C   UNL     1       3.805   4.238  18.828  0.00  0.00    +0.000 A 
ATOM      9  C   UNL     1       4.525   3.690  17.803  0.00  0.00    +0.000 A 
ATOM     10  C   UNL     1       3.960   2.374  17.403  0.00  0.00    +0.000 C 
ATOM     11  C   UNL     1       2.549   2.411  18.064  0.00  0.00    +0.000 C 
ATOM     12  C   UNL     1       2.631   3.434  19.238  0.00  0.00    +0.000 C 
BRANCH   5  13
ATOM     13  C   UNL     1       6.663   4.055  16.446  0.00  0.00    +0.000 C 
ATOM     14  O   UNL     1       7.846   4.357  16.547  0.00  0.00    +0.000 OA
BRANCH  13  15
ATOM     15  O   UNL     1       6.118   3.452  15.355  0.00  0.00    +0.000 OA
BRANCH  15  17
ATOM     16  C   UNL     1       6.220   3.663  12.937  0.00  0.00    +0.000 C 
ATOM     17  C   UNL     1       5.776   4.283  14.246  0.00  0.00    +0.000 C 
ENDBRANCH  15  17
ENDBRANCH  13  15
ENDBRANCH   5  13
ENDBRANCH   1   6
BRANCH   2  18
ATOM     18  C   UNL     1       7.466   8.724  17.431  0.00  0.00    +0.000 C 
ATOM     19  C   UNL     1       8.274   8.748  18.507  0.00  0.00    +0.000 C 
BRANCH  19  20
ATOM     20  C   UNL     1       9.145   9.866  18.888  0.00  0.00    +0.000 A 
ATOM     21  C   UNL     1       9.797  10.588  17.880  0.00  0.00    +0.000 A 
ATOM     22  C   UNL     1      10.571  11.714  18.185  0.00  0.00    +0.000 A 
ATOM     23  C   UNL     1      10.698  12.156  19.509  0.00  0.00    +0.000 A 
ATOM     24  C   UNL     1      10.058  11.423  20.518  0.00  0.00    +0.000 A 
ATOM     25  C   UNL     1       9.284  10.299  20.211  0.00  0.00    +0.000 A 
BRANCH  23  26
ATOM     26  C   UNL     1      11.464  13.430  19.819  0.00  0.00    +0.000 C 
ATOM     27  C   UNL     1      11.895  14.137  18.529  0.00  0.00    +0.000 C 
ATOM     28  C   UNL     1      10.664  14.383  20.709  0.00  0.00    +0.000 C 
ENDBRANCH  23  26
ENDBRANCH  19  20
ENDBRANCH   2  18
TORSDOF 7
ENDMDL
MODEL 8
REMARK VINA RESULT:      -7.4      6.259      8.909
REMARK  Name = 
REMARK  10 active torsions:
REMARK  status: ('A' for Active; 'I' for Inactive)
REMARK    1  A    between atoms: C_1  and  C_2
REMARK    2  A    between atoms: C_2  and  O_3
REMARK    3  A    between atoms: O_3  and  C_4
REMARK    4  A    between atoms: C_4  and  C_6
REMARK    5  A    between atoms: C_7  and  N_8
REMARK    6  A    between atoms: C_9  and  C_11
REMARK    7  A    between atoms: C_12  and  C_13
REMARK    8  A    between atoms: C_16  and  C_17
REMARK    9  A    between atoms: C_17  and  C_18
REMARK   10  A    between atoms: C_17  and  C_19
REMARK                            x       y       z     vdW  Elec       q    Type
REMARK                         _______ _______ _______ _____ _____    ______ ____
ROOT
ATOM      1  N   UNL     1       2.988   6.916  19.123  0.00  0.00    +0.000 N 
ATOM      2  C   UNL     1       2.175   7.943  18.705  0.00  0.00    +0.000 C 
ATOM      3  O   UNL     1       1.993   8.291  17.539  0.00  0.00    +0.000 OA
ATOM      4  H   UNL     1       2.769   6.456  19.996  0.00  0.00    +0.000 HD
ENDROOT
BRANCH   1   6
ATOM      5  C   UNL     1       3.434   4.897  17.636  0.00  0.00    +0.000 A 
ATOM      6  C   UNL     1       3.657   6.163  18.177  0.00  0.00    +0.000 A 
ATOM      7  S   UNL     1       5.020   6.977  17.514  0.00  0.00    +0.000 S 
ATOM      8  C   UNL     1       5.406   5.623  16.619  0.00  0.00    +0.000 A 
ATOM      9  C   UNL     1       4.490   4.612  16.722  0.00  0.00    +0.000 A 
ATOM     10  C   UNL     1       4.816   3.505  15.786  0.00  0.00    +0.000 C 
ATOM     11  C   UNL     1       6.294   3.822  15.407  0.00  0.00    +0.000 C 
ATOM     12  C   UNL     1       6.506   5.346  15.667  0.00  0.00    +0.000 C 
BRANCH   5  13
ATOM     13  C   UNL     1       2.261   4.045  17.841  0.00  0.00    +0.000 C 
ATOM     14  O   UNL     1       1.166   4.300  17.352  0.00  0.00    +0.000 OA
BRANCH  13  15
ATOM     15  O   UNL     1       2.481   3.056  18.748  0.00  0.00    +0.000 OA
BRANCH  15  17
ATOM     16  C   UNL     1       1.167   3.199  20.786  0.00  0.00    +0.000 C 
ATOM     17  C   UNL     1       1.347   2.531  19.438  0.00  0.00    +0.000 C 
ENDBRANCH  15  17
ENDBRANCH  13  15
ENDBRANCH   5  13
ENDBRANCH   1   6
BRANCH   2  18
ATOM     18  C   UNL     1       1.422   8.574  19.826  0.00  0.00    +0.000 C 
ATOM     19  C   UNL     1       0.766   9.727  19.601  0.00  0.00    +0.000 C 
BRANCH  19  20
ATOM     20  C   UNL     1      -0.011  10.470  20.602  0.00  0.00    +0.000 A 
ATOM     21  C   UNL     1      -0.791  11.555  20.182  0.00  0.00    +0.000 A 
ATOM     22  C   UNL     1      -1.613  12.243  21.082  0.00  0.00    +0.000 A 
ATOM     23  C   UNL     1      -1.688  11.849  22.424  0.00  0.00    +0.000 A 
ATOM     24  C   UNL     1      -0.895  10.772  22.846  0.00  0.00    +0.000 A 
ATOM     25  C   UNL     1      -0.074  10.086  21.946  0.00  0.00    +0.000 A 
BRANCH  23  26
ATOM     26  C   UNL     1      -2.652  12.542  23.372  0.00  0.00    +0.000 C 
ATOM     27  C   UNL     1      -2.084  13.886  23.842  0.00  0.00    +0.000 C 
ATOM     28  C   UNL     1      -4.036  12.735  22.749  0.00  0.00    +0.000 C 
ENDBRANCH  23  26
ENDBRANCH  19  20
ENDBRANCH   2  18
TORSDOF 7
ENDMDL
MODEL 9
REMARK VINA RESULT:      -7.3      6.502      8.916
REMARK  Name = 
REMARK  10 active torsions:
REMARK  status: ('A' for Active; 'I' for Inactive)
REMARK    1  A    between atoms: C_1  and  C_2
REMARK    2  A    between atoms: C_2  and  O_3
REMARK    3  A    between atoms: O_3  and  C_4
REMARK    4  A    between atoms: C_4  and  C_6
REMARK    5  A    between atoms: C_7  and  N_8
REMARK    6  A    between atoms: C_9  and  C_11
REMARK    7  A    between atoms: C_12  and  C_13
REMARK    8  A    between atoms: C_16  and  C_17
REMARK    9  A    between atoms: C_17  and  C_18
REMARK   10  A    between atoms: C_17  and  C_19
REMARK                            x       y       z     vdW  Elec       q    Type
REMARK                         _______ _______ _______ _____ _____    ______ ____
ROOT
ATOM      1  N   UNL     1       2.270   7.556  18.919  0.00  0.00    +0.000 N 
ATOM      2  C   UNL     1       1.907   8.700  18.249  0.00  0.00    +0.000 C 
ATOM      3  O   UNL     1       2.182   8.971  17.081  0.00  0.00    +0.000 OA
ATOM      4  H   UNL     1       1.688   7.243  19.684  0.00  0.00    +0.000 HD
ENDROOT
BRANCH   1   6
ATOM      5  C   UNL     1       2.844   5.201  18.139  0.00  0.00    +0.000 A 
ATOM      6  C   UNL     1       2.985   6.584  18.246  0.00  0.00    +0.000 A 
ATOM      7  S   UNL     1       4.292   7.227  17.330  0.00  0.00    +0.000 S 
ATOM      8  C   UNL     1       4.764   5.685  16.903  0.00  0.00    +0.000 A 
ATOM      9  C   UNL     1       3.916   4.705  17.340  0.00  0.00    +0.000 A 
ATOM     10  C   UNL     1       4.312   3.380  16.796  0.00  0.00    +0.000 C 
ATOM     11  C   UNL     1       5.766   3.650  16.304  0.00  0.00    +0.000 C 
ATOM     12  C   UNL     1       5.879   5.188  16.063  0.00  0.00    +0.000 C 
BRANCH   5  13
ATOM     13  C   UNL     1       1.729   4.388  18.628  0.00  0.00    +0.000 C 
ATOM     14  O   UNL     1       1.118   3.604  17.911  0.00  0.00    +0.000 OA
BRANCH  13  15
ATOM     15  O   UNL     1       1.353   4.718  19.894  0.00  0.00    +0.000 OA
BRANCH  15  17
ATOM     16  C   UNL     1       1.572   2.829  21.405  0.00  0.00    +0.000 C 
ATOM     17  C   UNL     1       2.117   4.174  20.970  0.00  0.00    +0.000 C 
ENDBRANCH  15  17
ENDBRANCH  13  15
ENDBRANCH   5  13
ENDBRANCH   1   6
BRANCH   2  18
ATOM     18  C   UNL     1       1.031   9.590  19.062  0.00  0.00    +0.000 C 
ATOM     19  C   UNL     1       1.123   9.545  20.404  0.00  0.00    +0.000 C 
BRANCH  19  20
ATOM     20  C   UNL     1       0.325  10.352  21.336  0.00  0.00    +0.000 A 
ATOM     21  C   UNL     1       0.194  11.726  21.099  0.00  0.00    +0.000 A 
ATOM     22  C   UNL     1      -0.623  12.523  21.909  0.00  0.00    +0.000 A 
ATOM     23  C   UNL     1      -1.345  11.959  22.969  0.00  0.00    +0.000 A 
ATOM     24  C   UNL     1      -1.201  10.587  23.215  0.00  0.00    +0.000 A 
ATOM     25  C   UNL     1      -0.385   9.792  22.404  0.00  0.00    +0.000 A 
BRANCH  23  26
ATOM     26  C   UNL     1      -2.299  12.814  23.784  0.00  0.00    +0.000 C 
ATOM     27  C   UNL     1      -1.836  14.276  23.812  0.00  0.00    +0.000 C 
ATOM     28  C   UNL     1      -3.739  12.719  23.276  0.00  0.00    +0.000 C 
ENDBRANCH  23  26
ENDBRANCH  19  20
ENDBRANCH   2  18
TORSDOF 7
ENDMDL
