MODEL 1
REMARK VINA RESULT:      -7.4      0.000      0.000
REMARK  Name = 
REMARK  8 active torsions:
REMARK  status: ('A' for Active; 'I' for Inactive)
REMARK    1  A    between atoms: C_1  and  C_2
REMARK    2  A    between atoms: C_4  and  C_5
REMARK    3  A    between atoms: C_5  and  C_6
REMARK    4  A    between atoms: C_6  and  N_7
REMARK    5  A    between atoms: N_7  and  C_8
REMARK    6  A    between atoms: N_7  and  C_9
REMARK    7  A    between atoms: C_9  and  C_10
REMARK    8  A    between atoms: C_15  and  N_16
REMARK                            x       y       z     vdW  Elec       q    Type
REMARK                         _______ _______ _______ _____ _____    ______ ____
ROOT
ATOM      1  N   UNL     1       4.377   4.223  17.451  0.00  0.00    +0.000 NA
ATOM      2  C   UNL     1       3.658   5.487  17.648  0.00  0.00    +0.000 C 
ENDROOT
BRANCH   1   3
ATOM      3  C   UNL     1       5.053   4.198  16.126  0.00  0.00    +0.000 C 
BRANCH   3   4
ATOM      4  C   UNL     1       6.584   4.109  16.212  0.00  0.00    +0.000 C 
BRANCH   4   8
ATOM      5  C   UNL     1       8.092   8.508  17.891  0.00  0.00    +0.000 C 
ATOM      6  C   UNL     1       7.757   7.086  17.683  0.00  0.00    +0.000 A 
ATOM      7  N   UNL     1       7.288   6.481  16.614  0.00  0.00    +0.000 NA
ATOM      8  C   UNL     1       7.159   5.189  17.062  0.00  0.00    +0.000 A 
ATOM      9  N   UNL     1       7.536   4.982  18.328  0.00  0.00    +0.000 NA
ATOM     10  O   UNL     1       7.940   6.256  18.746  0.00  0.00    +0.000 OA
ENDBRANCH   4   8
ENDBRANCH   3   4
ENDBRANCH   1   3
BRANCH   1  11
ATOM     11  C   UNL     1       3.423   3.093  17.601  0.00  0.00    +0.000 C 
BRANCH  11  12
ATOM     12  C   UNL     1       2.885   2.927  19.003  0.00  0.00    +0.000 A 
ATOM     13  C   UNL     1       1.518   3.126  19.252  0.00  0.00    +0.000 A 
ATOM     14  C   UNL     1       1.025   3.036  20.547  0.00  0.00    +0.000 A 
ATOM     15  C   UNL     1       1.921   2.752  21.558  0.00  0.00    +0.000 A 
ATOM     16  N   UNL     1       3.236   2.517  21.353  0.00  0.00    +0.000 NA
ATOM     17  C   UNL     1       3.698   2.592  20.089  0.00  0.00    +0.000 A 
BRANCH  17  18
ATOM     18  N   UNL     1       5.029   2.216  19.939  0.00  0.00    +0.000 N 
ATOM     19  H   UNL     1       5.410   2.121  20.879  0.00  0.00    +0.000 HD
ATOM     20  H   UNL     1       5.570   2.847  19.366  0.00  0.00    +0.000 HD
ENDBRANCH  17  18
ENDBRANCH  11  12
ENDBRANCH   1  11
TORSDOF 6
ENDMDL
MODEL 2
REMARK VINA RESULT:      -7.4      2.478      3.552
REMARK  Name = 
REMARK  8 active torsions:
REMARK  status: ('A' for Active; 'I' for Inactive)
REMARK    1  A    between atoms: C_1  and  C_2
REMARK    2  A    between atoms: C_4  and  C_5
REMARK    3  A    between atoms: C_5  and  C_6
REMARK    4  A    between atoms: C_6  and  N_7
REMARK    5  A    between atoms: N_7  and  C_8
REMARK    6  A    between atoms: N_7  and  C_9
REMARK    7  A    between atoms: C_9  and  C_10
REMARK    8  A    between atoms: C_15  and  N_16
REMARK                            x       y       z     vdW  Elec       q    Type
REMARK                         _______ _______ _______ _____ _____    ______ ____
ROOT
ATOM      1  N   UNL     1       6.077   4.621  18.789  0.00  0.00    +0.000 NA
ATOM      2  C   UNL     1       7.094   5.614  19.155  0.00  0.00    +0.000 C 
ENDROOT
BRANCH   1   3
ATOM      3  C   UNL     1       5.954   4.507  17.311  0.00  0.00    +0.000 C 
BRANCH   3   4
ATOM      4  C   UNL     1       7.232   4.892  16.550  0.00  0.00    +0.000 C 
BRANCH   4   8
ATOM      5  C   UNL     1       5.756   3.222  12.137  0.00  0.00    +0.000 C 
ATOM      6  C   UNL     1       6.402   3.908  13.272  0.00  0.00    +0.000 A 
ATOM      7  N   UNL     1       6.270   3.705  14.564  0.00  0.00    +0.000 NA
ATOM      8  C   UNL     1       7.095   4.672  15.083  0.00  0.00    +0.000 A 
ATOM      9  N   UNL     1       7.723   5.432  14.181  0.00  0.00    +0.000 NA
ATOM     10  O   UNL     1       7.261   4.919  12.962  0.00  0.00    +0.000 OA
ENDBRANCH   4   8
ENDBRANCH   3   4
ENDBRANCH   1   3
BRANCH   1  11
ATOM     11  C   UNL     1       4.784   4.996  19.419  0.00  0.00    +0.000 C 
BRANCH  11  12
ATOM     12  C   UNL     1       3.641   4.072  19.068  0.00  0.00    +0.000 A 
ATOM     13  C   UNL     1       2.495   4.588  18.442  0.00  0.00    +0.000 A 
ATOM     14  C   UNL     1       1.415   3.759  18.171  0.00  0.00    +0.000 A 
ATOM     15  C   UNL     1       1.514   2.433  18.542  0.00  0.00    +0.000 A 
ATOM     16  N   UNL     1       2.612   1.892  19.112  0.00  0.00    +0.000 NA
ATOM     17  C   UNL     1       3.660   2.704  19.354  0.00  0.00    +0.000 A 
BRANCH  17  18
ATOM     18  N   UNL     1       4.797   2.055  19.823  0.00  0.00    +0.000 N 
ATOM     19  H   UNL     1       4.723   1.086  19.519  0.00  0.00    +0.000 HD
ATOM     20  H   UNL     1       4.932   2.136  20.821  0.00  0.00    +0.000 HD
ENDBRANCH  17  18
ENDBRANCH  11  12
ENDBRANCH   1  11
TORSDOF 6
ENDMDL
MODEL 3
REMARK VINA RESULT:      -7.2      2.251      3.164
REMARK  Name = 
REMARK  8 active torsions:
REMARK  status: ('A' for Active; 'I' for Inactive)
REMARK    1  A    between atoms: C_1  and  C_2
REMARK    2  A    between atoms: C_4  and  C_5
REMARK    3  A    between atoms: C_5  and  C_6
REMARK    4  A    between atoms: C_6  and  N_7
REMARK    5  A    between atoms: N_7  and  C_8
REMARK    6  A    between atoms: N_7  and  C_9
REMARK    7  A    between atoms: C_9  and  C_10
REMARK    8  A    between atoms: C_15  and  N_16
REMARK                            x       y       z     vdW  Elec       q    Type
REMARK                         _______ _______ _______ _____ _____    ______ ____
ROOT
ATOM      1  N   UNL     1       4.810   4.825  17.996  0.00  0.00    +0.000 NA
ATOM      2  C   UNL     1       4.350   6.115  17.470  0.00  0.00    +0.000 C 
ENDROOT
BRANCH   1   3
ATOM      3  C   UNL     1       6.047   4.379  17.301  0.00  0.00    +0.000 C 
BRANCH   3   4
ATOM      4  C   UNL     1       6.651   5.438  16.367  0.00  0.00    +0.000 C 
BRANCH   4   8
ATOM      5  C   UNL     1       5.844   3.069  12.104  0.00  0.00    +0.000 C 
ATOM      6  C   UNL     1       6.345   3.904  13.212  0.00  0.00    +0.000 A 
ATOM      7  N   UNL     1       5.941   3.974  14.461  0.00  0.00    +0.000 NA
ATOM      8  C   UNL     1       6.771   4.944  14.966  0.00  0.00    +0.000 A 
ATOM      9  N   UNL     1       7.656   5.448  14.101  0.00  0.00    +0.000 NA
ATOM     10  O   UNL     1       7.372   4.749  12.921  0.00  0.00    +0.000 OA
ENDBRANCH   4   8
ENDBRANCH   3   4
ENDBRANCH   1   3
BRANCH   1  11
ATOM     11  C   UNL     1       3.716   3.827  17.861  0.00  0.00    +0.000 C 
BRANCH  11  12
ATOM     12  C   UNL     1       3.048   3.470  19.169  0.00  0.00    +0.000 A 
ATOM     13  C   UNL     1       1.724   3.871  19.406  0.00  0.00    +0.000 A 
ATOM     14  C   UNL     1       1.122   3.601  20.627  0.00  0.00    +0.000 A 
ATOM     15  C   UNL     1       1.869   2.939  21.580  0.00  0.00    +0.000 A 
ATOM     16  N   UNL     1       3.132   2.505  21.377  0.00  0.00    +0.000 NA
ATOM     17  C   UNL     1       3.699   2.759  20.180  0.00  0.00    +0.000 A 
BRANCH  17  18
ATOM     18  N   UNL     1       4.948   2.175  19.999  0.00  0.00    +0.000 N 
ATOM     19  H   UNL     1       4.854   1.528  19.218  0.00  0.00    +0.000 HD
ATOM     20  H   UNL     1       5.315   1.729  20.827  0.00  0.00    +0.000 HD
ENDBRANCH  17  18
ENDBRANCH  11  12
ENDBRANCH   1  11
TORSDOF 6
ENDMDL
MODEL 4
REMARK VINA RESULT:      -6.9      1.879      2.750
REMARK  Name = 
REMARK  8 active torsions:
REMARK  status: ('A' for Active; 'I' for Inactive)
REMARK    1  A    between atoms: C_1  and  C_2
REMARK    2  A    between atoms: C_4  and  C_5
REMARK    3  A    between atoms: C_5  and  C_6
REMARK    4  A    between atoms: C_6  and  N_7
REMARK    5  A    between atoms: N_7  and  C_8
REMARK    6  A    between atoms: N_7  and  C_9
REMARK    7  A    between atoms: C_9  and  C_10
REMARK    8  A    between atoms: C_15  and  N_16
REMARK                            x       y       z     vdW  Elec       q    Type
REMARK                         _______ _______ _______ _____ _____    ______ ____
ROOT
ATOM      1  N   UNL     1       3.475   6.265  18.471  0.00  0.00    +0.000 NA
ATOM      2  C   UNL     1       2.564   7.232  19.093  0.00  0.00    +0.000 C 
ENDROOT
BRANCH   1   3
ATOM      3  C   UNL     1       4.122   6.846  17.264  0.00  0.00    +0.000 C 
BRANCH   3   4
ATOM      4  C   UNL     1       5.658   6.797  17.299  0.00  0.00    +0.000 C 
BRANCH   4   8
ATOM      5  C   UNL     1       6.091   3.789  13.400  0.00  0.00    +0.000 C 
ATOM      6  C   UNL     1       6.292   4.644  14.584  0.00  0.00    +0.000 A 
ATOM      7  N   UNL     1       5.405   5.240  15.351  0.00  0.00    +0.000 NA
ATOM      8  C   UNL     1       6.211   5.901  16.244  0.00  0.00    +0.000 A 
ATOM      9  N   UNL     1       7.525   5.726  16.068  0.00  0.00    +0.000 NA
ATOM     10  O   UNL     1       7.581   4.880  14.954  0.00  0.00    +0.000 OA
ENDBRANCH   4   8
ENDBRANCH   3   4
ENDBRANCH   1   3
BRANCH   1  11
ATOM     11  C   UNL     1       2.721   5.026  18.145  0.00  0.00    +0.000 C 
BRANCH  11  12
ATOM     12  C   UNL     1       2.588   4.067  19.305  0.00  0.00    +0.000 A 
ATOM     13  C   UNL     1       1.339   3.890  19.922  0.00  0.00    +0.000 A 
ATOM     14  C   UNL     1       1.219   3.057  21.027  0.00  0.00    +0.000 A 
ATOM     15  C   UNL     1       2.359   2.429  21.485  0.00  0.00    +0.000 A 
ATOM     16  N   UNL     1       3.570   2.545  20.896  0.00  0.00    +0.000 NA
ATOM     17  C   UNL     1       3.669   3.343  19.814  0.00  0.00    +0.000 A 
BRANCH  17  18
ATOM     18  N   UNL     1       4.911   3.315  19.189  0.00  0.00    +0.000 N 
ATOM     19  H   UNL     1       5.024   2.375  18.813  0.00  0.00    +0.000 HD
ATOM     20  H   UNL     1       5.677   3.585  19.789  0.00  0.00    +0.000 HD
ENDBRANCH  17  18
ENDBRANCH  11  12
ENDBRANCH   1  11
TORSDOF 6
ENDMDL
MODEL 5
REMARK VINA RESULT:      -6.8      2.259      3.153
REMARK  Name = 
REMARK  8 active torsions:
REMARK  status: ('A' for Active; 'I' for Inactive)
REMARK    1  A    between atoms: C_1  and  C_2
REMARK    2  A    between atoms: C_4  and  C_5
REMARK    3  A    between atoms: C_5  and  C_6
REMARK    4  A    between atoms: C_6  and  N_7
REMARK    5  A    between atoms: N_7  and  C_8
REMARK    6  A    between atoms: N_7  and  C_9
REMARK    7  A    between atoms: C_9  and  C_10
REMARK    8  A    between atoms: C_15  and  N_16
REMARK                            x       y       z     vdW  Elec       q    Type
REMARK                         _______ _______ _______ _____ _____    ______ ____
ROOT
ATOM      1  N   UNL     1       4.693   5.283  18.077  0.00  0.00    +0.000 NA
ATOM      2  C   UNL     1       4.971   6.565  17.420  0.00  0.00    +0.000 C 
ENDROOT
BRANCH   1   3
ATOM      3  C   UNL     1       5.795   4.313  17.837  0.00  0.00    +0.000 C 
BRANCH   3   4
ATOM      4  C   UNL     1       7.030   4.930  17.162  0.00  0.00    +0.000 C 
BRANCH   4   8
ATOM      5  C   UNL     1       5.884   3.424  12.595  0.00  0.00    +0.000 C 
ATOM      6  C   UNL     1       6.438   4.074  13.797  0.00  0.00    +0.000 A 
ATOM      7  N   UNL     1       6.229   3.809  15.068  0.00  0.00    +0.000 NA
ATOM      8  C   UNL     1       6.993   4.772  15.681  0.00  0.00    +0.000 A 
ATOM      9  N   UNL     1       7.656   5.587  14.856  0.00  0.00    +0.000 NA
ATOM     10  O   UNL     1       7.286   5.119  13.589  0.00  0.00    +0.000 OA
ENDBRANCH   4   8
ENDBRANCH   3   4
ENDBRANCH   1   3
BRANCH   1  11
ATOM     11  C   UNL     1       3.389   4.761  17.591  0.00  0.00    +0.000 C 
BRANCH  11  12
ATOM     12  C   UNL     1       2.547   4.116  18.668  0.00  0.00    +0.000 A 
ATOM     13  C   UNL     1       1.978   4.911  19.675  0.00  0.00    +0.000 A 
ATOM     14  C   UNL     1       1.254   4.322  20.704  0.00  0.00    +0.000 A 
ATOM     15  C   UNL     1       1.126   2.948  20.694  0.00  0.00    +0.000 A 
ATOM     16  N   UNL     1       1.628   2.153  19.723  0.00  0.00    +0.000 NA
ATOM     17  C   UNL     1       2.314   2.740  18.722  0.00  0.00    +0.000 A 
BRANCH  17  18
ATOM     18  N   UNL     1       2.690   1.877  17.698  0.00  0.00    +0.000 N 
ATOM     19  H   UNL     1       3.677   2.051  17.520  0.00  0.00    +0.000 HD
ATOM     20  H   UNL     1       2.127   1.961  16.864  0.00  0.00    +0.000 HD
ENDBRANCH  17  18
ENDBRANCH  11  12
ENDBRANCH   1  11
TORSDOF 6
ENDMDL
MODEL 6
REMARK VINA RESULT:      -6.7      2.514      3.516
REMARK  Name = 
REMARK  8 active torsions:
REMARK  status: ('A' for Active; 'I' for Inactive)
REMARK    1  A    between atoms: C_1  and  C_2
REMARK    2  A    between atoms: C_4  and  C_5
REMARK    3  A    between atoms: C_5  and  C_6
REMARK    4  A    between atoms: C_6  and  N_7
REMARK    5  A    between atoms: N_7  and  C_8
REMARK    6  A    between atoms: N_7  and  C_9
REMARK    7  A    between atoms: C_9  and  C_10
REMARK    8  A    between atoms: C_15  and  N_16
REMARK                            x       y       z     vdW  Elec       q    Type
REMARK                         _______ _______ _______ _____ _____    ______ ____
ROOT
ATOM      1  N   UNL     1       5.572   4.517  18.131  0.00  0.00    +0.000 NA
ATOM      2  C   UNL     1       6.988   4.901  18.162  0.00  0.00    +0.000 C 
ENDROOT
BRANCH   1   3
ATOM      3  C   UNL     1       4.939   4.926  16.848  0.00  0.00    +0.000 C 
BRANCH   3   4
ATOM      4  C   UNL     1       5.843   5.794  15.959  0.00  0.00    +0.000 C 
BRANCH   4   8
ATOM      5  C   UNL     1       5.868   2.897  11.953  0.00  0.00    +0.000 C 
ATOM      6  C   UNL     1       6.171   3.833  13.052  0.00  0.00    +0.000 A 
ATOM      7  N   UNL     1       5.461   4.140  14.115  0.00  0.00    +0.000 NA
ATOM      8  C   UNL     1       6.260   5.078  14.720  0.00  0.00    +0.000 A 
ATOM      9  N   UNL     1       7.411   5.340  14.093  0.00  0.00    +0.000 NA
ATOM     10  O   UNL     1       7.354   4.502  12.972  0.00  0.00    +0.000 OA
ENDBRANCH   4   8
ENDBRANCH   3   4
ENDBRANCH   1   3
BRANCH   1  11
ATOM     11  C   UNL     1       4.879   5.121  19.300  0.00  0.00    +0.000 C 
BRANCH  11  12
ATOM     12  C   UNL     1       3.642   4.369  19.734  0.00  0.00    +0.000 A 
ATOM     13  C   UNL     1       2.428   5.057  19.889  0.00  0.00    +0.000 A 
ATOM     14  C   UNL     1       1.301   4.388  20.346  0.00  0.00    +0.000 A 
ATOM     15  C   UNL     1       1.426   3.045  20.641  0.00  0.00    +0.000 A 
ATOM     16  N   UNL     1       2.566   2.341  20.470  0.00  0.00    +0.000 NA
ATOM     17  C   UNL     1       3.649   2.999  20.009  0.00  0.00    +0.000 A 
BRANCH  17  18
ATOM     18  N   UNL     1       4.745   2.187  19.740  0.00  0.00    +0.000 N 
ATOM     19  H   UNL     1       4.446   1.523  19.028  0.00  0.00    +0.000 HD
ATOM     20  H   UNL     1       5.128   1.732  20.556  0.00  0.00    +0.000 HD
ENDBRANCH  17  18
ENDBRANCH  11  12
ENDBRANCH   1  11
TORSDOF 6
ENDMDL
MODEL 7
REMARK VINA RESULT:      -6.6      2.293      3.011
REMARK  Name = 
REMARK  8 active torsions:
REMARK  status: ('A' for Active; 'I' for Inactive)
REMARK    1  A    between atoms: C_1  and  C_2
REMARK    2  A    between atoms: C_4  and  C_5
REMARK    3  A    between atoms: C_5  and  C_6
REMARK    4  A    between atoms: C_6  and  N_7
REMARK    5  A    between atoms: N_7  and  C_8
REMARK    6  A    between atoms: N_7  and  C_9
REMARK    7  A    between atoms: C_9  and  C_10
REMARK    8  A    between atoms: C_15  and  N_16
REMARK                            x       y       z     vdW  Elec       q    Type
REMARK                         _______ _______ _______ _____ _____    ______ ____
ROOT
ATOM      1  N   UNL     1       4.229   5.808  18.107  0.00  0.00    +0.000 NA
ATOM      2  C   UNL     1       4.420   7.020  17.303  0.00  0.00    +0.000 C 
ENDROOT
BRANCH   1   3
ATOM      3  C   UNL     1       5.342   4.846  17.889  0.00  0.00    +0.000 C 
BRANCH   3   4
ATOM      4  C   UNL     1       5.206   4.019  16.601  0.00  0.00    +0.000 C 
BRANCH   4   8
ATOM      5  C   UNL     1       7.474   4.852  12.289  0.00  0.00    +0.000 C 
ATOM      6  C   UNL     1       7.074   4.738  13.704  0.00  0.00    +0.000 A 
ATOM      7  N   UNL     1       6.020   4.158  14.235  0.00  0.00    +0.000 NA
ATOM      8  C   UNL     1       6.202   4.423  15.570  0.00  0.00    +0.000 A 
ATOM      9  N   UNL     1       7.306   5.114  15.871  0.00  0.00    +0.000 NA
ATOM     10  O   UNL     1       7.895   5.324  14.618  0.00  0.00    +0.000 OA
ENDBRANCH   4   8
ENDBRANCH   3   4
ENDBRANCH   1   3
BRANCH   1  11
ATOM     11  C   UNL     1       2.912   5.205  17.773  0.00  0.00    +0.000 C 
BRANCH  11  12
ATOM     12  C   UNL     1       2.349   4.321  18.862  0.00  0.00    +0.000 A 
ATOM     13  C   UNL     1       2.018   2.988  18.572  0.00  0.00    +0.000 A 
ATOM     14  C   UNL     1       1.443   2.185  19.549  0.00  0.00    +0.000 A 
ATOM     15  C   UNL     1       1.213   2.746  20.789  0.00  0.00    +0.000 A 
ATOM     16  N   UNL     1       1.551   4.012  21.116  0.00  0.00    +0.000 NA
ATOM     17  C   UNL     1       2.123   4.776  20.163  0.00  0.00    +0.000 A 
BRANCH  17  18
ATOM     18  N   UNL     1       2.558   6.020  20.607  0.00  0.00    +0.000 N 
ATOM     19  H   UNL     1       1.727   6.601  20.698  0.00  0.00    +0.000 HD
ATOM     20  H   UNL     1       3.260   6.442  20.017  0.00  0.00    +0.000 HD
ENDBRANCH  17  18
ENDBRANCH  11  12
ENDBRANCH   1  11
TORSDOF 6
ENDMDL
MODEL 8
REMARK VINA RESULT:      -6.6      1.125      1.547
REMARK  Name = 
REMARK  8 active torsions:
REMARK  status: ('A' for Active; 'I' for Inactive)
REMARK    1  A    between atoms: C_1  and  C_2
REMARK    2  A    between atoms: C_4  and  C_5
REMARK    3  A    between atoms: C_5  and  C_6
REMARK    4  A    between atoms: C_6  and  N_7
REMARK    5  A    between atoms: N_7  and  C_8
REMARK    6  A    between atoms: N_7  and  C_9
REMARK    7  A    between atoms: C_9  and  C_10
REMARK    8  A    between atoms: C_15  and  N_16
REMARK                            x       y       z     vdW  Elec       q    Type
REMARK                         _______ _______ _______ _____ _____    ______ ____
ROOT
ATOM      1  N   UNL     1       4.459   4.122  17.293  0.00  0.00    +0.000 NA
ATOM      2  C   UNL     1       5.127   3.944  15.998  0.00  0.00    +0.000 C 
ENDROOT
BRANCH   1   3
ATOM      3  C   UNL     1       5.394   4.697  18.297  0.00  0.00    +0.000 C 
BRANCH   3   4
ATOM      4  C   UNL     1       6.815   4.929  17.762  0.00  0.00    +0.000 C 
BRANCH   4   8
ATOM      5  C   UNL     1       8.884   9.335  18.623  0.00  0.00    +0.000 C 
ATOM      6  C   UNL     1       8.094   8.189  18.137  0.00  0.00    +0.000 A 
ATOM      7  N   UNL     1       8.031   6.957  18.592  0.00  0.00    +0.000 NA
ATOM      8  C   UNL     1       7.160   6.377  17.703  0.00  0.00    +0.000 A 
ATOM      9  N   UNL     1       6.687   7.190  16.753  0.00  0.00    +0.000 NA
ATOM     10  O   UNL     1       7.312   8.409  17.044  0.00  0.00    +0.000 OA
ENDBRANCH   4   8
ENDBRANCH   3   4
ENDBRANCH   1   3
BRANCH   1  11
ATOM     11  C   UNL     1       3.911   2.815  17.741  0.00  0.00    +0.000 C 
BRANCH  11  12
ATOM     12  C   UNL     1       3.213   2.870  19.080  0.00  0.00    +0.000 A 
ATOM     13  C   UNL     1       1.930   3.433  19.174  0.00  0.00    +0.000 A 
ATOM     14  C   UNL     1       1.306   3.543  20.409  0.00  0.00    +0.000 A 
ATOM     15  C   UNL     1       1.991   3.089  21.518  0.00  0.00    +0.000 A 
ATOM     16  N   UNL     1       3.210   2.509  21.464  0.00  0.00    +0.000 NA
ATOM     17  C   UNL     1       3.797   2.393  20.256  0.00  0.00    +0.000 A 
BRANCH  17  18
ATOM     18  N   UNL     1       4.988   1.675  20.262  0.00  0.00    +0.000 N 
ATOM     19  H   UNL     1       5.126   1.335  19.312  0.00  0.00    +0.000 HD
ATOM     20  H   UNL     1       5.015   0.931  20.944  0.00  0.00    +0.000 HD
ENDBRANCH  17  18
ENDBRANCH  11  12
ENDBRANCH   1  11
TORSDOF 6
ENDMDL
MODEL 9
REMARK VINA RESULT:      -6.6      2.154      3.162
REMARK  Name = 
REMARK  8 active torsions:
REMARK  status: ('A' for Active; 'I' for Inactive)
REMARK    1  A    between atoms: C_1  and  C_2
REMARK    2  A    between atoms: C_4  and  C_5
REMARK    3  A    between atoms: C_5  and  C_6
REMARK    4  A    between atoms: C_6  and  N_7
REMARK    5  A    between atoms: N_7  and  C_8
REMARK    6  A    between atoms: N_7  and  C_9
REMARK    7  A    between atoms: C_9  and  C_10
REMARK    8  A    between atoms: C_15  and  N_16
REMARK                            x       y       z     vdW  Elec       q    Type
REMARK                         _______ _______ _______ _____ _____    ______ ____
ROOT
ATOM      1  N   UNL     1       5.516   4.898  18.768  0.00  0.00    +0.000 NA
ATOM      2  C   UNL     1       6.728   5.456  19.378  0.00  0.00    +0.000 C 
ENDROOT
BRANCH   1   3
ATOM      3  C   UNL     1       4.653   5.977  18.218  0.00  0.00    +0.000 C 
BRANCH   3   4
ATOM      4  C   UNL     1       5.338   6.833  17.142  0.00  0.00    +0.000 C 
BRANCH   4   8
ATOM      5  C   UNL     1       6.178   3.720  13.395  0.00  0.00    +0.000 C 
ATOM      6  C   UNL     1       6.260   4.673  14.517  0.00  0.00    +0.000 A 
ATOM      7  N   UNL     1       5.310   5.132  15.301  0.00  0.00    +0.000 NA
ATOM      8  C   UNL     1       6.009   5.996  16.107  0.00  0.00    +0.000 A 
ATOM      9  N   UNL     1       7.321   6.071  15.863  0.00  0.00    +0.000 NA
ATOM     10  O   UNL     1       7.492   5.181  14.795  0.00  0.00    +0.000 OA
ENDBRANCH   4   8
ENDBRANCH   3   4
ENDBRANCH   1   3
BRANCH   1  11
ATOM     11  C   UNL     1       4.795   4.081  19.780  0.00  0.00    +0.000 C 
BRANCH  11  12
ATOM     12  C   UNL     1       3.446   3.582  19.316  0.00  0.00    +0.000 A 
ATOM     13  C   UNL     1       2.300   3.869  20.073  0.00  0.00    +0.000 A 
ATOM     14  C   UNL     1       1.065   3.364  19.688  0.00  0.00    +0.000 A 
ATOM     15  C   UNL     1       1.017   2.579  18.554  0.00  0.00    +0.000 A 
ATOM     16  N   UNL     1       2.091   2.311  17.779  0.00  0.00    +0.000 NA
ATOM     17  C   UNL     1       3.281   2.822  18.155  0.00  0.00    +0.000 A 
BRANCH  17  18
ATOM     18  N   UNL     1       4.311   2.611  17.246  0.00  0.00    +0.000 N 
ATOM     19  H   UNL     1       4.581   1.634  17.335  0.00  0.00    +0.000 HD
ATOM     20  H   UNL     1       5.094   3.239  17.361  0.00  0.00    +0.000 HD
ENDBRANCH  17  18
ENDBRANCH  11  12
ENDBRANCH   1  11
TORSDOF 6
ENDMDL
