MODEL 1
REMARK VINA RESULT:      -7.2      0.000      0.000
REMARK  Name = 
REMARK  3 active torsions:
REMARK  status: ('A' for Active; 'I' for Inactive)
REMARK    1  A    between atoms: N_1  and  C_2
REMARK    2  A    between atoms: C_6  and  C_7
REMARK    3  A    between atoms: C_7  and  C_9
REMARK                            x       y       z     vdW  Elec       q    Type
REMARK                         _______ _______ _______ _____ _____    ______ ____
ROOT
ATOM      1  C   UNL     1      -0.907  11.840  18.519  0.00  0.00    +0.000 C 
ATOM      2  O   UNL     1      -0.338  12.922  18.381  0.00  0.00    +0.000 OA
ENDROOT
BRANCH   1   3
ATOM      3  C   UNL     1      -0.073  10.663  18.929  0.00  0.00    +0.000 A 
ATOM      4  C   UNL     1       0.688  10.024  17.937  0.00  0.00    +0.000 A 
ATOM      5  C   UNL     1       1.466   8.917  18.244  0.00  0.00    +0.000 A 
ATOM      6  C   UNL     1       1.546   8.465  19.559  0.00  0.00    +0.000 A 
ATOM      7 CL   UNL     1       2.532   7.063  19.827  0.00  0.00    +0.000 Cl
ATOM      8  C   UNL     1       0.863   9.127  20.609  0.00  0.00    +0.000 A 
ATOM      9  C   UNL     1       0.988   8.722  21.962  0.00  0.00    +0.000 A 
ATOM     10  C   UNL     1       0.338   9.385  22.999  0.00  0.00    +0.000 A 
ATOM     11  C   UNL     1      -0.477  10.462  22.709  0.00  0.00    +0.000 A 
ATOM     12  C   UNL     1      -0.639  10.870  21.383  0.00  0.00    +0.000 A 
ATOM     13  C   UNL     1       0.031  10.242  20.297  0.00  0.00    +0.000 A 
ENDBRANCH   1   3
BRANCH   1  18
ATOM     14  C   UNL     1      -2.894  11.151  17.035  0.00  0.00    +0.000 A 
ATOM     15  S   UNL     1      -4.596  11.360  16.962  0.00  0.00    +0.000 S 
ATOM     16  C   UNL     1      -4.653  12.034  18.510  0.00  0.00    +0.000 A 
ATOM     17  C   UNL     1      -3.405  12.126  19.092  0.00  0.00    +0.000 A 
ATOM     18  C   UNL     1      -2.344  11.705  18.190  0.00  0.00    +0.000 A 
ATOM     19  C   UNL     1      -3.238  12.673  20.487  0.00  0.00    +0.000 C 
ATOM     20  C   UNL     1      -4.565  12.689  21.262  0.00  0.00    +0.000 C 
ATOM     21  C   UNL     1      -5.701  13.267  20.415  0.00  0.00    +0.000 C 
ATOM     22  C   UNL     1      -5.948  12.431  19.152  0.00  0.00    +0.000 C 
BRANCH  14  23
ATOM     23  N   UNL     1      -2.292  10.518  16.001  0.00  0.00    +0.000 N 
ATOM     24  H   UNL     1      -1.274  10.505  15.999  0.00  0.00    +0.000 HD
ATOM     25  H   UNL     1      -2.681  10.581  15.065  0.00  0.00    +0.000 HD
ENDBRANCH  14  23
ENDBRANCH   1  18
TORSDOF 3
ENDMDL
MODEL 2
REMARK VINA RESULT:      -7.1      3.269      6.691
REMARK  Name = 
REMARK  3 active torsions:
REMARK  status: ('A' for Active; 'I' for Inactive)
REMARK    1  A    between atoms: N_1  and  C_2
REMARK    2  A    between atoms: C_6  and  C_7
REMARK    3  A    between atoms: C_7  and  C_9
REMARK                            x       y       z     vdW  Elec       q    Type
REMARK                         _______ _______ _______ _____ _____    ______ ____
ROOT
ATOM      1  C   UNL     1      -0.628  11.851  19.806  0.00  0.00    +0.000 C 
ATOM      2  O   UNL     1       0.085  12.827  19.577  0.00  0.00    +0.000 OA
ENDROOT
BRANCH   1   3
ATOM      3  C   UNL     1      -2.101  11.991  19.558  0.00  0.00    +0.000 A 
ATOM      4  C   UNL     1      -2.867  12.656  20.528  0.00  0.00    +0.000 A 
ATOM      5  C   UNL     1      -4.238  12.803  20.372  0.00  0.00    +0.000 A 
ATOM      6  C   UNL     1      -4.859  12.343  19.213  0.00  0.00    +0.000 A 
ATOM      7 CL   UNL     1      -6.578  12.561  19.128  0.00  0.00    +0.000 Cl
ATOM      8  C   UNL     1      -4.116  11.740  18.168  0.00  0.00    +0.000 A 
ATOM      9  C   UNL     1      -4.722  11.328  16.954  0.00  0.00    +0.000 A 
ATOM     10  C   UNL     1      -3.991  10.758  15.914  0.00  0.00    +0.000 A 
ATOM     11  C   UNL     1      -2.633  10.562  16.070  0.00  0.00    +0.000 A 
ATOM     12  C   UNL     1      -2.012  10.936  17.263  0.00  0.00    +0.000 A 
ATOM     13  C   UNL     1      -2.713  11.550  18.337  0.00  0.00    +0.000 A 
ENDBRANCH   1   3
BRANCH   1  18
ATOM     14  C   UNL     1      -0.157  10.199  21.722  0.00  0.00    +0.000 A 
ATOM     15  S   UNL     1       0.821   8.826  22.045  0.00  0.00    +0.000 S 
ATOM     16  C   UNL     1       1.275   8.678  20.424  0.00  0.00    +0.000 A 
ATOM     17  C   UNL     1       0.716   9.658  19.628  0.00  0.00    +0.000 A 
ATOM     18  C   UNL     1      -0.047  10.626  20.400  0.00  0.00    +0.000 A 
ATOM     19  C   UNL     1       0.971   9.688  18.142  0.00  0.00    +0.000 C 
ATOM     20  C   UNL     1       1.514   8.348  17.623  0.00  0.00    +0.000 C 
ATOM     21  C   UNL     1       2.640   7.818  18.515  0.00  0.00    +0.000 C 
ATOM     22  C   UNL     1       2.153   7.561  19.948  0.00  0.00    +0.000 C 
BRANCH  14  23
ATOM     23  N   UNL     1      -0.881  10.710  22.745  0.00  0.00    +0.000 N 
ATOM     24  H   UNL     1      -0.417  11.389  23.345  0.00  0.00    +0.000 HD
ATOM     25  H   UNL     1      -1.530  10.121  23.259  0.00  0.00    +0.000 HD
ENDBRANCH  14  23
ENDBRANCH   1  18
TORSDOF 3
ENDMDL
MODEL 3
REMARK VINA RESULT:      -6.8      3.156      6.412
REMARK  Name = 
REMARK  3 active torsions:
REMARK  status: ('A' for Active; 'I' for Inactive)
REMARK    1  A    between atoms: N_1  and  C_2
REMARK    2  A    between atoms: C_6  and  C_7
REMARK    3  A    between atoms: C_7  and  C_9
REMARK                            x       y       z     vdW  Elec       q    Type
REMARK                         _______ _______ _______ _____ _____    ______ ____
ROOT
ATOM      1  C   UNL     1      -2.285  13.417  20.530  0.00  0.00    +0.000 C 
ATOM      2  O   UNL     1      -1.892  14.573  20.378  0.00  0.00    +0.000 OA
ENDROOT
BRANCH   1   3
ATOM      3  C   UNL     1      -3.577  13.213  21.266  0.00  0.00    +0.000 A 
ATOM      4  C   UNL     1      -3.653  13.672  22.591  0.00  0.00    +0.000 A 
ATOM      5  C   UNL     1      -4.810  13.498  23.336  0.00  0.00    +0.000 A 
ATOM      6  C   UNL     1      -5.933  12.918  22.751  0.00  0.00    +0.000 A 
ATOM      7 CL   UNL     1      -7.319  12.731  23.777  0.00  0.00    +0.000 Cl
ATOM      8  C   UNL     1      -5.933  12.514  21.393  0.00  0.00    +0.000 A 
ATOM      9  C   UNL     1      -7.088  11.985  20.764  0.00  0.00    +0.000 A 
ATOM     10  C   UNL     1      -7.098  11.611  19.422  0.00  0.00    +0.000 A 
ATOM     11  C   UNL     1      -5.942  11.735  18.676  0.00  0.00    +0.000 A 
ATOM     12  C   UNL     1      -4.782  12.231  19.274  0.00  0.00    +0.000 A 
ATOM     13  C   UNL     1      -4.736  12.655  20.631  0.00  0.00    +0.000 A 
ENDBRANCH   1   3
BRANCH   1  18
ATOM     14  C   UNL     1      -0.958  12.051  18.800  0.00  0.00    +0.000 A 
ATOM     15  S   UNL     1      -0.193  10.521  18.661  0.00  0.00    +0.000 S 
ATOM     16  C   UNL     1      -0.356  10.208  20.313  0.00  0.00    +0.000 A 
ATOM     17  C   UNL     1      -0.995  11.231  20.983  0.00  0.00    +0.000 A 
ATOM     18  C   UNL     1      -1.451  12.280  20.083  0.00  0.00    +0.000 A 
ATOM     19  C   UNL     1      -1.216  11.163  22.473  0.00  0.00    +0.000 C 
ATOM     20  C   UNL     1      -0.317  10.111  23.142  0.00  0.00    +0.000 C 
ATOM     21  C   UNL     1      -0.336   8.789  22.370  0.00  0.00    +0.000 C 
ATOM     22  C   UNL     1       0.190   8.960  20.939  0.00  0.00    +0.000 C 
BRANCH  14  23
ATOM     23  N   UNL     1      -1.016  12.829  17.693  0.00  0.00    +0.000 N 
ATOM     24  H   UNL     1      -1.349  12.389  16.838  0.00  0.00    +0.000 HD
ATOM     25  H   UNL     1      -0.296  13.523  17.516  0.00  0.00    +0.000 HD
ENDBRANCH  14  23
ENDBRANCH   1  18
TORSDOF 3
ENDMDL
MODEL 4
REMARK VINA RESULT:      -6.8      1.885      2.624
REMARK  Name = 
REMARK  3 active torsions:
REMARK  status: ('A' for Active; 'I' for Inactive)
REMARK    1  A    between atoms: N_1  and  C_2
REMARK    2  A    between atoms: C_6  and  C_7
REMARK    3  A    between atoms: C_7  and  C_9
REMARK                            x       y       z     vdW  Elec       q    Type
REMARK                         _______ _______ _______ _____ _____    ______ ____
ROOT
ATOM      1  C   UNL     1      -2.399  13.037  20.380  0.00  0.00    +0.000 C 
ATOM      2  O   UNL     1      -1.987  14.190  20.501  0.00  0.00    +0.000 OA
ENDROOT
BRANCH   1   3
ATOM      3  C   UNL     1      -1.403  11.977  20.014  0.00  0.00    +0.000 A 
ATOM      4  C   UNL     1      -0.949  11.938  18.685  0.00  0.00    +0.000 A 
ATOM      5  C   UNL     1      -0.044  10.971  18.273  0.00  0.00    +0.000 A 
ATOM      6  C   UNL     1       0.473  10.064  19.195  0.00  0.00    +0.000 A 
ATOM      7 CL   UNL     1       1.583   8.887  18.570  0.00  0.00    +0.000 Cl
ATOM      8  C   UNL     1       0.110  10.116  20.564  0.00  0.00    +0.000 A 
ATOM      9  C   UNL     1       0.679   9.245  21.528  0.00  0.00    +0.000 A 
ATOM     10  C   UNL     1       0.344   9.310  22.878  0.00  0.00    +0.000 A 
ATOM     11  C   UNL     1      -0.591  10.236  23.299  0.00  0.00    +0.000 A 
ATOM     12  C   UNL     1      -1.185  11.092  22.370  0.00  0.00    +0.000 A 
ATOM     13  C   UNL     1      -0.849  11.082  20.989  0.00  0.00    +0.000 A 
ENDBRANCH   1   3
BRANCH   1  18
ATOM     14  C   UNL     1      -4.719  12.398  19.470  0.00  0.00    +0.000 A 
ATOM     15  S   UNL     1      -6.350  12.329  19.999  0.00  0.00    +0.000 S 
ATOM     16  C   UNL     1      -5.915  12.597  21.609  0.00  0.00    +0.000 A 
ATOM     17  C   UNL     1      -4.553  12.756  21.769  0.00  0.00    +0.000 A 
ATOM     18  C   UNL     1      -3.845  12.746  20.498  0.00  0.00    +0.000 A 
ATOM     19  C   UNL     1      -3.953  12.976  23.134  0.00  0.00    +0.000 C 
ATOM     20  C   UNL     1      -4.922  12.585  24.260  0.00  0.00    +0.000 C 
ATOM     21  C   UNL     1      -6.324  13.149  24.012  0.00  0.00    +0.000 C 
ATOM     22  C   UNL     1      -6.931  12.607  22.711  0.00  0.00    +0.000 C 
BRANCH  14  23
ATOM     23  N   UNL     1      -4.469  12.138  18.165  0.00  0.00    +0.000 N 
ATOM     24  H   UNL     1      -3.540  11.793  17.933  0.00  0.00    +0.000 HD
ATOM     25  H   UNL     1      -4.850  12.740  17.440  0.00  0.00    +0.000 HD
ENDBRANCH  14  23
ENDBRANCH   1  18
TORSDOF 3
ENDMDL
MODEL 5
REMARK VINA RESULT:      -6.7      3.051      4.584
REMARK  Name = 
REMARK  3 active torsions:
REMARK  status: ('A' for Active; 'I' for Inactive)
REMARK    1  A    between atoms: N_1  and  C_2
REMARK    2  A    between atoms: C_6  and  C_7
REMARK    3  A    between atoms: C_7  and  C_9
REMARK                            x       y       z     vdW  Elec       q    Type
REMARK                         _______ _______ _______ _____ _____    ______ ____
ROOT
ATOM      1  C   UNL     1      -2.764  13.292  22.104  0.00  0.00    +0.000 C 
ATOM      2  O   UNL     1      -2.327  14.401  21.799  0.00  0.00    +0.000 OA
ENDROOT
BRANCH   1   3
ATOM      3  C   UNL     1      -1.847  12.115  21.942  0.00  0.00    +0.000 A 
ATOM      4  C   UNL     1      -1.479  11.410  23.100  0.00  0.00    +0.000 A 
ATOM      5  C   UNL     1      -0.618  10.325  23.024  0.00  0.00    +0.000 A 
ATOM      6  C   UNL     1      -0.158   9.886  21.785  0.00  0.00    +0.000 A 
ATOM      7 CL   UNL     1       0.927   8.533  21.808  0.00  0.00    +0.000 Cl
ATOM      8  C   UNL     1      -0.568  10.513  20.582  0.00  0.00    +0.000 A 
ATOM      9  C   UNL     1      -0.164  10.036  19.309  0.00  0.00    +0.000 A 
ATOM     10  C   UNL     1      -0.585  10.634  18.124  0.00  0.00    +0.000 A 
ATOM     11  C   UNL     1      -1.406  11.744  18.180  0.00  0.00    +0.000 A 
ATOM     12  C   UNL     1      -1.801  12.250  19.419  0.00  0.00    +0.000 A 
ATOM     13  C   UNL     1      -1.422  11.652  20.652  0.00  0.00    +0.000 A 
ENDBRANCH   1   3
BRANCH   1  18
ATOM     14  C   UNL     1      -4.699  13.291  23.800  0.00  0.00    +0.000 A 
ATOM     15  S   UNL     1      -6.350  12.832  23.889  0.00  0.00    +0.000 S 
ATOM     16  C   UNL     1      -6.444  12.575  22.222  0.00  0.00    +0.000 A 
ATOM     17  C   UNL     1      -5.243  12.812  21.583  0.00  0.00    +0.000 A 
ATOM     18  C   UNL     1      -4.176  13.134  22.518  0.00  0.00    +0.000 A 
ATOM     19  C   UNL     1      -5.119  12.668  20.088  0.00  0.00    +0.000 C 
ATOM     20  C   UNL     1      -6.489  12.664  19.393  0.00  0.00    +0.000 C 
ATOM     21  C   UNL     1      -7.474  11.733  20.106  0.00  0.00    +0.000 C 
ATOM     22  C   UNL     1      -7.725  12.176  21.554  0.00  0.00    +0.000 C 
BRANCH  14  23
ATOM     23  N   UNL     1      -4.102  13.718  24.938  0.00  0.00    +0.000 N 
ATOM     24  H   UNL     1      -4.190  13.119  25.757  0.00  0.00    +0.000 HD
ATOM     25  H   UNL     1      -4.103  14.705  25.178  0.00  0.00    +0.000 HD
ENDBRANCH  14  23
ENDBRANCH   1  18
TORSDOF 3
ENDMDL
MODEL 6
REMARK VINA RESULT:      -6.7      3.073      4.512
REMARK  Name = 
REMARK  3 active torsions:
REMARK  status: ('A' for Active; 'I' for Inactive)
REMARK    1  A    between atoms: N_1  and  C_2
REMARK    2  A    between atoms: C_6  and  C_7
REMARK    3  A    between atoms: C_7  and  C_9
REMARK                            x       y       z     vdW  Elec       q    Type
REMARK                         _______ _______ _______ _____ _____    ______ ____
ROOT
ATOM      1  C   UNL     1      -0.685  12.070  18.564  0.00  0.00    +0.000 C 
ATOM      2  O   UNL     1      -1.675  11.910  17.852  0.00  0.00    +0.000 OA
ENDROOT
BRANCH   1   3
ATOM      3  C   UNL     1       0.020  10.842  19.061  0.00  0.00    +0.000 A 
ATOM      4  C   UNL     1       0.829  10.140  18.153  0.00  0.00    +0.000 A 
ATOM      5  C   UNL     1       1.492   8.985  18.540  0.00  0.00    +0.000 A 
ATOM      6  C   UNL     1       1.410   8.544  19.859  0.00  0.00    +0.000 A 
ATOM      7 CL   UNL     1       2.262   7.080  20.230  0.00  0.00    +0.000 Cl
ATOM      8  C   UNL     1       0.673   9.263  20.832  0.00  0.00    +0.000 A 
ATOM      9  C   UNL     1       0.634   8.865  22.193  0.00  0.00    +0.000 A 
ATOM     10  C   UNL     1      -0.068   9.584  23.158  0.00  0.00    +0.000 A 
ATOM     11  C   UNL     1      -0.772  10.712  22.782  0.00  0.00    +0.000 A 
ATOM     12  C   UNL     1      -0.772  11.115  21.446  0.00  0.00    +0.000 A 
ATOM     13  C   UNL     1      -0.043  10.430  20.435  0.00  0.00    +0.000 A 
ENDBRANCH   1   3
BRANCH   1  18
ATOM     14  C   UNL     1      -1.044  14.352  19.696  0.00  0.00    +0.000 A 
ATOM     15  S   UNL     1      -0.272  15.880  19.817  0.00  0.00    +0.000 S 
ATOM     16  C   UNL     1       1.137  15.307  19.081  0.00  0.00    +0.000 A 
ATOM     17  C   UNL     1       1.042  13.977  18.723  0.00  0.00    +0.000 A 
ATOM     18  C   UNL     1      -0.280  13.429  18.986  0.00  0.00    +0.000 A 
ATOM     19  C   UNL     1       2.203  13.264  18.077  0.00  0.00    +0.000 C 
ATOM     20  C   UNL     1       3.525  14.023  18.269  0.00  0.00    +0.000 C 
ATOM     21  C   UNL     1       3.363  15.514  17.963  0.00  0.00    +0.000 C 
ATOM     22  C   UNL     1       2.344  16.177  18.900  0.00  0.00    +0.000 C 
BRANCH  14  23
ATOM     23  N   UNL     1      -2.267  14.219  20.262  0.00  0.00    +0.000 N 
ATOM     24  H   UNL     1      -2.328  13.639  21.096  0.00  0.00    +0.000 HD
ATOM     25  H   UNL     1      -3.096  14.146  19.679  0.00  0.00    +0.000 HD
ENDBRANCH  14  23
ENDBRANCH   1  18
TORSDOF 3
ENDMDL
MODEL 7
REMARK VINA RESULT:      -6.6      2.739      4.602
REMARK  Name = 
REMARK  3 active torsions:
REMARK  status: ('A' for Active; 'I' for Inactive)
REMARK    1  A    between atoms: N_1  and  C_2
REMARK    2  A    between atoms: C_6  and  C_7
REMARK    3  A    between atoms: C_7  and  C_9
REMARK                            x       y       z     vdW  Elec       q    Type
REMARK                         _______ _______ _______ _____ _____    ______ ____
ROOT
ATOM      1  C   UNL     1       1.496   9.873  18.569  0.00  0.00    +0.000 C 
ATOM      2  O   UNL     1       2.242  10.209  17.650  0.00  0.00    +0.000 OA
ENDROOT
BRANCH   1   3
ATOM      3  C   UNL     1       1.731   8.533  19.201  0.00  0.00    +0.000 A 
ATOM      4  C   UNL     1       0.980   8.208  20.342  0.00  0.00    +0.000 A 
ATOM      5  C   UNL     1       1.162   6.995  20.989  0.00  0.00    +0.000 A 
ATOM      6  C   UNL     1       2.052   6.057  20.471  0.00  0.00    +0.000 A 
ATOM      7 CL   UNL     1       2.216   4.581  21.368  0.00  0.00    +0.000 Cl
ATOM      8  C   UNL     1       2.771   6.304  19.275  0.00  0.00    +0.000 A 
ATOM      9  C   UNL     1       3.629   5.334  18.698  0.00  0.00    +0.000 A 
ATOM     10  C   UNL     1       4.317   5.564  17.509  0.00  0.00    +0.000 A 
ATOM     11  C   UNL     1       4.184   6.784  16.875  0.00  0.00    +0.000 A 
ATOM     12  C   UNL     1       3.365   7.768  17.432  0.00  0.00    +0.000 A 
ATOM     13  C   UNL     1       2.619   7.564  18.625  0.00  0.00    +0.000 A 
ENDBRANCH   1   3
BRANCH   1  18
ATOM     14  C   UNL     1       0.346  11.744  19.910  0.00  0.00    +0.000 A 
ATOM     15  S   UNL     1      -1.229  12.367  20.185  0.00  0.00    +0.000 S 
ATOM     16  C   UNL     1      -1.895  11.433  18.946  0.00  0.00    +0.000 A 
ATOM     17  C   UNL     1      -0.955  10.635  18.324  0.00  0.00    +0.000 A 
ATOM     18  C   UNL     1       0.353  10.731  18.954  0.00  0.00    +0.000 A 
ATOM     19  C   UNL     1      -1.338   9.743  17.170  0.00  0.00    +0.000 C 
ATOM     20  C   UNL     1      -2.685  10.146  16.552  0.00  0.00    +0.000 C 
ATOM     21  C   UNL     1      -3.745  10.387  17.630  0.00  0.00    +0.000 C 
ATOM     22  C   UNL     1      -3.343  11.529  18.574  0.00  0.00    +0.000 C 
BRANCH  14  23
ATOM     23  N   UNL     1       1.365  12.266  20.633  0.00  0.00    +0.000 N 
ATOM     24  H   UNL     1       1.164  13.105  21.173  0.00  0.00    +0.000 HD
ATOM     25  H   UNL     1       2.311  12.260  20.263  0.00  0.00    +0.000 HD
ENDBRANCH  14  23
ENDBRANCH   1  18
TORSDOF 3
ENDMDL
MODEL 8
REMARK VINA RESULT:      -6.5      3.745      5.565
REMARK  Name = 
REMARK  3 active torsions:
REMARK  status: ('A' for Active; 'I' for Inactive)
REMARK    1  A    between atoms: N_1  and  C_2
REMARK    2  A    between atoms: C_6  and  C_7
REMARK    3  A    between atoms: C_7  and  C_9
REMARK                            x       y       z     vdW  Elec       q    Type
REMARK                         _______ _______ _______ _____ _____    ______ ____
ROOT
ATOM      1  C   UNL     1      -0.426  12.984  18.816  0.00  0.00    +0.000 C 
ATOM      2  O   UNL     1      -1.122  12.639  17.861  0.00  0.00    +0.000 OA
ENDROOT
BRANCH   1   3
ATOM      3  C   UNL     1      -0.279  12.016  19.953  0.00  0.00    +0.000 A 
ATOM      4  C   UNL     1      -0.926  12.325  21.161  0.00  0.00    +0.000 A 
ATOM      5  C   UNL     1      -0.814  11.485  22.259  0.00  0.00    +0.000 A 
ATOM      6  C   UNL     1      -0.106  10.291  22.153  0.00  0.00    +0.000 A 
ATOM      7 CL   UNL     1      -0.014   9.325  23.591  0.00  0.00    +0.000 Cl
ATOM      8  C   UNL     1       0.494   9.895  20.932  0.00  0.00    +0.000 A 
ATOM      9  C   UNL     1       1.160   8.651  20.788  0.00  0.00    +0.000 A 
ATOM     10  C   UNL     1       1.729   8.249  19.582  0.00  0.00    +0.000 A 
ATOM     11  C   UNL     1       1.668   9.092  18.489  0.00  0.00    +0.000 A 
ATOM     12  C   UNL     1       1.040  10.333  18.607  0.00  0.00    +0.000 A 
ATOM     13  C   UNL     1       0.418  10.770  19.809  0.00  0.00    +0.000 A 
ENDBRANCH   1   3
BRANCH   1  18
ATOM     14  C   UNL     1      -0.495  15.521  19.238  0.00  0.00    +0.000 A 
ATOM     15  S   UNL     1       0.479  16.910  18.976  0.00  0.00    +0.000 S 
ATOM     16  C   UNL     1       1.814  15.978  18.523  0.00  0.00    +0.000 A 
ATOM     17  C   UNL     1       1.545  14.624  18.547  0.00  0.00    +0.000 A 
ATOM     18  C   UNL     1       0.153  14.345  18.865  0.00  0.00    +0.000 A 
ATOM     19  C   UNL     1       2.612  13.616  18.204  0.00  0.00    +0.000 C 
ATOM     20  C   UNL     1       4.021  14.225  18.261  0.00  0.00    +0.000 C 
ATOM     21  C   UNL     1       4.076  15.575  17.540  0.00  0.00    +0.000 C 
ATOM     22  C   UNL     1       3.135  16.601  18.185  0.00  0.00    +0.000 C 
BRANCH  14  23
ATOM     23  N   UNL     1      -1.739  15.710  19.736  0.00  0.00    +0.000 N 
ATOM     24  H   UNL     1      -2.005  15.142  20.538  0.00  0.00    +0.000 HD
ATOM     25  H   UNL     1      -2.520  15.887  19.112  0.00  0.00    +0.000 HD
ENDBRANCH  14  23
ENDBRANCH   1  18
TORSDOF 3
ENDMDL
MODEL 9
REMARK VINA RESULT:      -6.5      4.006      5.476
REMARK  Name = 
REMARK  3 active torsions:
REMARK  status: ('A' for Active; 'I' for Inactive)
REMARK    1  A    between atoms: N_1  and  C_2
REMARK    2  A    between atoms: C_6  and  C_7
REMARK    3  A    between atoms: C_7  and  C_9
REMARK                            x       y       z     vdW  Elec       q    Type
REMARK                         _______ _______ _______ _____ _____    ______ ____
ROOT
ATOM      1  C   UNL     1      -0.603  12.766  18.759  0.00  0.00    +0.000 C 
ATOM      2  O   UNL     1      -1.210  12.364  17.767  0.00  0.00    +0.000 OA
ENDROOT
BRANCH   1   3
ATOM      3  C   UNL     1      -1.256  12.578  20.097  0.00  0.00    +0.000 A 
ATOM      4  C   UNL     1      -2.405  13.336  20.376  0.00  0.00    +0.000 A 
ATOM      5  C   UNL     1      -3.046  13.227  21.601  0.00  0.00    +0.000 A 
ATOM      6  C   UNL     1      -2.590  12.313  22.547  0.00  0.00    +0.000 A 
ATOM      7 CL   UNL     1      -3.453  12.271  24.050  0.00  0.00    +0.000 Cl
ATOM      8  C   UNL     1      -1.485  11.465  22.280  0.00  0.00    +0.000 A 
ATOM      9  C   UNL     1      -1.050  10.482  23.205  0.00  0.00    +0.000 A 
ATOM     10  C   UNL     1       0.019   9.630  22.935  0.00  0.00    +0.000 A 
ATOM     11  C   UNL     1       0.699   9.755  21.739  0.00  0.00    +0.000 A 
ATOM     12  C   UNL     1       0.309  10.730  20.819  0.00  0.00    +0.000 A 
ATOM     13  C   UNL     1      -0.796  11.597  21.039  0.00  0.00    +0.000 A 
ENDBRANCH   1   3
BRANCH   1  18
ATOM     14  C   UNL     1       1.922  12.951  18.304  0.00  0.00    +0.000 A 
ATOM     15  S   UNL     1       3.180  14.115  18.407  0.00  0.00    +0.000 S 
ATOM     16  C   UNL     1       2.091  15.374  18.694  0.00  0.00    +0.000 A 
ATOM     17  C   UNL     1       0.781  14.941  18.732  0.00  0.00    +0.000 A 
ATOM     18  C   UNL     1       0.676  13.495  18.608  0.00  0.00    +0.000 A 
ATOM     19  C   UNL     1      -0.351  15.912  18.947  0.00  0.00    +0.000 C 
ATOM     20  C   UNL     1       0.079  17.365  18.689  0.00  0.00    +0.000 C 
ATOM     21  C   UNL     1       1.413  17.682  19.372  0.00  0.00    +0.000 C 
ATOM     22  C   UNL     1       2.547  16.794  18.840  0.00  0.00    +0.000 C 
BRANCH  14  23
ATOM     23  N   UNL     1       2.263  11.684  17.973  0.00  0.00    +0.000 N 
ATOM     24  H   UNL     1       1.750  10.934  18.433  0.00  0.00    +0.000 HD
ATOM     25  H   UNL     1       3.235  11.441  17.806  0.00  0.00    +0.000 HD
ENDBRANCH  14  23
ENDBRANCH   1  18
TORSDOF 3
ENDMDL
