MODEL 1
REMARK VINA RESULT:      -9.3      0.000      0.000
REMARK  Name = 
REMARK  5 active torsions:
REMARK  status: ('A' for Active; 'I' for Inactive)
REMARK    1  A    between atoms: C_2  and  C_3
REMARK    2  A    between atoms: C_3  and  C_4
REMARK    3  A    between atoms: C_8  and  O_9
REMARK    4  A    between atoms: O_9  and  C_10
REMARK    5  A    between atoms: N_17  and  C_18
REMARK                            x       y       z     vdW  Elec       q    Type
REMARK                         _______ _______ _______ _____ _____    ______ ____
ROOT
ATOM      1  C   UNL     1       7.901   6.337  18.658  0.00  0.00    +0.000 C 
ENDROOT
BRANCH   1   2
ATOM      2  C   UNL     1       6.835   5.590  17.900  0.00  0.00    +0.000 A 
ATOM      3  C   UNL     1       7.162   4.758  16.822  0.00  0.00    +0.000 A 
ATOM      4  C   UNL     1       6.154   4.161  16.063  0.00  0.00    +0.000 A 
ATOM      5  C   UNL     1       4.814   4.430  16.344  0.00  0.00    +0.000 A 
ATOM      6  C   UNL     1       4.479   5.276  17.400  0.00  0.00    +0.000 A 
ATOM      7  C   UNL     1       5.487   5.793  18.219  0.00  0.00    +0.000 A 
BRANCH   6   8
ATOM      8  O   UNL     1       3.142   5.551  17.581  0.00  0.00    +0.000 OA
BRANCH   8   9
ATOM      9  C   UNL     1       2.397   4.724  18.396  0.00  0.00    +0.000 A 
ATOM     10  C   UNL     1       1.846   3.504  17.986  0.00  0.00    +0.000 A 
ATOM     11  C   UNL     1       1.037   2.770  18.853  0.00  0.00    +0.000 A 
ATOM     12  C   UNL     1       0.834   3.216  20.156  0.00  0.00    +0.000 A 
ATOM     13  C   UNL     1       1.446   4.391  20.595  0.00  0.00    +0.000 A 
ATOM     14  C   UNL     1       2.223   5.146  19.715  0.00  0.00    +0.000 A 
ENDBRANCH   8   9
ENDBRANCH   6   8
ENDBRANCH   1   2
BRANCH   1  16
ATOM     15  O   UNL     1       7.628   8.215  17.229  0.00  0.00    +0.000 OA
ATOM     16  C   UNL     1       8.125   7.801  18.277  0.00  0.00    +0.000 C 
ATOM     17  N   UNL     1       8.886   8.571  19.141  0.00  0.00    +0.000 N 
ATOM     18  H   UNL     1       9.402   8.084  19.866  0.00  0.00    +0.000 HD
BRANCH  17  19
ATOM     19  C   UNL     1       9.083   9.970  19.072  0.00  0.00    +0.000 A 
ATOM     20  C   UNL     1       8.937  10.708  17.890  0.00  0.00    +0.000 A 
ATOM     21  C   UNL     1       9.106  12.097  17.884  0.00  0.00    +0.000 A 
ATOM     22  C   UNL     1       9.427  12.754  19.061  0.00  0.00    +0.000 A 
ATOM     23  F   UNL     1       9.588  14.084  19.053  0.00  0.00    +0.000 F 
ATOM     24  C   UNL     1       9.575  12.035  20.240  0.00  0.00    +0.000 A 
ATOM     25  F   UNL     1       9.892  12.668  21.378  0.00  0.00    +0.000 F 
ATOM     26  C   UNL     1       9.397  10.649  20.256  0.00  0.00    +0.000 A 
ENDBRANCH  17  19
ENDBRANCH   1  16
TORSDOF 5
ENDMDL
MODEL 2
REMARK VINA RESULT:      -9.0      0.688      1.671
REMARK  Name = 
REMARK  5 active torsions:
REMARK  status: ('A' for Active; 'I' for Inactive)
REMARK    1  A    between atoms: C_2  and  C_3
REMARK    2  A    between atoms: C_3  and  C_4
REMARK    3  A    between atoms: C_8  and  O_9
REMARK    4  A    between atoms: O_9  and  C_10
REMARK    5  A    between atoms: N_17  and  C_18
REMARK                            x       y       z     vdW  Elec       q    Type
REMARK                         _______ _______ _______ _____ _____    ______ ____
ROOT
ATOM      1  C   UNL     1       7.975   6.620  18.543  0.00  0.00    +0.000 C 
ENDROOT
BRANCH   1   2
ATOM      2  C   UNL     1       6.866   5.952  17.773  0.00  0.00    +0.000 A 
ATOM      3  C   UNL     1       7.136   5.201  16.622  0.00  0.00    +0.000 A 
ATOM      4  C   UNL     1       6.088   4.682  15.859  0.00  0.00    +0.000 A 
ATOM      5  C   UNL     1       4.765   4.950  16.213  0.00  0.00    +0.000 A 
ATOM      6  C   UNL     1       4.488   5.717  17.343  0.00  0.00    +0.000 A 
ATOM      7  C   UNL     1       5.536   6.152  18.159  0.00  0.00    +0.000 A 
BRANCH   6   8
ATOM      8  O   UNL     1       3.164   6.000  17.597  0.00  0.00    +0.000 OA
BRANCH   8   9
ATOM      9  C   UNL     1       2.475   5.211  18.496  0.00  0.00    +0.000 A 
ATOM     10  C   UNL     1       2.415   5.457  19.873  0.00  0.00    +0.000 A 
ATOM     11  C   UNL     1       1.763   4.562  20.720  0.00  0.00    +0.000 A 
ATOM     12  C   UNL     1       1.106   3.456  20.187  0.00  0.00    +0.000 A 
ATOM     13  C   UNL     1       1.095   3.249  18.806  0.00  0.00    +0.000 A 
ATOM     14  C   UNL     1       1.781   4.124  17.962  0.00  0.00    +0.000 A 
ENDBRANCH   8   9
ENDBRANCH   6   8
ENDBRANCH   1   2
BRANCH   1  16
ATOM     15  O   UNL     1       7.593   8.644  17.358  0.00  0.00    +0.000 OA
ATOM     16  C   UNL     1       8.179   8.117  18.304  0.00  0.00    +0.000 C 
ATOM     17  N   UNL     1       9.026   8.787  19.173  0.00  0.00    +0.000 N 
ATOM     18  H   UNL     1       9.600   8.222  19.790  0.00  0.00    +0.000 HD
BRANCH  17  19
ATOM     19  C   UNL     1       9.231  10.184  19.240  0.00  0.00    +0.000 A 
ATOM     20  C   UNL     1       9.211  10.907  20.441  0.00  0.00    +0.000 A 
ATOM     21  C   UNL     1       9.458  12.284  20.456  0.00  0.00    +0.000 A 
ATOM     22  C   UNL     1       9.721  12.946  19.267  0.00  0.00    +0.000 A 
ATOM     23  F   UNL     1       9.956  14.266  19.284  0.00  0.00    +0.000 F 
ATOM     24  C   UNL     1       9.743  12.244  18.070  0.00  0.00    +0.000 A 
ATOM     25  F   UNL     1       9.990  12.884  16.919  0.00  0.00    +0.000 F 
ATOM     26  C   UNL     1       9.509  10.867  18.048  0.00  0.00    +0.000 A 
ENDBRANCH  17  19
ENDBRANCH   1  16
TORSDOF 5
ENDMDL
MODEL 3
REMARK VINA RESULT:      -8.6      1.413      2.131
REMARK  Name = 
REMARK  5 active torsions:
REMARK  status: ('A' for Active; 'I' for Inactive)
REMARK    1  A    between atoms: C_2  and  C_3
REMARK    2  A    between atoms: C_3  and  C_4
REMARK    3  A    between atoms: C_8  and  O_9
REMARK    4  A    between atoms: O_9  and  C_10
REMARK    5  A    between atoms: N_17  and  C_18
REMARK                            x       y       z     vdW  Elec       q    Type
REMARK                         _______ _______ _______ _____ _____    ______ ____
ROOT
ATOM      1  C   UNL     1       7.104   7.885  16.956  0.00  0.00    +0.000 C 
ENDROOT
BRANCH   1   2
ATOM      2  C   UNL     1       6.325   6.693  17.449  0.00  0.00    +0.000 A 
ATOM      3  C   UNL     1       6.956   5.465  17.688  0.00  0.00    +0.000 A 
ATOM      4  C   UNL     1       6.203   4.344  18.038  0.00  0.00    +0.000 A 
ATOM      5  C   UNL     1       4.811   4.428  18.103  0.00  0.00    +0.000 A 
ATOM      6  C   UNL     1       4.173   5.640  17.843  0.00  0.00    +0.000 A 
ATOM      7  C   UNL     1       4.936   6.783  17.590  0.00  0.00    +0.000 A 
BRANCH   6   8
ATOM      8  O   UNL     1       2.796   5.637  17.858  0.00  0.00    +0.000 OA
BRANCH   8   9
ATOM      9  C   UNL     1       2.142   4.771  18.710  0.00  0.00    +0.000 A 
ATOM     10  C   UNL     1       2.009   4.975  20.089  0.00  0.00    +0.000 A 
ATOM     11  C   UNL     1       1.402   4.007  20.888  0.00  0.00    +0.000 A 
ATOM     12  C   UNL     1       0.860   2.865  20.304  0.00  0.00    +0.000 A 
ATOM     13  C   UNL     1       0.919   2.695  18.920  0.00  0.00    +0.000 A 
ATOM     14  C   UNL     1       1.561   3.645  18.124  0.00  0.00    +0.000 A 
ENDBRANCH   8   9
ENDBRANCH   6   8
ENDBRANCH   1   2
BRANCH   1  16
ATOM     15  O   UNL     1       8.642   7.786  18.765  0.00  0.00    +0.000 OA
ATOM     16  C   UNL     1       8.099   8.513  17.932  0.00  0.00    +0.000 C 
ATOM     17  N   UNL     1       8.322   9.876  17.820  0.00  0.00    +0.000 N 
ATOM     18  H   UNL     1       7.684  10.405  17.234  0.00  0.00    +0.000 HD
BRANCH  17  19
ATOM     19  C   UNL     1       9.308  10.628  18.499  0.00  0.00    +0.000 A 
ATOM     20  C   UNL     1       9.331  10.781  19.892  0.00  0.00    +0.000 A 
ATOM     21  C   UNL     1      10.351  11.505  20.520  0.00  0.00    +0.000 A 
ATOM     22  C   UNL     1      11.351  12.084  19.754  0.00  0.00    +0.000 A 
ATOM     23  F   UNL     1      12.327  12.777  20.358  0.00  0.00    +0.000 F 
ATOM     24  C   UNL     1      11.340  11.941  18.374  0.00  0.00    +0.000 A 
ATOM     25  F   UNL     1      12.303  12.506  17.632  0.00  0.00    +0.000 F 
ATOM     26  C   UNL     1      10.331  11.210  17.741  0.00  0.00    +0.000 A 
ENDBRANCH  17  19
ENDBRANCH   1  16
TORSDOF 5
ENDMDL
MODEL 4
REMARK VINA RESULT:      -8.5      1.188      1.817
REMARK  Name = 
REMARK  5 active torsions:
REMARK  status: ('A' for Active; 'I' for Inactive)
REMARK    1  A    between atoms: C_2  and  C_3
REMARK    2  A    between atoms: C_3  and  C_4
REMARK    3  A    between atoms: C_8  and  O_9
REMARK    4  A    between atoms: O_9  and  C_10
REMARK    5  A    between atoms: N_17  and  C_18
REMARK                            x       y       z     vdW  Elec       q    Type
REMARK                         _______ _______ _______ _____ _____    ______ ____
ROOT
ATOM      1  C   UNL     1       7.783   6.345  18.743  0.00  0.00    +0.000 C 
ENDROOT
BRANCH   1   2
ATOM      2  C   UNL     1       6.938   5.430  17.895  0.00  0.00    +0.000 A 
ATOM      3  C   UNL     1       7.461   4.817  16.750  0.00  0.00    +0.000 A 
ATOM      4  C   UNL     1       6.635   4.062  15.917  0.00  0.00    +0.000 A 
ATOM      5  C   UNL     1       5.271   3.955  16.194  0.00  0.00    +0.000 A 
ATOM      6  C   UNL     1       4.737   4.582  17.318  0.00  0.00    +0.000 A 
ATOM      7  C   UNL     1       5.584   5.254  18.204  0.00  0.00    +0.000 A 
BRANCH   6   8
ATOM      8  O   UNL     1       3.374   4.492  17.496  0.00  0.00    +0.000 OA
BRANCH   8   9
ATOM      9  C   UNL     1       2.882   4.275  18.767  0.00  0.00    +0.000 A 
ATOM     10  C   UNL     1       2.298   5.267  19.564  0.00  0.00    +0.000 A 
ATOM     11  C   UNL     1       1.900   4.978  20.869  0.00  0.00    +0.000 A 
ATOM     12  C   UNL     1       2.018   3.680  21.358  0.00  0.00    +0.000 A 
ATOM     13  C   UNL     1       2.525   2.669  20.540  0.00  0.00    +0.000 A 
ATOM     14  C   UNL     1       2.960   2.966  19.247  0.00  0.00    +0.000 A 
ENDBRANCH   8   9
ENDBRANCH   6   8
ENDBRANCH   1   2
BRANCH   1  16
ATOM     15  O   UNL     1       7.658   8.013  17.056  0.00  0.00    +0.000 OA
ATOM     16  C   UNL     1       8.075   7.736  18.181  0.00  0.00    +0.000 C 
ATOM     17  N   UNL     1       8.804   8.603  18.980  0.00  0.00    +0.000 N 
ATOM     18  H   UNL     1       9.258   8.209  19.798  0.00  0.00    +0.000 HD
BRANCH  17  19
ATOM     19  C   UNL     1       9.047   9.973  18.734  0.00  0.00    +0.000 A 
ATOM     20  C   UNL     1      10.148  10.664  19.259  0.00  0.00    +0.000 A 
ATOM     21  C   UNL     1      10.363  12.012  18.954  0.00  0.00    +0.000 A 
ATOM     22  C   UNL     1       9.474  12.678  18.126  0.00  0.00    +0.000 A 
ATOM     23  F   UNL     1       9.683  13.970  17.835  0.00  0.00    +0.000 F 
ATOM     24  C   UNL     1       8.380  12.007  17.599  0.00  0.00    +0.000 A 
ATOM     25  F   UNL     1       7.515  12.651  16.802  0.00  0.00    +0.000 F 
ATOM     26  C   UNL     1       8.164  10.658  17.889  0.00  0.00    +0.000 A 
ENDBRANCH  17  19
ENDBRANCH   1  16
TORSDOF 5
ENDMDL
MODEL 5
REMARK VINA RESULT:      -8.5      1.207      1.743
REMARK  Name = 
REMARK  5 active torsions:
REMARK  status: ('A' for Active; 'I' for Inactive)
REMARK    1  A    between atoms: C_2  and  C_3
REMARK    2  A    between atoms: C_3  and  C_4
REMARK    3  A    between atoms: C_8  and  O_9
REMARK    4  A    between atoms: O_9  and  C_10
REMARK    5  A    between atoms: N_17  and  C_18
REMARK                            x       y       z     vdW  Elec       q    Type
REMARK                         _______ _______ _______ _____ _____    ______ ____
ROOT
ATOM      1  C   UNL     1       8.021   6.774  18.531  0.00  0.00    +0.000 C 
ENDROOT
BRANCH   1   2
ATOM      2  C   UNL     1       6.787   6.163  17.919  0.00  0.00    +0.000 A 
ATOM      3  C   UNL     1       6.047   6.849  16.948  0.00  0.00    +0.000 A 
ATOM      4  C   UNL     1       4.847   6.317  16.473  0.00  0.00    +0.000 A 
ATOM      5  C   UNL     1       4.355   5.122  16.999  0.00  0.00    +0.000 A 
ATOM      6  C   UNL     1       5.073   4.445  17.983  0.00  0.00    +0.000 A 
ATOM      7  C   UNL     1       6.321   4.929  18.385  0.00  0.00    +0.000 A 
BRANCH   6   8
ATOM      8  O   UNL     1       4.499   3.308  18.506  0.00  0.00    +0.000 OA
BRANCH   8   9
ATOM      9  C   UNL     1       3.249   3.399  19.084  0.00  0.00    +0.000 A 
ATOM     10  C   UNL     1       2.150   2.617  18.708  0.00  0.00    +0.000 A 
ATOM     11  C   UNL     1       0.901   2.832  19.290  0.00  0.00    +0.000 A 
ATOM     12  C   UNL     1       0.762   3.779  20.301  0.00  0.00    +0.000 A 
ATOM     13  C   UNL     1       1.872   4.505  20.736  0.00  0.00    +0.000 A 
ATOM     14  C   UNL     1       3.113   4.318  20.125  0.00  0.00    +0.000 A 
ENDBRANCH   8   9
ENDBRANCH   6   8
ENDBRANCH   1   2
BRANCH   1  16
ATOM     15  O   UNL     1       7.670   8.807  17.352  0.00  0.00    +0.000 OA
ATOM     16  C   UNL     1       8.240   8.270  18.303  0.00  0.00    +0.000 C 
ATOM     17  N   UNL     1       9.078   8.930  19.187  0.00  0.00    +0.000 N 
ATOM     18  H   UNL     1       9.640   8.358  19.809  0.00  0.00    +0.000 HD
BRANCH  17  19
ATOM     19  C   UNL     1       9.292  10.325  19.264  0.00  0.00    +0.000 A 
ATOM     20  C   UNL     1       9.251  11.043  20.467  0.00  0.00    +0.000 A 
ATOM     21  C   UNL     1       9.507  12.418  20.493  0.00  0.00    +0.000 A 
ATOM     22  C   UNL     1       9.802  13.084  19.314  0.00  0.00    +0.000 A 
ATOM     23  F   UNL     1      10.047  14.401  19.341  0.00  0.00    +0.000 F 
ATOM     24  C   UNL     1       9.846  12.385  18.115  0.00  0.00    +0.000 A 
ATOM     25  F   UNL     1      10.125  13.028  16.972  0.00  0.00    +0.000 F 
ATOM     26  C   UNL     1       9.602  11.010  18.082  0.00  0.00    +0.000 A 
ENDBRANCH  17  19
ENDBRANCH   1  16
TORSDOF 5
ENDMDL
MODEL 6
REMARK VINA RESULT:      -8.4      1.212      1.465
REMARK  Name = 
REMARK  5 active torsions:
REMARK  status: ('A' for Active; 'I' for Inactive)
REMARK    1  A    between atoms: C_2  and  C_3
REMARK    2  A    between atoms: C_3  and  C_4
REMARK    3  A    between atoms: C_8  and  O_9
REMARK    4  A    between atoms: O_9  and  C_10
REMARK    5  A    between atoms: N_17  and  C_18
REMARK                            x       y       z     vdW  Elec       q    Type
REMARK                         _______ _______ _______ _____ _____    ______ ____
ROOT
ATOM      1  C   UNL     1       7.771   6.398  18.457  0.00  0.00    +0.000 C 
ENDROOT
BRANCH   1   2
ATOM      2  C   UNL     1       6.406   5.952  18.000  0.00  0.00    +0.000 A 
ATOM      3  C   UNL     1       5.498   6.860  17.441  0.00  0.00    +0.000 A 
ATOM      4  C   UNL     1       4.200   6.453  17.126  0.00  0.00    +0.000 A 
ATOM      5  C   UNL     1       3.787   5.150  17.410  0.00  0.00    +0.000 A 
ATOM      6  C   UNL     1       4.677   4.247  17.988  0.00  0.00    +0.000 A 
ATOM      7  C   UNL     1       6.003   4.628  18.212  0.00  0.00    +0.000 A 
BRANCH   6   8
ATOM      8  O   UNL     1       4.185   3.000  18.304  0.00  0.00    +0.000 OA
BRANCH   8   9
ATOM      9  C   UNL     1       3.142   2.904  19.202  0.00  0.00    +0.000 A 
ATOM     10  C   UNL     1       1.794   2.811  18.834  0.00  0.00    +0.000 A 
ATOM     11  C   UNL     1       0.797   2.799  19.809  0.00  0.00    +0.000 A 
ATOM     12  C   UNL     1       1.146   2.808  21.157  0.00  0.00    +0.000 A 
ATOM     13  C   UNL     1       2.491   2.820  21.530  0.00  0.00    +0.000 A 
ATOM     14  C   UNL     1       3.488   2.871  20.554  0.00  0.00    +0.000 A 
ENDBRANCH   8   9
ENDBRANCH   6   8
ENDBRANCH   1   2
BRANCH   1  16
ATOM     15  O   UNL     1       8.036   8.189  16.919  0.00  0.00    +0.000 OA
ATOM     16  C   UNL     1       8.196   7.818  18.082  0.00  0.00    +0.000 C 
ATOM     17  N   UNL     1       8.747   8.599  19.085  0.00  0.00    +0.000 N 
ATOM     18  H   UNL     1       9.008   8.133  19.948  0.00  0.00    +0.000 HD
BRANCH  17  19
ATOM     19  C   UNL     1       9.056   9.977  19.006  0.00  0.00    +0.000 A 
ATOM     20  C   UNL     1       8.692  10.784  17.920  0.00  0.00    +0.000 A 
ATOM     21  C   UNL     1       8.990  12.151  17.909  0.00  0.00    +0.000 A 
ATOM     22  C   UNL     1       9.659  12.717  18.983  0.00  0.00    +0.000 A 
ATOM     23  F   UNL     1       9.943  14.026  18.970  0.00  0.00    +0.000 F 
ATOM     24  C   UNL     1      10.026  11.929  20.066  0.00  0.00    +0.000 A 
ATOM     25  F   UNL     1      10.678  12.472  21.102  0.00  0.00    +0.000 F 
ATOM     26  C   UNL     1       9.722  10.565  20.090  0.00  0.00    +0.000 A 
ENDBRANCH  17  19
ENDBRANCH   1  16
TORSDOF 5
ENDMDL
MODEL 7
REMARK VINA RESULT:      -8.3      1.268      1.697
REMARK  Name = 
REMARK  5 active torsions:
REMARK  status: ('A' for Active; 'I' for Inactive)
REMARK    1  A    between atoms: C_2  and  C_3
REMARK    2  A    between atoms: C_3  and  C_4
REMARK    3  A    between atoms: C_8  and  O_9
REMARK    4  A    between atoms: O_9  and  C_10
REMARK    5  A    between atoms: N_17  and  C_18
REMARK                            x       y       z     vdW  Elec       q    Type
REMARK                         _______ _______ _______ _____ _____    ______ ____
ROOT
ATOM      1  C   UNL     1       7.365   7.738  16.976  0.00  0.00    +0.000 C 
ENDROOT
BRANCH   1   2
ATOM      2  C   UNL     1       6.509   6.632  17.537  0.00  0.00    +0.000 A 
ATOM      3  C   UNL     1       7.068   5.404  17.911  0.00  0.00    +0.000 A 
ATOM      4  C   UNL     1       6.246   4.354  18.324  0.00  0.00    +0.000 A 
ATOM      5  C   UNL     1       4.859   4.508  18.319  0.00  0.00    +0.000 A 
ATOM      6  C   UNL     1       4.293   5.719  17.925  0.00  0.00    +0.000 A 
ATOM      7  C   UNL     1       5.121   6.799  17.606  0.00  0.00    +0.000 A 
BRANCH   6   8
ATOM      8  O   UNL     1       2.917   5.781  17.879  0.00  0.00    +0.000 OA
BRANCH   8   9
ATOM      9  C   UNL     1       2.186   4.891  18.638  0.00  0.00    +0.000 A 
ATOM     10  C   UNL     1       1.957   5.034  20.012  0.00  0.00    +0.000 A 
ATOM     11  C   UNL     1       1.273   4.044  20.718  0.00  0.00    +0.000 A 
ATOM     12  C   UNL     1       0.753   2.944  20.042  0.00  0.00    +0.000 A 
ATOM     13  C   UNL     1       0.909   2.837  18.659  0.00  0.00    +0.000 A 
ATOM     14  C   UNL     1       1.627   3.808  17.958  0.00  0.00    +0.000 A 
ENDBRANCH   8   9
ENDBRANCH   6   8
ENDBRANCH   1   2
BRANCH   1  16
ATOM     15  O   UNL     1       8.710   7.900  18.928  0.00  0.00    +0.000 OA
ATOM     16  C   UNL     1       8.237   8.509  17.968  0.00  0.00    +0.000 C 
ATOM     17  N   UNL     1       8.434   9.859  17.722  0.00  0.00    +0.000 N 
ATOM     18  H   UNL     1       7.846  10.294  17.019  0.00  0.00    +0.000 HD
BRANCH  17  19
ATOM     19  C   UNL     1       9.323  10.719  18.406  0.00  0.00    +0.000 A 
ATOM     20  C   UNL     1      10.371  11.400  17.772  0.00  0.00    +0.000 A 
ATOM     21  C   UNL     1      11.201  12.270  18.488  0.00  0.00    +0.000 A 
ATOM     22  C   UNL     1      10.988  12.459  19.845  0.00  0.00    +0.000 A 
ATOM     23  F   UNL     1      11.784  13.292  20.529  0.00  0.00    +0.000 F 
ATOM     24  C   UNL     1       9.954  11.790  20.485  0.00  0.00    +0.000 A 
ATOM     25  F   UNL     1       9.751  11.967  21.798  0.00  0.00    +0.000 F 
ATOM     26  C   UNL     1       9.114  10.929  19.775  0.00  0.00    +0.000 A 
ENDBRANCH  17  19
ENDBRANCH   1  16
TORSDOF 5
ENDMDL
MODEL 8
REMARK VINA RESULT:      -8.3      6.329      8.729
REMARK  Name = 
REMARK  5 active torsions:
REMARK  status: ('A' for Active; 'I' for Inactive)
REMARK    1  A    between atoms: C_2  and  C_3
REMARK    2  A    between atoms: C_3  and  C_4
REMARK    3  A    between atoms: C_8  and  O_9
REMARK    4  A    between atoms: O_9  and  C_10
REMARK    5  A    between atoms: N_17  and  C_18
REMARK                            x       y       z     vdW  Elec       q    Type
REMARK                         _______ _______ _______ _____ _____    ______ ____
ROOT
ATOM      1  C   UNL     1       2.242   8.954  17.847  0.00  0.00    +0.000 C 
ENDROOT
BRANCH   1   2
ATOM      2  C   UNL     1       2.276   7.657  18.614  0.00  0.00    +0.000 A 
ATOM      3  C   UNL     1       1.912   7.606  19.965  0.00  0.00    +0.000 A 
ATOM      4  C   UNL     1       2.056   6.420  20.687  0.00  0.00    +0.000 A 
ATOM      5  C   UNL     1       2.609   5.292  20.078  0.00  0.00    +0.000 A 
ATOM      6  C   UNL     1       2.996   5.342  18.740  0.00  0.00    +0.000 A 
ATOM      7  C   UNL     1       2.761   6.500  17.993  0.00  0.00    +0.000 A 
BRANCH   6   8
ATOM      8  O   UNL     1       3.596   4.216  18.221  0.00  0.00    +0.000 OA
BRANCH   8   9
ATOM      9  C   UNL     1       4.800   4.348  17.561  0.00  0.00    +0.000 A 
ATOM     10  C   UNL     1       4.945   4.285  16.169  0.00  0.00    +0.000 A 
ATOM     11  C   UNL     1       6.211   4.348  15.590  0.00  0.00    +0.000 A 
ATOM     12  C   UNL     1       7.332   4.546  16.392  0.00  0.00    +0.000 A 
ATOM     13  C   UNL     1       7.185   4.690  17.772  0.00  0.00    +0.000 A 
ATOM     14  C   UNL     1       5.921   4.588  18.357  0.00  0.00    +0.000 A 
ENDBRANCH   8   9
ENDBRANCH   6   8
ENDBRANCH   1   2
BRANCH   1  16
ATOM     15  O   UNL     1       1.196  10.946  18.613  0.00  0.00    +0.000 OA
ATOM     16  C   UNL     1       1.026   9.855  18.066  0.00  0.00    +0.000 C 
ATOM     17  N   UNL     1      -0.202   9.378  17.637  0.00  0.00    +0.000 N 
ATOM     18  H   UNL     1      -0.255   8.397  17.380  0.00  0.00    +0.000 HD
BRANCH  17  19
ATOM     19  C   UNL     1      -1.417  10.098  17.590  0.00  0.00    +0.000 A 
ATOM     20  C   UNL     1      -1.827  10.979  18.601  0.00  0.00    +0.000 A 
ATOM     21  C   UNL     1      -3.022  11.698  18.488  0.00  0.00    +0.000 A 
ATOM     22  C   UNL     1      -3.817  11.534  17.364  0.00  0.00    +0.000 A 
ATOM     23  F   UNL     1      -4.962  12.224  17.259  0.00  0.00    +0.000 F 
ATOM     24  C   UNL     1      -3.424  10.665  16.356  0.00  0.00    +0.000 A 
ATOM     25  F   UNL     1      -4.194  10.502  15.271  0.00  0.00    +0.000 F 
ATOM     26  C   UNL     1      -2.226   9.953  16.456  0.00  0.00    +0.000 A 
ENDBRANCH  17  19
ENDBRANCH   1  16
TORSDOF 5
ENDMDL
MODEL 9
REMARK VINA RESULT:      -8.2      5.368      7.029
REMARK  Name = 
REMARK  5 active torsions:
REMARK  status: ('A' for Active; 'I' for Inactive)
REMARK    1  A    between atoms: C_2  and  C_3
REMARK    2  A    between atoms: C_3  and  C_4
REMARK    3  A    between atoms: C_8  and  O_9
REMARK    4  A    between atoms: O_9  and  C_10
REMARK    5  A    between atoms: N_17  and  C_18
REMARK                            x       y       z     vdW  Elec       q    Type
REMARK                         _______ _______ _______ _____ _____    ______ ____
ROOT
ATOM      1  C   UNL     1       4.557   2.902  19.540  0.00  0.00    +0.000 C 
ENDROOT
BRANCH   1   2
ATOM      2  C   UNL     1       3.205   3.451  19.914  0.00  0.00    +0.000 A 
ATOM      3  C   UNL     1       2.036   2.714  19.685  0.00  0.00    +0.000 A 
ATOM      4  C   UNL     1       0.786   3.281  19.935  0.00  0.00    +0.000 A 
ATOM      5  C   UNL     1       0.693   4.605  20.369  0.00  0.00    +0.000 A 
ATOM      6  C   UNL     1       1.849   5.353  20.577  0.00  0.00    +0.000 A 
ATOM      7  C   UNL     1       3.101   4.752  20.420  0.00  0.00    +0.000 A 
BRANCH   6   8
ATOM      8  O   UNL     1       1.684   6.672  20.941  0.00  0.00    +0.000 OA
BRANCH   8   9
ATOM      9  C   UNL     1       1.740   7.644  19.964  0.00  0.00    +0.000 A 
ATOM     10  C   UNL     1       1.153   8.910  20.079  0.00  0.00    +0.000 A 
ATOM     11  C   UNL     1       1.189   9.802  19.009  0.00  0.00    +0.000 A 
ATOM     12  C   UNL     1       1.874   9.463  17.845  0.00  0.00    +0.000 A 
ATOM     13  C   UNL     1       2.530   8.234  17.755  0.00  0.00    +0.000 A 
ATOM     14  C   UNL     1       2.461   7.324  18.812  0.00  0.00    +0.000 A 
ENDBRANCH   8   9
ENDBRANCH   6   8
ENDBRANCH   1   2
BRANCH   1  16
ATOM     15  O   UNL     1       6.235   4.458  18.898  0.00  0.00    +0.000 OA
ATOM     16  C   UNL     1       5.360   3.687  18.502  0.00  0.00    +0.000 C 
ATOM     17  N   UNL     1       5.042   3.483  17.168  0.00  0.00    +0.000 N 
ATOM     18  H   UNL     1       4.184   2.979  16.967  0.00  0.00    +0.000 HD
BRANCH  17  19
ATOM     19  C   UNL     1       5.752   3.971  16.048  0.00  0.00    +0.000 A 
ATOM     20  C   UNL     1       6.895   4.776  16.155  0.00  0.00    +0.000 A 
ATOM     21  C   UNL     1       7.584   5.202  15.014  0.00  0.00    +0.000 A 
ATOM     22  C   UNL     1       7.129   4.830  13.759  0.00  0.00    +0.000 A 
ATOM     23  F   UNL     1       7.791   5.240  12.668  0.00  0.00    +0.000 F 
ATOM     24  C   UNL     1       5.999   4.033  13.638  0.00  0.00    +0.000 A 
ATOM     25  F   UNL     1       5.554   3.677  12.425  0.00  0.00    +0.000 F 
ATOM     26  C   UNL     1       5.312   3.594  14.773  0.00  0.00    +0.000 A 
ENDBRANCH  17  19
ENDBRANCH   1  16
TORSDOF 5
ENDMDL
