MODEL 1
REMARK VINA RESULT:      -8.0      0.000      0.000
REMARK  Name = 
REMARK  4 active torsions:
REMARK  status: ('A' for Active; 'I' for Inactive)
REMARK    1  A    between atoms: C_1  and  N_2
REMARK    2  A    between atoms: C_5  and  N_6
REMARK    3  A    between atoms: C_7  and  C_9
REMARK    4  A    between atoms: C_17  and  C_18
REMARK                            x       y       z     vdW  Elec       q    Type
REMARK                         _______ _______ _______ _____ _____    ______ ____
ROOT
ATOM      1  C   UNL     1       2.304  13.714  18.041  0.00  0.00    +0.000 C 
ATOM      2  N   UNL     1       1.437  12.801  18.780  0.00  0.00    +0.000 N 
ATOM      3  C   UNL     1       1.640  11.428  18.608  0.00  0.00    +0.000 C 
ATOM      4  O   UNL     1       2.530  10.981  17.870  0.00  0.00    +0.000 OA
ATOM      5  C   UNL     1       0.718  10.469  19.409  0.00  0.00    +0.000 C 
ATOM      6  N   UNL     1      -0.603  10.529  18.811  0.00  0.00    +0.000 NA
ATOM      7  C   UNL     1      -1.313  11.593  18.984  0.00  0.00    +0.000 C 
ATOM      8  C   UNL     1      -0.867  12.788  19.767  0.00  0.00    +0.000 A 
ATOM      9  C   UNL     1      -1.812  13.395  20.618  0.00  0.00    +0.000 A 
ATOM     10  C   UNL     1      -1.524  14.589  21.275  0.00  0.00    +0.000 A 
ATOM     11  C   UNL     1      -0.277  15.174  21.111  0.00  0.00    +0.000 A 
ATOM     12  C   UNL     1       0.674  14.568  20.286  0.00  0.00    +0.000 A 
ATOM     13  C   UNL     1       0.410  13.362  19.605  0.00  0.00    +0.000 A 
ENDROOT
BRANCH   7  14
ATOM     14  C   UNL     1      -2.674  11.590  18.361  0.00  0.00    +0.000 A 
ATOM     15  C   UNL     1      -3.777  11.940  19.159  0.00  0.00    +0.000 A 
ATOM     16  C   UNL     1      -5.063  11.948  18.618  0.00  0.00    +0.000 A 
ATOM     17  C   UNL     1      -5.263  11.610  17.281  0.00  0.00    +0.000 A 
ATOM     18  C   UNL     1      -4.172  11.250  16.484  0.00  0.00    +0.000 A 
ATOM     19  C   UNL     1      -2.893  11.232  17.029  0.00  0.00    +0.000 A 
ATOM     20  F   UNL     1      -1.881  10.852  16.234  0.00  0.00    +0.000 F 
ENDBRANCH   7  14
BRANCH   5  21
ATOM     21  N   UNL     1       1.201   9.121  19.203  0.00  0.00    +0.000 N 
ATOM     22  C   UNL     1       1.579   8.287  20.219  0.00  0.00    +0.000 C 
ATOM     23  O   UNL     1       1.551   8.590  21.406  0.00  0.00    +0.000 OA
ATOM     24  H   UNL     1       1.112   8.786  18.255  0.00  0.00    +0.000 HD
BRANCH  22  25
ATOM     25  C   UNL     1       2.040   6.929  19.805  0.00  0.00    +0.000 A 
ATOM     26  C   UNL     1       1.841   5.807  20.621  0.00  0.00    +0.000 A 
ATOM     27  C   UNL     1       2.284   4.548  20.204  0.00  0.00    +0.000 A 
ATOM     28  C   UNL     1       2.921   4.408  18.971  0.00  0.00    +0.000 A 
ATOM     29 CL   UNL     1       3.479   2.860  18.468  0.00  0.00    +0.000 Cl
ATOM     30  C   UNL     1       3.104   5.516  18.143  0.00  0.00    +0.000 A 
ATOM     31  C   UNL     1       2.659   6.774  18.556  0.00  0.00    +0.000 A 
ENDBRANCH  22  25
ENDBRANCH   5  21
TORSDOF 3
ENDMDL
MODEL 2
REMARK VINA RESULT:      -8.0      2.464      4.660
REMARK  Name = 
REMARK  4 active torsions:
REMARK  status: ('A' for Active; 'I' for Inactive)
REMARK    1  A    between atoms: C_1  and  N_2
REMARK    2  A    between atoms: C_5  and  N_6
REMARK    3  A    between atoms: C_7  and  C_9
REMARK    4  A    between atoms: C_17  and  C_18
REMARK                            x       y       z     vdW  Elec       q    Type
REMARK                         _______ _______ _______ _____ _____    ______ ____
ROOT
ATOM      1  C   UNL     1      -0.782  10.375  23.355  0.00  0.00    +0.000 C 
ATOM      2  N   UNL     1      -0.436  10.593  21.953  0.00  0.00    +0.000 N 
ATOM      3  C   UNL     1       0.386   9.648  21.331  0.00  0.00    +0.000 C 
ATOM      4  O   UNL     1       0.807   8.646  21.927  0.00  0.00    +0.000 OA
ATOM      5  C   UNL     1       0.736   9.888  19.837  0.00  0.00    +0.000 C 
ATOM      6  N   UNL     1       1.665  11.001  19.776  0.00  0.00    +0.000 NA
ATOM      7  C   UNL     1       1.223  12.190  20.015  0.00  0.00    +0.000 C 
ATOM      8  C   UNL     1      -0.198  12.509  20.356  0.00  0.00    +0.000 A 
ATOM      9  C   UNL     1      -0.768  13.650  19.755  0.00  0.00    +0.000 A 
ATOM     10  C   UNL     1      -2.035  14.098  20.122  0.00  0.00    +0.000 A 
ATOM     11  C   UNL     1      -2.758  13.393  21.073  0.00  0.00    +0.000 A 
ATOM     12  C   UNL     1      -2.210  12.249  21.660  0.00  0.00    +0.000 A 
ATOM     13  C   UNL     1      -0.929  11.774  21.311  0.00  0.00    +0.000 A 
ENDROOT
BRANCH   7  14
ATOM     14  C   UNL     1       2.223  13.299  19.919  0.00  0.00    +0.000 A 
ATOM     15  C   UNL     1       2.640  13.929  21.105  0.00  0.00    +0.000 A 
ATOM     16  C   UNL     1       3.570  14.969  21.060  0.00  0.00    +0.000 A 
ATOM     17  C   UNL     1       4.092  15.389  19.839  0.00  0.00    +0.000 A 
ATOM     18  C   UNL     1       3.675  14.775  18.655  0.00  0.00    +0.000 A 
ATOM     19  C   UNL     1       2.740  13.747  18.701  0.00  0.00    +0.000 A 
ATOM     20  F   UNL     1       2.347  13.207  17.537  0.00  0.00    +0.000 F 
ENDBRANCH   7  14
BRANCH   5  21
ATOM     21  N   UNL     1       1.455   8.726  19.364  0.00  0.00    +0.000 N 
ATOM     22  C   UNL     1       2.073   8.660  18.145  0.00  0.00    +0.000 C 
ATOM     23  O   UNL     1       2.082   9.573  17.326  0.00  0.00    +0.000 OA
ATOM     24  H   UNL     1       1.588   8.005  20.058  0.00  0.00    +0.000 HD
BRANCH  22  25
ATOM     25  C   UNL     1       2.774   7.378  17.842  0.00  0.00    +0.000 A 
ATOM     26  C   UNL     1       4.029   7.358  17.217  0.00  0.00    +0.000 A 
ATOM     27  C   UNL     1       4.660   6.140  16.947  0.00  0.00    +0.000 A 
ATOM     28  C   UNL     1       4.042   4.942  17.306  0.00  0.00    +0.000 A 
ATOM     29 CL   UNL     1       4.815   3.445  16.958  0.00  0.00    +0.000 Cl
ATOM     30  C   UNL     1       2.803   4.953  17.947  0.00  0.00    +0.000 A 
ATOM     31  C   UNL     1       2.173   6.170  18.221  0.00  0.00    +0.000 A 
ENDBRANCH  22  25
ENDBRANCH   5  21
TORSDOF 3
ENDMDL
MODEL 3
REMARK VINA RESULT:      -7.9      0.979      1.170
REMARK  Name = 
REMARK  4 active torsions:
REMARK  status: ('A' for Active; 'I' for Inactive)
REMARK    1  A    between atoms: C_1  and  N_2
REMARK    2  A    between atoms: C_5  and  N_6
REMARK    3  A    between atoms: C_7  and  C_9
REMARK    4  A    between atoms: C_17  and  C_18
REMARK                            x       y       z     vdW  Elec       q    Type
REMARK                         _______ _______ _______ _____ _____    ______ ____
ROOT
ATOM      1  C   UNL     1       1.846  14.247  19.032  0.00  0.00    +0.000 C 
ATOM      2  N   UNL     1       1.119  13.034  19.396  0.00  0.00    +0.000 N 
ATOM      3  C   UNL     1       1.560  11.823  18.853  0.00  0.00    +0.000 C 
ATOM      4  O   UNL     1       2.540  11.758  18.097  0.00  0.00    +0.000 OA
ATOM      5  C   UNL     1       0.783  10.540  19.258  0.00  0.00    +0.000 C 
ATOM      6  N   UNL     1      -0.504  10.576  18.590  0.00  0.00    +0.000 NA
ATOM      7  C   UNL     1      -1.391  11.420  19.001  0.00  0.00    +0.000 C 
ATOM      8  C   UNL     1      -1.185  12.377  20.131  0.00  0.00    +0.000 A 
ATOM      9  C   UNL     1      -2.252  12.551  21.036  0.00  0.00    +0.000 A 
ATOM     10  C   UNL     1      -2.198  13.523  22.033  0.00  0.00    +0.000 A 
ATOM     11  C   UNL     1      -1.063  14.311  22.155  0.00  0.00    +0.000 A 
ATOM     12  C   UNL     1       0.009  14.132  21.276  0.00  0.00    +0.000 A 
ATOM     13  C   UNL     1      -0.019  13.160  20.256  0.00  0.00    +0.000 A 
ENDROOT
BRANCH   7  14
ATOM     14  C   UNL     1      -2.706  11.398  18.286  0.00  0.00    +0.000 A 
ATOM     15  C   UNL     1      -3.840  11.891  18.956  0.00  0.00    +0.000 A 
ATOM     16  C   UNL     1      -5.086  11.887  18.327  0.00  0.00    +0.000 A 
ATOM     17  C   UNL     1      -5.214  11.396  17.030  0.00  0.00    +0.000 A 
ATOM     18  C   UNL     1      -4.094  10.895  16.361  0.00  0.00    +0.000 A 
ATOM     19  C   UNL     1      -2.855  10.889  16.994  0.00  0.00    +0.000 A 
ATOM     20  F   UNL     1      -1.814  10.371  16.325  0.00  0.00    +0.000 F 
ENDBRANCH   7  14
BRANCH   5  21
ATOM     21  N   UNL     1       1.497   9.406  18.713  0.00  0.00    +0.000 N 
ATOM     22  C   UNL     1       1.832   8.299  19.444  0.00  0.00    +0.000 C 
ATOM     23  O   UNL     1       1.567   8.150  20.631  0.00  0.00    +0.000 OA
ATOM     24  H   UNL     1       1.614   9.427  17.711  0.00  0.00    +0.000 HD
BRANCH  22  25
ATOM     25  C   UNL     1       2.558   7.227  18.700  0.00  0.00    +0.000 A 
ATOM     26  C   UNL     1       2.317   5.870  18.949  0.00  0.00    +0.000 A 
ATOM     27  C   UNL     1       3.014   4.889  18.235  0.00  0.00    +0.000 A 
ATOM     28  C   UNL     1       3.947   5.265  17.269  0.00  0.00    +0.000 A 
ATOM     29 CL   UNL     1       4.814   4.057  16.403  0.00  0.00    +0.000 Cl
ATOM     30  C   UNL     1       4.178   6.614  16.999  0.00  0.00    +0.000 A 
ATOM     31  C   UNL     1       3.480   7.595  17.710  0.00  0.00    +0.000 A 
ENDBRANCH  22  25
ENDBRANCH   5  21
TORSDOF 3
ENDMDL
MODEL 4
REMARK VINA RESULT:      -7.8      2.616      4.764
REMARK  Name = 
REMARK  4 active torsions:
REMARK  status: ('A' for Active; 'I' for Inactive)
REMARK    1  A    between atoms: C_1  and  N_2
REMARK    2  A    between atoms: C_5  and  N_6
REMARK    3  A    between atoms: C_7  and  C_9
REMARK    4  A    between atoms: C_17  and  C_18
REMARK                            x       y       z     vdW  Elec       q    Type
REMARK                         _______ _______ _______ _____ _____    ______ ____
ROOT
ATOM      1  C   UNL     1      -0.561  10.255  23.390  0.00  0.00    +0.000 C 
ATOM      2  N   UNL     1      -0.320  10.451  21.964  0.00  0.00    +0.000 N 
ATOM      3  C   UNL     1       0.512   9.536  21.312  0.00  0.00    +0.000 C 
ATOM      4  O   UNL     1       1.028   8.576  21.904  0.00  0.00    +0.000 OA
ATOM      5  C   UNL     1       0.751   9.751  19.792  0.00  0.00    +0.000 C 
ATOM      6  N   UNL     1       1.609  10.911  19.643  0.00  0.00    +0.000 NA
ATOM      7  C   UNL     1       1.116  12.081  19.880  0.00  0.00    +0.000 C 
ATOM      8  C   UNL     1      -0.295  12.331  20.307  0.00  0.00    +0.000 A 
ATOM      9  C   UNL     1      -0.967  13.421  19.716  0.00  0.00    +0.000 A 
ATOM     10  C   UNL     1      -2.231  13.808  20.156  0.00  0.00    +0.000 A 
ATOM     11  C   UNL     1      -2.850  13.093  21.170  0.00  0.00    +0.000 A 
ATOM     12  C   UNL     1      -2.201  11.998  21.747  0.00  0.00    +0.000 A 
ATOM     13  C   UNL     1      -0.920  11.584  21.326  0.00  0.00    +0.000 A 
ENDROOT
BRANCH   7  14
ATOM     14  C   UNL     1       2.043  13.240  19.690  0.00  0.00    +0.000 A 
ATOM     15  C   UNL     1       2.703  13.375  18.455  0.00  0.00    +0.000 A 
ATOM     16  C   UNL     1       3.577  14.440  18.237  0.00  0.00    +0.000 A 
ATOM     17  C   UNL     1       3.801  15.380  19.241  0.00  0.00    +0.000 A 
ATOM     18  C   UNL     1       3.157  15.248  20.474  0.00  0.00    +0.000 A 
ATOM     19  C   UNL     1       2.295  14.179  20.693  0.00  0.00    +0.000 A 
ATOM     20  F   UNL     1       1.722  14.076  21.903  0.00  0.00    +0.000 F 
ENDBRANCH   7  14
BRANCH   5  21
ATOM     21  N   UNL     1       1.503   8.617  19.302  0.00  0.00    +0.000 N 
ATOM     22  C   UNL     1       2.143   8.597  18.093  0.00  0.00    +0.000 C 
ATOM     23  O   UNL     1       2.146   9.531  17.299  0.00  0.00    +0.000 OA
ATOM     24  H   UNL     1       1.639   7.881  19.980  0.00  0.00    +0.000 HD
BRANCH  22  25
ATOM     25  C   UNL     1       2.877   7.339  17.769  0.00  0.00    +0.000 A 
ATOM     26  C   UNL     1       4.112   7.360  17.107  0.00  0.00    +0.000 A 
ATOM     27  C   UNL     1       4.775   6.162  16.819  0.00  0.00    +0.000 A 
ATOM     28  C   UNL     1       4.207   4.946  17.196  0.00  0.00    +0.000 A 
ATOM     29 CL   UNL     1       5.019   3.474  16.825  0.00  0.00    +0.000 Cl
ATOM     30  C   UNL     1       2.989   4.916  17.874  0.00  0.00    +0.000 A 
ATOM     31  C   UNL     1       2.327   6.111  18.166  0.00  0.00    +0.000 A 
ENDBRANCH  22  25
ENDBRANCH   5  21
TORSDOF 3
ENDMDL
MODEL 5
REMARK VINA RESULT:      -7.8      7.004     10.613
REMARK  Name = 
REMARK  4 active torsions:
REMARK  status: ('A' for Active; 'I' for Inactive)
REMARK    1  A    between atoms: C_1  and  N_2
REMARK    2  A    between atoms: C_5  and  N_6
REMARK    3  A    between atoms: C_7  and  C_9
REMARK    4  A    between atoms: C_17  and  C_18
REMARK                            x       y       z     vdW  Elec       q    Type
REMARK                         _______ _______ _______ _____ _____    ______ ____
ROOT
ATOM      1  C   UNL     1       7.810  18.215  21.235  0.00  0.00    +0.000 C 
ATOM      2  N   UNL     1       7.624  17.309  20.105  0.00  0.00    +0.000 N 
ATOM      3  C   UNL     1       6.495  16.484  20.111  0.00  0.00    +0.000 C 
ATOM      4  O   UNL     1       5.662  16.514  21.029  0.00  0.00    +0.000 OA
ATOM      5  C   UNL     1       6.305  15.534  18.897  0.00  0.00    +0.000 C 
ATOM      6  N   UNL     1       7.297  14.480  19.005  0.00  0.00    +0.000 NA
ATOM      7  C   UNL     1       8.534  14.768  18.773  0.00  0.00    +0.000 C 
ATOM      8  C   UNL     1       9.027  16.130  18.397  0.00  0.00    +0.000 A 
ATOM      9  C   UNL     1      10.003  16.208  17.382  0.00  0.00    +0.000 A 
ATOM     10  C   UNL     1      10.616  17.419  17.067  0.00  0.00    +0.000 A 
ATOM     11  C   UNL     1      10.240  18.569  17.743  0.00  0.00    +0.000 A 
ATOM     12  C   UNL     1       9.258  18.506  18.737  0.00  0.00    +0.000 A 
ATOM     13  C   UNL     1       8.623  17.295  19.079  0.00  0.00    +0.000 A 
ENDROOT
BRANCH   7  14
ATOM     14  C   UNL     1       9.508  13.637  18.880  0.00  0.00    +0.000 A 
ATOM     15  C   UNL     1       9.545  12.685  17.845  0.00  0.00    +0.000 A 
ATOM     16  C   UNL     1      10.437  11.614  17.906  0.00  0.00    +0.000 A 
ATOM     17  C   UNL     1      11.298  11.481  18.992  0.00  0.00    +0.000 A 
ATOM     18  C   UNL     1      11.261  12.417  20.030  0.00  0.00    +0.000 A 
ATOM     19  C   UNL     1      10.363  13.478  19.972  0.00  0.00    +0.000 A 
ATOM     20  F   UNL     1      10.342  14.335  21.004  0.00  0.00    +0.000 F 
ENDBRANCH   7  14
BRANCH   5  21
ATOM     21  N   UNL     1       5.013  14.898  19.037  0.00  0.00    +0.000 N 
ATOM     22  C   UNL     1       3.996  15.043  18.134  0.00  0.00    +0.000 C 
ATOM     23  O   UNL     1       4.067  15.724  17.118  0.00  0.00    +0.000 OA
ATOM     24  H   UNL     1       4.958  14.223  19.785  0.00  0.00    +0.000 HD
BRANCH  22  25
ATOM     25  C   UNL     1       2.741  14.298  18.447  0.00  0.00    +0.000 A 
ATOM     26  C   UNL     1       1.577  14.961  18.857  0.00  0.00    +0.000 A 
ATOM     27  C   UNL     1       0.417  14.234  19.143  0.00  0.00    +0.000 A 
ATOM     28  C   UNL     1       0.418  12.845  19.014  0.00  0.00    +0.000 A 
ATOM     29 CL   UNL     1      -1.006  11.952  19.381  0.00  0.00    +0.000 Cl
ATOM     30  C   UNL     1       1.566  12.178  18.586  0.00  0.00    +0.000 A 
ATOM     31  C   UNL     1       2.725  12.904  18.297  0.00  0.00    +0.000 A 
ENDBRANCH  22  25
ENDBRANCH   5  21
TORSDOF 3
ENDMDL
MODEL 6
REMARK VINA RESULT:      -7.7      3.457      6.188
REMARK  Name = 
REMARK  4 active torsions:
REMARK  status: ('A' for Active; 'I' for Inactive)
REMARK    1  A    between atoms: C_1  and  N_2
REMARK    2  A    between atoms: C_5  and  N_6
REMARK    3  A    between atoms: C_7  and  C_9
REMARK    4  A    between atoms: C_17  and  C_18
REMARK                            x       y       z     vdW  Elec       q    Type
REMARK                         _______ _______ _______ _____ _____    ______ ____
ROOT
ATOM      1  C   UNL     1      -1.499  15.751  21.020  0.00  0.00    +0.000 C 
ATOM      2  N   UNL     1      -0.492  15.373  20.032  0.00  0.00    +0.000 N 
ATOM      3  C   UNL     1       0.069  14.096  20.130  0.00  0.00    +0.000 C 
ATOM      4  O   UNL     1      -0.273  13.292  21.009  0.00  0.00    +0.000 OA
ATOM      5  C   UNL     1       1.131  13.705  19.066  0.00  0.00    +0.000 C 
ATOM      6  N   UNL     1       2.340  14.453  19.356  0.00  0.00    +0.000 NA
ATOM      7  C   UNL     1       2.354  15.722  19.117  0.00  0.00    +0.000 C 
ATOM      8  C   UNL     1       1.198  16.489  18.557  0.00  0.00    +0.000 A 
ATOM      9  C   UNL     1       1.480  17.454  17.569  0.00  0.00    +0.000 A 
ATOM     10  C   UNL     1       0.485  18.307  17.095  0.00  0.00    +0.000 A 
ATOM     11  C   UNL     1      -0.807  18.185  17.582  0.00  0.00    +0.000 A 
ATOM     12  C   UNL     1      -1.101  17.216  18.546  0.00  0.00    +0.000 A 
ATOM     13  C   UNL     1      -0.115  16.342  19.047  0.00  0.00    +0.000 A 
ENDROOT
BRANCH   7  14
ATOM     14  C   UNL     1       3.634  16.437  19.418  0.00  0.00    +0.000 A 
ATOM     15  C   UNL     1       3.672  17.305  20.524  0.00  0.00    +0.000 A 
ATOM     16  C   UNL     1       4.845  17.993  20.838  0.00  0.00    +0.000 A 
ATOM     17  C   UNL     1       5.987  17.822  20.059  0.00  0.00    +0.000 A 
ATOM     18  C   UNL     1       5.954  16.969  18.952  0.00  0.00    +0.000 A 
ATOM     19  C   UNL     1       4.781  16.294  18.634  0.00  0.00    +0.000 A 
ATOM     20  F   UNL     1       4.788  15.508  17.546  0.00  0.00    +0.000 F 
ENDBRANCH   7  14
BRANCH   5  21
ATOM     21  N   UNL     1       1.454  12.309  19.263  0.00  0.00    +0.000 N 
ATOM     22  C   UNL     1       0.670  11.279  18.821  0.00  0.00    +0.000 C 
ATOM     23  O   UNL     1      -0.386  11.427  18.216  0.00  0.00    +0.000 OA
ATOM     24  H   UNL     1       2.378  12.142  19.634  0.00  0.00    +0.000 HD
BRANCH  22  25
ATOM     25  C   UNL     1       1.179   9.906  19.110  0.00  0.00    +0.000 A 
ATOM     26  C   UNL     1       1.001   9.307  20.365  0.00  0.00    +0.000 A 
ATOM     27  C   UNL     1       1.489   8.019  20.604  0.00  0.00    +0.000 A 
ATOM     28  C   UNL     1       2.151   7.327  19.590  0.00  0.00    +0.000 A 
ATOM     29 CL   UNL     1       2.765   5.748  19.893  0.00  0.00    +0.000 Cl
ATOM     30  C   UNL     1       2.315   7.907  18.332  0.00  0.00    +0.000 A 
ATOM     31  C   UNL     1       1.823   9.193  18.090  0.00  0.00    +0.000 A 
ENDBRANCH  22  25
ENDBRANCH   5  21
TORSDOF 3
ENDMDL
MODEL 7
REMARK VINA RESULT:      -7.6      3.403      6.296
REMARK  Name = 
REMARK  4 active torsions:
REMARK  status: ('A' for Active; 'I' for Inactive)
REMARK    1  A    between atoms: C_1  and  N_2
REMARK    2  A    between atoms: C_5  and  N_6
REMARK    3  A    between atoms: C_7  and  C_9
REMARK    4  A    between atoms: C_17  and  C_18
REMARK                            x       y       z     vdW  Elec       q    Type
REMARK                         _______ _______ _______ _____ _____    ______ ____
ROOT
ATOM      1  C   UNL     1      -0.745  15.840  21.205  0.00  0.00    +0.000 C 
ATOM      2  N   UNL     1       0.125  15.353  20.139  0.00  0.00    +0.000 N 
ATOM      3  C   UNL     1       0.591  14.038  20.228  0.00  0.00    +0.000 C 
ATOM      4  O   UNL     1       0.276  13.290  21.166  0.00  0.00    +0.000 OA
ATOM      5  C   UNL     1       1.507  13.530  19.081  0.00  0.00    +0.000 C 
ATOM      6  N   UNL     1       2.794  14.185  19.225  0.00  0.00    +0.000 NA
ATOM      7  C   UNL     1       2.884  15.441  18.940  0.00  0.00    +0.000 C 
ATOM      8  C   UNL     1       1.743  16.284  18.467  0.00  0.00    +0.000 A 
ATOM      9  C   UNL     1       1.999  17.194  17.421  0.00  0.00    +0.000 A 
ATOM     10  C   UNL     1       1.033  18.112  17.016  0.00  0.00    +0.000 A 
ATOM     11  C   UNL     1      -0.210  18.110  17.630  0.00  0.00    +0.000 A 
ATOM     12  C   UNL     1      -0.481  17.196  18.653  0.00  0.00    +0.000 A 
ATOM     13  C   UNL     1       0.477  16.259  19.088  0.00  0.00    +0.000 A 
ENDROOT
BRANCH   7  14
ATOM     14  C   UNL     1       4.241  16.057  19.088  0.00  0.00    +0.000 A 
ATOM     15  C   UNL     1       4.403  17.105  20.012  0.00  0.00    +0.000 A 
ATOM     16  C   UNL     1       5.649  17.708  20.180  0.00  0.00    +0.000 A 
ATOM     17  C   UNL     1       6.744  17.274  19.435  0.00  0.00    +0.000 A 
ATOM     18  C   UNL     1       6.589  16.240  18.508  0.00  0.00    +0.000 A 
ATOM     19  C   UNL     1       5.342  15.648  18.333  0.00  0.00    +0.000 A 
ATOM     20  F   UNL     1       5.234  14.680  17.411  0.00  0.00    +0.000 F 
ENDBRANCH   7  14
BRANCH   5  21
ATOM     21  N   UNL     1       1.737  12.119  19.297  0.00  0.00    +0.000 N 
ATOM     22  C   UNL     1       0.885  11.137  18.870  0.00  0.00    +0.000 C 
ATOM     23  O   UNL     1      -0.160  11.347  18.264  0.00  0.00    +0.000 OA
ATOM     24  H   UNL     1       2.649  11.896  19.669  0.00  0.00    +0.000 HD
BRANCH  22  25
ATOM     25  C   UNL     1       1.303   9.738  19.177  0.00  0.00    +0.000 A 
ATOM     26  C   UNL     1       1.968   8.946  18.231  0.00  0.00    +0.000 A 
ATOM     27  C   UNL     1       2.347   7.638  18.551  0.00  0.00    +0.000 A 
ATOM     28  C   UNL     1       2.066   7.123  19.816  0.00  0.00    +0.000 A 
ATOM     29 CL   UNL     1       2.519   5.508  20.200  0.00  0.00    +0.000 Cl
ATOM     30  C   UNL     1       1.423   7.911  20.771  0.00  0.00    +0.000 A 
ATOM     31  C   UNL     1       1.048   9.219  20.455  0.00  0.00    +0.000 A 
ENDBRANCH  22  25
ENDBRANCH   5  21
TORSDOF 3
ENDMDL
MODEL 8
REMARK VINA RESULT:      -7.5      3.657      6.501
REMARK  Name = 
REMARK  4 active torsions:
REMARK  status: ('A' for Active; 'I' for Inactive)
REMARK    1  A    between atoms: C_1  and  N_2
REMARK    2  A    between atoms: C_5  and  N_6
REMARK    3  A    between atoms: C_7  and  C_9
REMARK    4  A    between atoms: C_17  and  C_18
REMARK                            x       y       z     vdW  Elec       q    Type
REMARK                         _______ _______ _______ _____ _____    ______ ____
ROOT
ATOM      1  C   UNL     1      -1.264  16.006  20.887  0.00  0.00    +0.000 C 
ATOM      2  N   UNL     1      -0.271  15.560  19.915  0.00  0.00    +0.000 N 
ATOM      3  C   UNL     1       0.232  14.262  20.047  0.00  0.00    +0.000 C 
ATOM      4  O   UNL     1      -0.149  13.496  20.944  0.00  0.00    +0.000 OA
ATOM      5  C   UNL     1       1.280  13.797  18.999  0.00  0.00    +0.000 C 
ATOM      6  N   UNL     1       2.520  14.498  19.277  0.00  0.00    +0.000 NA
ATOM      7  C   UNL     1       2.592  15.759  19.007  0.00  0.00    +0.000 C 
ATOM      8  C   UNL     1       1.475  16.562  18.422  0.00  0.00    +0.000 A 
ATOM      9  C   UNL     1       1.803  17.489  17.412  0.00  0.00    +0.000 A 
ATOM     10  C   UNL     1       0.850  18.374  16.911  0.00  0.00    +0.000 A 
ATOM     11  C   UNL     1      -0.449  18.321  17.394  0.00  0.00    +0.000 A 
ATOM     12  C   UNL     1      -0.790  17.390  18.380  0.00  0.00    +0.000 A 
ATOM     13  C   UNL     1       0.154  16.486  18.908  0.00  0.00    +0.000 A 
ENDROOT
BRANCH   7  14
ATOM     14  C   UNL     1       3.902  16.423  19.297  0.00  0.00    +0.000 A 
ATOM     15  C   UNL     1       5.025  16.050  18.538  0.00  0.00    +0.000 A 
ATOM     16  C   UNL     1       6.265  16.643  18.777  0.00  0.00    +0.000 A 
ATOM     17  C   UNL     1       6.398  17.612  19.769  0.00  0.00    +0.000 A 
ATOM     18  C   UNL     1       5.289  17.981  20.535  0.00  0.00    +0.000 A 
ATOM     19  C   UNL     1       4.057  17.380  20.303  0.00  0.00    +0.000 A 
ATOM     20  F   UNL     1       3.027  17.745  21.082  0.00  0.00    +0.000 F 
ENDBRANCH   7  14
BRANCH   5  21
ATOM     21  N   UNL     1       1.541  12.394  19.232  0.00  0.00    +0.000 N 
ATOM     22  C   UNL     1       0.712  11.389  18.814  0.00  0.00    +0.000 C 
ATOM     23  O   UNL     1      -0.336  11.569  18.202  0.00  0.00    +0.000 OA
ATOM     24  H   UNL     1       2.455  12.195  19.610  0.00  0.00    +0.000 HD
BRANCH  22  25
ATOM     25  C   UNL     1       1.158  10.003  19.140  0.00  0.00    +0.000 A 
ATOM     26  C   UNL     1       1.822   9.206  18.198  0.00  0.00    +0.000 A 
ATOM     27  C   UNL     1       2.228   7.910  18.534  0.00  0.00    +0.000 A 
ATOM     28  C   UNL     1       1.976   7.414  19.813  0.00  0.00    +0.000 A 
ATOM     29 CL   UNL     1       2.463   5.814  20.219  0.00  0.00    +0.000 Cl
ATOM     30  C   UNL     1       1.335   8.207  20.764  0.00  0.00    +0.000 A 
ATOM     31  C   UNL     1       0.932   9.503  20.430  0.00  0.00    +0.000 A 
ENDBRANCH  22  25
ENDBRANCH   5  21
TORSDOF 3
ENDMDL
MODEL 9
REMARK VINA RESULT:      -7.4      0.907      1.536
REMARK  Name = 
REMARK  4 active torsions:
REMARK  status: ('A' for Active; 'I' for Inactive)
REMARK    1  A    between atoms: C_1  and  N_2
REMARK    2  A    between atoms: C_5  and  N_6
REMARK    3  A    between atoms: C_7  and  C_9
REMARK    4  A    between atoms: C_17  and  C_18
REMARK                            x       y       z     vdW  Elec       q    Type
REMARK                         _______ _______ _______ _____ _____    ______ ____
ROOT
ATOM      1  C   UNL     1       2.564  13.497  17.884  0.00  0.00    +0.000 C 
ATOM      2  N   UNL     1       1.641  12.645  18.629  0.00  0.00    +0.000 N 
ATOM      3  C   UNL     1       1.828  11.261  18.554  0.00  0.00    +0.000 C 
ATOM      4  O   UNL     1       2.748  10.756  17.894  0.00  0.00    +0.000 OA
ATOM      5  C   UNL     1       0.846  10.368  19.359  0.00  0.00    +0.000 C 
ATOM      6  N   UNL     1      -0.439  10.411  18.687  0.00  0.00    +0.000 NA
ATOM      7  C   UNL     1      -1.137  11.495  18.755  0.00  0.00    +0.000 C 
ATOM      8  C   UNL     1      -0.712  12.729  19.486  0.00  0.00    +0.000 A 
ATOM      9  C   UNL     1      -1.690  13.402  20.246  0.00  0.00    +0.000 A 
ATOM     10  C   UNL     1      -1.416  14.631  20.843  0.00  0.00    +0.000 A 
ATOM     11  C   UNL     1      -0.152  15.185  20.712  0.00  0.00    +0.000 A 
ATOM     12  C   UNL     1       0.832  14.515  19.979  0.00  0.00    +0.000 A 
ATOM     13  C   UNL     1       0.583  13.273  19.361  0.00  0.00    +0.000 A 
ENDROOT
BRANCH   7  14
ATOM     14  C   UNL     1      -2.462  11.474  18.059  0.00  0.00    +0.000 A 
ATOM     15  C   UNL     1      -2.483  11.279  16.666  0.00  0.00    +0.000 A 
ATOM     16  C   UNL     1      -3.697  11.254  15.978  0.00  0.00    +0.000 A 
ATOM     17  C   UNL     1      -4.896  11.420  16.666  0.00  0.00    +0.000 A 
ATOM     18  C   UNL     1      -4.883  11.625  18.048  0.00  0.00    +0.000 A 
ATOM     19  C   UNL     1      -3.672  11.661  18.731  0.00  0.00    +0.000 A 
ATOM     20  F   UNL     1      -3.706  11.889  20.053  0.00  0.00    +0.000 F 
ENDBRANCH   7  14
BRANCH   5  21
ATOM     21  N   UNL     1       1.315   9.003  19.263  0.00  0.00    +0.000 N 
ATOM     22  C   UNL     1       1.568   8.210  20.348  0.00  0.00    +0.000 C 
ATOM     23  O   UNL     1       1.427   8.568  21.512  0.00  0.00    +0.000 OA
ATOM     24  H   UNL     1       1.313   8.626  18.326  0.00  0.00    +0.000 HD
BRANCH  22  25
ATOM     25  C   UNL     1       2.034   6.825  20.043  0.00  0.00    +0.000 A 
ATOM     26  C   UNL     1       2.824   6.548  18.919  0.00  0.00    +0.000 A 
ATOM     27  C   UNL     1       3.246   5.240  18.662  0.00  0.00    +0.000 A 
ATOM     28  C   UNL     1       2.884   4.210  19.530  0.00  0.00    +0.000 A 
ATOM     29 CL   UNL     1       3.392   2.599  19.202  0.00  0.00    +0.000 Cl
ATOM     30  C   UNL     1       2.116   4.479  20.663  0.00  0.00    +0.000 A 
ATOM     31  C   UNL     1       1.697   5.787  20.923  0.00  0.00    +0.000 A 
ENDBRANCH  22  25
ENDBRANCH   5  21
TORSDOF 3
ENDMDL
