MODEL 1
REMARK VINA RESULT:      -7.7      0.000      0.000
REMARK  Name = 
REMARK  9 active torsions:
REMARK  status: ('A' for Active; 'I' for Inactive)
REMARK    1  A    between atoms: C_1  and  N_2
REMARK    2  A    between atoms: N_2  and  C_3
REMARK    3  A    between atoms: N_2  and  S_4
REMARK    4  A    between atoms: S_4  and  C_7
REMARK    5  A    between atoms: C_11  and  N_12
REMARK    6  A    between atoms: C_13  and  C_15
REMARK    7  A    between atoms: C_20  and  O_21
REMARK    8  A    between atoms: O_21  and  C_22
REMARK    9  A    between atoms: C_22  and  C_23
REMARK                            x       y       z     vdW  Elec       q    Type
REMARK                         _______ _______ _______ _____ _____    ______ ____
ROOT
ATOM      1  N   UNL     1       5.316   5.877  15.763  0.00  0.00    +0.000 N 
ATOM      2  C   UNL     1       6.718   5.885  15.831  0.00  0.00    +0.000 C 
ATOM      3  O   UNL     1       7.367   5.786  14.794  0.00  0.00    +0.000 OA
ATOM      4  H   UNL     1       4.964   5.462  14.909  0.00  0.00    +0.000 HD
ENDROOT
BRANCH   1   9
ATOM      5  C   UNL     1       2.688   5.292  18.291  0.00  0.00    +0.000 A 
ATOM      6  C   UNL     1       2.265   6.601  18.542  0.00  0.00    +0.000 A 
ATOM      7  C   UNL     1       2.971   7.667  17.983  0.00  0.00    +0.000 A 
ATOM      8  C   UNL     1       4.070   7.425  17.146  0.00  0.00    +0.000 A 
ATOM      9  C   UNL     1       4.417   6.109  16.821  0.00  0.00    +0.000 A 
ATOM     10  C   UNL     1       3.761   5.043  17.434  0.00  0.00    +0.000 A 
BRANCH   5  11
ATOM     11  S   UNL     1       1.775   3.909  18.939  0.00  0.00    +0.000 S 
ATOM     12  O   UNL     1       1.095   3.274  17.834  0.00  0.00    +0.000 OA
ATOM     13  O   UNL     1       1.031   4.389  20.094  0.00  0.00    +0.000 OA
BRANCH  11  15
ATOM     14  C   UNL     1       3.073   2.634  20.936  0.00  0.00    +0.000 C 
ATOM     15  N   UNL     1       3.005   2.873  19.484  0.00  0.00    +0.000 NA
ATOM     16  C   UNL     1       3.236   1.655  18.682  0.00  0.00    +0.000 C 
ENDBRANCH  11  15
ENDBRANCH   5  11
ENDBRANCH   1   9
BRANCH   2  17
ATOM     17  C   UNL     1       7.395   5.880  17.175  0.00  0.00    +0.000 A 
ATOM     18  C   UNL     1       7.511   4.645  17.848  0.00  0.00    +0.000 A 
ATOM     19  C   UNL     1       7.856   4.582  19.194  0.00  0.00    +0.000 A 
ATOM     20  C   UNL     1       8.185   5.748  19.862  0.00  0.00    +0.000 A 
ATOM     21  C   UNL     1       8.232   6.955  19.165  0.00  0.00    +0.000 A 
ATOM     22  C   UNL     1       7.884   7.038  17.803  0.00  0.00    +0.000 A 
BRANCH  22  23
ATOM     23  O   UNL     1       8.008   8.208  17.089  0.00  0.00    +0.000 OA
BRANCH  23  24
ATOM     24  C   UNL     1       7.672   9.394  17.833  0.00  0.00    +0.000 C 
BRANCH  24  25
ATOM     25  C   UNL     1       8.860  10.187  18.341  0.00  0.00    +0.000 A 
ATOM     26  C   UNL     1       9.730  10.872  17.482  0.00  0.00    +0.000 A 
ATOM     27  C   UNL     1      10.833  11.554  18.000  0.00  0.00    +0.000 A 
ATOM     28  C   UNL     1      11.064  11.559  19.372  0.00  0.00    +0.000 A 
ATOM     29  F   UNL     1      12.140  12.192  19.859  0.00  0.00    +0.000 F 
ATOM     30  C   UNL     1      10.199  10.915  20.243  0.00  0.00    +0.000 A 
ATOM     31  C   UNL     1       9.097  10.234  19.728  0.00  0.00    +0.000 A 
ENDBRANCH  24  25
ENDBRANCH  23  24
ENDBRANCH  22  23
ENDBRANCH   2  17
TORSDOF 7
ENDMDL
MODEL 2
REMARK VINA RESULT:      -7.7      1.724      2.114
REMARK  Name = 
REMARK  9 active torsions:
REMARK  status: ('A' for Active; 'I' for Inactive)
REMARK    1  A    between atoms: C_1  and  N_2
REMARK    2  A    between atoms: N_2  and  C_3
REMARK    3  A    between atoms: N_2  and  S_4
REMARK    4  A    between atoms: S_4  and  C_7
REMARK    5  A    between atoms: C_11  and  N_12
REMARK    6  A    between atoms: C_13  and  C_15
REMARK    7  A    between atoms: C_20  and  O_21
REMARK    8  A    between atoms: O_21  and  C_22
REMARK    9  A    between atoms: C_22  and  C_23
REMARK                            x       y       z     vdW  Elec       q    Type
REMARK                         _______ _______ _______ _____ _____    ______ ____
ROOT
ATOM      1  N   UNL     1       3.814   6.669  16.839  0.00  0.00    +0.000 N 
ATOM      2  C   UNL     1       5.104   6.825  16.308  0.00  0.00    +0.000 C 
ATOM      3  O   UNL     1       5.233   7.265  15.170  0.00  0.00    +0.000 OA
ATOM      4  H   UNL     1       3.096   6.623  16.126  0.00  0.00    +0.000 HD
ENDROOT
BRANCH   1   9
ATOM      5  C   UNL     1       3.165   4.586  19.818  0.00  0.00    +0.000 A 
ATOM      6  C   UNL     1       2.352   5.442  20.568  0.00  0.00    +0.000 A 
ATOM      7  C   UNL     1       2.166   6.757  20.141  0.00  0.00    +0.000 A 
ATOM      8  C   UNL     1       2.756   7.203  18.950  0.00  0.00    +0.000 A 
ATOM      9  C   UNL     1       3.481   6.306  18.157  0.00  0.00    +0.000 A 
ATOM     10  C   UNL     1       3.730   5.014  18.616  0.00  0.00    +0.000 A 
BRANCH   5  11
ATOM     11  S   UNL     1       3.377   2.887  20.302  0.00  0.00    +0.000 S 
ATOM     12  O   UNL     1       2.730   2.711  21.582  0.00  0.00    +0.000 OA
ATOM     13  O   UNL     1       4.785   2.563  20.129  0.00  0.00    +0.000 OA
BRANCH  11  15
ATOM     14  C   UNL     1       1.088   2.479  18.927  0.00  0.00    +0.000 C 
ATOM     15  N   UNL     1       2.483   2.050  19.125  0.00  0.00    +0.000 NA
ATOM     16  C   UNL     1       3.186   1.752  17.862  0.00  0.00    +0.000 C 
ENDBRANCH  11  15
ENDBRANCH   5  11
ENDBRANCH   1   9
BRANCH   2  17
ATOM     17  C   UNL     1       6.291   6.326  17.087  0.00  0.00    +0.000 A 
ATOM     18  C   UNL     1       6.562   4.941  17.059  0.00  0.00    +0.000 A 
ATOM     19  C   UNL     1       7.445   4.355  17.959  0.00  0.00    +0.000 A 
ATOM     20  C   UNL     1       8.147   5.163  18.838  0.00  0.00    +0.000 A 
ATOM     21  C   UNL     1       8.010   6.549  18.764  0.00  0.00    +0.000 A 
ATOM     22  C   UNL     1       7.118   7.157  17.861  0.00  0.00    +0.000 A 
BRANCH  22  23
ATOM     23  O   UNL     1       7.040   8.525  17.725  0.00  0.00    +0.000 OA
BRANCH  23  24
ATOM     24  C   UNL     1       8.279   9.155  17.350  0.00  0.00    +0.000 C 
BRANCH  24  25
ATOM     25  C   UNL     1       8.735  10.266  18.275  0.00  0.00    +0.000 A 
ATOM     26  C   UNL     1       9.221  10.019  19.566  0.00  0.00    +0.000 A 
ATOM     27  C   UNL     1       9.591  11.083  20.391  0.00  0.00    +0.000 A 
ATOM     28  C   UNL     1       9.482  12.390  19.929  0.00  0.00    +0.000 A 
ATOM     29  F   UNL     1       9.811  13.407  20.737  0.00  0.00    +0.000 F 
ATOM     30  C   UNL     1       9.032  12.657  18.644  0.00  0.00    +0.000 A 
ATOM     31  C   UNL     1       8.665  11.596  17.818  0.00  0.00    +0.000 A 
ENDBRANCH  24  25
ENDBRANCH  23  24
ENDBRANCH  22  23
ENDBRANCH   2  17
TORSDOF 7
ENDMDL
MODEL 3
REMARK VINA RESULT:      -7.6      7.408     10.239
REMARK  Name = 
REMARK  9 active torsions:
REMARK  status: ('A' for Active; 'I' for Inactive)
REMARK    1  A    between atoms: C_1  and  N_2
REMARK    2  A    between atoms: N_2  and  C_3
REMARK    3  A    between atoms: N_2  and  S_4
REMARK    4  A    between atoms: S_4  and  C_7
REMARK    5  A    between atoms: C_11  and  N_12
REMARK    6  A    between atoms: C_13  and  C_15
REMARK    7  A    between atoms: C_20  and  O_21
REMARK    8  A    between atoms: O_21  and  C_22
REMARK    9  A    between atoms: C_22  and  C_23
REMARK                            x       y       z     vdW  Elec       q    Type
REMARK                         _______ _______ _______ _____ _____    ______ ____
ROOT
ATOM      1  N   UNL     1      -0.209  11.907  18.301  0.00  0.00    +0.000 N 
ATOM      2  C   UNL     1       0.503  11.852  19.510  0.00  0.00    +0.000 C 
ATOM      3  O   UNL     1       1.606  12.384  19.578  0.00  0.00    +0.000 OA
ATOM      4  H   UNL     1       0.383  12.093  17.501  0.00  0.00    +0.000 HD
ENDROOT
BRANCH   1   9
ATOM      5  C   UNL     1      -3.868  11.558  18.658  0.00  0.00    +0.000 A 
ATOM      6  C   UNL     1      -4.075  10.308  18.066  0.00  0.00    +0.000 A 
ATOM      7  C   UNL     1      -3.015   9.676  17.415  0.00  0.00    +0.000 A 
ATOM      8  C   UNL     1      -1.745  10.271  17.392  0.00  0.00    +0.000 A 
ATOM      9  C   UNL     1      -1.529  11.471  18.077  0.00  0.00    +0.000 A 
ATOM     10  C   UNL     1      -2.601  12.141  18.665  0.00  0.00    +0.000 A 
BRANCH   5  11
ATOM     11  S   UNL     1      -5.183  12.365  19.546  0.00  0.00    +0.000 S 
ATOM     12  O   UNL     1      -4.586  13.353  20.414  0.00  0.00    +0.000 OA
ATOM     13  O   UNL     1      -6.039  11.320  20.087  0.00  0.00    +0.000 OA
BRANCH  11  15
ATOM     14  C   UNL     1      -7.018  12.373  17.564  0.00  0.00    +0.000 C 
ATOM     15  N   UNL     1      -6.028  13.168  18.312  0.00  0.00    +0.000 NA
ATOM     16  C   UNL     1      -6.493  14.535  18.621  0.00  0.00    +0.000 C 
ENDBRANCH  11  15
ENDBRANCH   5  11
ENDBRANCH   1   9
BRANCH   2  17
ATOM     17  C   UNL     1      -0.035  11.030  20.650  0.00  0.00    +0.000 A 
ATOM     18  C   UNL     1      -0.752  11.702  21.664  0.00  0.00    +0.000 A 
ATOM     19  C   UNL     1      -1.036  11.090  22.880  0.00  0.00    +0.000 A 
ATOM     20  C   UNL     1      -0.693   9.762  23.062  0.00  0.00    +0.000 A 
ATOM     21  C   UNL     1      -0.132   9.041  22.009  0.00  0.00    +0.000 A 
ATOM     22  C   UNL     1       0.165   9.645  20.773  0.00  0.00    +0.000 A 
BRANCH  22  23
ATOM     23  O   UNL     1       0.641   8.921  19.704  0.00  0.00    +0.000 OA
BRANCH  23  24
ATOM     24  C   UNL     1       1.927   8.313  19.925  0.00  0.00    +0.000 C 
BRANCH  24  25
ATOM     25  C   UNL     1       1.999   6.835  19.597  0.00  0.00    +0.000 A 
ATOM     26  C   UNL     1       2.384   6.363  18.335  0.00  0.00    +0.000 A 
ATOM     27  C   UNL     1       2.395   4.991  18.073  0.00  0.00    +0.000 A 
ATOM     28  C   UNL     1       2.029   4.092  19.069  0.00  0.00    +0.000 A 
ATOM     29  F   UNL     1       2.015   2.779  18.802  0.00  0.00    +0.000 F 
ATOM     30  C   UNL     1       1.675   4.535  20.335  0.00  0.00    +0.000 A 
ATOM     31  C   UNL     1       1.665   5.904  20.598  0.00  0.00    +0.000 A 
ENDBRANCH  24  25
ENDBRANCH  23  24
ENDBRANCH  22  23
ENDBRANCH   2  17
TORSDOF 7
ENDMDL
MODEL 4
REMARK VINA RESULT:      -7.6      3.699      6.320
REMARK  Name = 
REMARK  9 active torsions:
REMARK  status: ('A' for Active; 'I' for Inactive)
REMARK    1  A    between atoms: C_1  and  N_2
REMARK    2  A    between atoms: N_2  and  C_3
REMARK    3  A    between atoms: N_2  and  S_4
REMARK    4  A    between atoms: S_4  and  C_7
REMARK    5  A    between atoms: C_11  and  N_12
REMARK    6  A    between atoms: C_13  and  C_15
REMARK    7  A    between atoms: C_20  and  O_21
REMARK    8  A    between atoms: O_21  and  C_22
REMARK    9  A    between atoms: C_22  and  C_23
REMARK                            x       y       z     vdW  Elec       q    Type
REMARK                         _______ _______ _______ _____ _____    ______ ____
ROOT
ATOM      1  N   UNL     1       2.172   6.190  21.095  0.00  0.00    +0.000 N 
ATOM      2  C   UNL     1       2.179   4.819  20.793  0.00  0.00    +0.000 C 
ATOM      3  O   UNL     1       2.101   4.005  21.708  0.00  0.00    +0.000 OA
ATOM      4  H   UNL     1       2.434   6.385  22.053  0.00  0.00    +0.000 HD
ENDROOT
BRANCH   1   9
ATOM      5  C   UNL     1       1.155   9.357  19.490  0.00  0.00    +0.000 A 
ATOM      6  C   UNL     1       1.585   9.139  18.177  0.00  0.00    +0.000 A 
ATOM      7  C   UNL     1       2.348   8.008  17.886  0.00  0.00    +0.000 A 
ATOM      8  C   UNL     1       2.646   7.079  18.893  0.00  0.00    +0.000 A 
ATOM      9  C   UNL     1       2.122   7.257  20.178  0.00  0.00    +0.000 A 
ATOM     10  C   UNL     1       1.422   8.421  20.490  0.00  0.00    +0.000 A 
BRANCH   5  11
ATOM     11  S   UNL     1       0.131  10.758  19.884  0.00  0.00    +0.000 S 
ATOM     12  O   UNL     1       1.001  11.886  20.118  0.00  0.00    +0.000 OA
ATOM     13  O   UNL     1      -0.816  10.325  20.900  0.00  0.00    +0.000 OA
BRANCH  11  15
ATOM     14  C   UNL     1      -1.873  10.143  18.179  0.00  0.00    +0.000 C 
ATOM     15  N   UNL     1      -0.716  11.019  18.435  0.00  0.00    +0.000 NA
ATOM     16  C   UNL     1      -0.960  12.427  18.066  0.00  0.00    +0.000 C 
ENDBRANCH  11  15
ENDBRANCH   5  11
ENDBRANCH   1   9
BRANCH   2  17
ATOM     17  C   UNL     1       2.416   4.374  19.375  0.00  0.00    +0.000 A 
ATOM     18  C   UNL     1       1.292   4.242  18.530  0.00  0.00    +0.000 A 
ATOM     19  C   UNL     1       1.374   3.575  17.313  0.00  0.00    +0.000 A 
ATOM     20  C   UNL     1       2.603   3.114  16.877  0.00  0.00    +0.000 A 
ATOM     21  C   UNL     1       3.748   3.382  17.627  0.00  0.00    +0.000 A 
ATOM     22  C   UNL     1       3.684   4.054  18.862  0.00  0.00    +0.000 A 
BRANCH  22  23
ATOM     23  O   UNL     1       4.817   4.394  19.566  0.00  0.00    +0.000 OA
BRANCH  23  24
ATOM     24  C   UNL     1       6.037   4.294  18.809  0.00  0.00    +0.000 C 
BRANCH  24  25
ATOM     25  C   UNL     1       6.672   5.621  18.443  0.00  0.00    +0.000 A 
ATOM     26  C   UNL     1       7.847   6.085  19.049  0.00  0.00    +0.000 A 
ATOM     27  C   UNL     1       8.368   7.333  18.704  0.00  0.00    +0.000 A 
ATOM     28  C   UNL     1       7.722   8.116  17.753  0.00  0.00    +0.000 A 
ATOM     29  F   UNL     1       8.212   9.326  17.448  0.00  0.00    +0.000 F 
ATOM     30  C   UNL     1       6.575   7.665  17.118  0.00  0.00    +0.000 A 
ATOM     31  C   UNL     1       6.054   6.418  17.460  0.00  0.00    +0.000 A 
ENDBRANCH  24  25
ENDBRANCH  23  24
ENDBRANCH  22  23
ENDBRANCH   2  17
TORSDOF 7
ENDMDL
MODEL 5
REMARK VINA RESULT:      -7.4      7.394     10.196
REMARK  Name = 
REMARK  9 active torsions:
REMARK  status: ('A' for Active; 'I' for Inactive)
REMARK    1  A    between atoms: C_1  and  N_2
REMARK    2  A    between atoms: N_2  and  C_3
REMARK    3  A    between atoms: N_2  and  S_4
REMARK    4  A    between atoms: S_4  and  C_7
REMARK    5  A    between atoms: C_11  and  N_12
REMARK    6  A    between atoms: C_13  and  C_15
REMARK    7  A    between atoms: C_20  and  O_21
REMARK    8  A    between atoms: O_21  and  C_22
REMARK    9  A    between atoms: C_22  and  C_23
REMARK                            x       y       z     vdW  Elec       q    Type
REMARK                         _______ _______ _______ _____ _____    ______ ____
ROOT
ATOM      1  N   UNL     1      -0.280  11.842  18.305  0.00  0.00    +0.000 N 
ATOM      2  C   UNL     1       0.469  11.784  19.491  0.00  0.00    +0.000 C 
ATOM      3  O   UNL     1       1.601  12.257  19.507  0.00  0.00    +0.000 OA
ATOM      4  H   UNL     1       0.294  11.972  17.481  0.00  0.00    +0.000 HD
ENDROOT
BRANCH   1   9
ATOM      5  C   UNL     1      -3.926  11.633  18.852  0.00  0.00    +0.000 A 
ATOM      6  C   UNL     1      -4.220  10.421  18.218  0.00  0.00    +0.000 A 
ATOM      7  C   UNL     1      -3.227   9.775  17.482  0.00  0.00    +0.000 A 
ATOM      8  C   UNL     1      -1.934  10.316  17.413  0.00  0.00    +0.000 A 
ATOM      9  C   UNL     1      -1.628  11.473  18.137  0.00  0.00    +0.000 A 
ATOM     10  C   UNL     1      -2.635  12.161  18.813  0.00  0.00    +0.000 A 
BRANCH   5  11
ATOM     11  S   UNL     1      -5.152  12.452  19.848  0.00  0.00    +0.000 S 
ATOM     12  O   UNL     1      -5.146  13.851  19.490  0.00  0.00    +0.000 OA
ATOM     13  O   UNL     1      -4.937  12.035  21.225  0.00  0.00    +0.000 OA
BRANCH  11  15
ATOM     14  C   UNL     1      -7.421  11.056  20.299  0.00  0.00    +0.000 C 
ATOM     15  N   UNL     1      -6.602  11.760  19.297  0.00  0.00    +0.000 NA
ATOM     16  C   UNL     1      -7.402  12.577  18.362  0.00  0.00    +0.000 C 
ENDBRANCH  11  15
ENDBRANCH   5  11
ENDBRANCH   1   9
BRANCH   2  17
ATOM     17  C   UNL     1      -0.074  11.028  20.673  0.00  0.00    +0.000 A 
ATOM     18  C   UNL     1      -0.882  11.733  21.591  0.00  0.00    +0.000 A 
ATOM     19  C   UNL     1      -1.189  11.208  22.842  0.00  0.00    +0.000 A 
ATOM     20  C   UNL     1      -0.774   9.926  23.155  0.00  0.00    +0.000 A 
ATOM     21  C   UNL     1      -0.116   9.157  22.195  0.00  0.00    +0.000 A 
ATOM     22  C   UNL     1       0.205   9.674  20.925  0.00  0.00    +0.000 A 
BRANCH  22  23
ATOM     23  O   UNL     1       0.778   8.896  19.946  0.00  0.00    +0.000 OA
BRANCH  23  24
ATOM     24  C   UNL     1       1.912   8.127  20.388  0.00  0.00    +0.000 C 
BRANCH  24  25
ATOM     25  C   UNL     1       1.983   6.717  19.836  0.00  0.00    +0.000 A 
ATOM     26  C   UNL     1       1.705   5.588  20.617  0.00  0.00    +0.000 A 
ATOM     27  C   UNL     1       1.825   4.310  20.069  0.00  0.00    +0.000 A 
ATOM     28  C   UNL     1       2.216   4.157  18.742  0.00  0.00    +0.000 A 
ATOM     29  F   UNL     1       2.357   2.926  18.232  0.00  0.00    +0.000 F 
ATOM     30  C   UNL     1       2.467   5.261  17.942  0.00  0.00    +0.000 A 
ATOM     31  C   UNL     1       2.346   6.538  18.487  0.00  0.00    +0.000 A 
ENDBRANCH  24  25
ENDBRANCH  23  24
ENDBRANCH  22  23
ENDBRANCH   2  17
TORSDOF 7
ENDMDL
MODEL 6
REMARK VINA RESULT:      -7.4      7.075      9.577
REMARK  Name = 
REMARK  9 active torsions:
REMARK  status: ('A' for Active; 'I' for Inactive)
REMARK    1  A    between atoms: C_1  and  N_2
REMARK    2  A    between atoms: N_2  and  C_3
REMARK    3  A    between atoms: N_2  and  S_4
REMARK    4  A    between atoms: S_4  and  C_7
REMARK    5  A    between atoms: C_11  and  N_12
REMARK    6  A    between atoms: C_13  and  C_15
REMARK    7  A    between atoms: C_20  and  O_21
REMARK    8  A    between atoms: O_21  and  C_22
REMARK    9  A    between atoms: C_22  and  C_23
REMARK                            x       y       z     vdW  Elec       q    Type
REMARK                         _______ _______ _______ _____ _____    ______ ____
ROOT
ATOM      1  N   UNL     1      -0.333  12.228  17.978  0.00  0.00    +0.000 N 
ATOM      2  C   UNL     1       0.625  11.983  18.974  0.00  0.00    +0.000 C 
ATOM      3  O   UNL     1       1.690  12.592  18.942  0.00  0.00    +0.000 OA
ATOM      4  H   UNL     1       0.063  12.639  17.141  0.00  0.00    +0.000 HD
ENDROOT
BRANCH   1   9
ATOM      5  C   UNL     1      -3.887  11.683  18.819  0.00  0.00    +0.000 A 
ATOM      6  C   UNL     1      -4.109  10.430  18.239  0.00  0.00    +0.000 A 
ATOM      7  C   UNL     1      -3.116   9.861  17.441  0.00  0.00    +0.000 A 
ATOM      8  C   UNL     1      -1.892  10.522  17.257  0.00  0.00    +0.000 A 
ATOM      9  C   UNL     1      -1.647  11.725  17.927  0.00  0.00    +0.000 A 
ATOM     10  C   UNL     1      -2.662  12.333  18.665  0.00  0.00    +0.000 A 
BRANCH   5  11
ATOM     11  S   UNL     1      -5.109  12.411  19.889  0.00  0.00    +0.000 S 
ATOM     12  O   UNL     1      -5.256  13.797  19.511  0.00  0.00    +0.000 OA
ATOM     13  O   UNL     1      -4.757  12.045  21.253  0.00  0.00    +0.000 OA
BRANCH  11  15
ATOM     14  C   UNL     1      -7.363  11.083  20.563  0.00  0.00    +0.000 C 
ATOM     15  N   UNL     1      -6.525  11.580  19.457  0.00  0.00    +0.000 NA
ATOM     16  C   UNL     1      -7.309  12.157  18.348  0.00  0.00    +0.000 C 
ENDBRANCH  11  15
ENDBRANCH   5  11
ENDBRANCH   1   9
BRANCH   2  17
ATOM     17  C   UNL     1       0.386  10.887  19.978  0.00  0.00    +0.000 A 
ATOM     18  C   UNL     1      -0.174  11.246  21.223  0.00  0.00    +0.000 A 
ATOM     19  C   UNL     1      -0.167  10.369  22.302  0.00  0.00    +0.000 A 
ATOM     20  C   UNL     1       0.313   9.083  22.123  0.00  0.00    +0.000 A 
ATOM     21  C   UNL     1       0.717   8.666  20.856  0.00  0.00    +0.000 A 
ATOM     22  C   UNL     1       0.719   9.541  19.753  0.00  0.00    +0.000 A 
BRANCH  22  23
ATOM     23  O   UNL     1       1.037   9.113  18.484  0.00  0.00    +0.000 OA
BRANCH  23  24
ATOM     24  C   UNL     1       2.447   8.935  18.255  0.00  0.00    +0.000 C 
BRANCH  24  25
ATOM     25  C   UNL     1       2.872   7.509  17.967  0.00  0.00    +0.000 A 
ATOM     26  C   UNL     1       2.101   6.402  18.348  0.00  0.00    +0.000 A 
ATOM     27  C   UNL     1       2.559   5.108  18.094  0.00  0.00    +0.000 A 
ATOM     28  C   UNL     1       3.780   4.917  17.455  0.00  0.00    +0.000 A 
ATOM     29  F   UNL     1       4.227   3.672  17.241  0.00  0.00    +0.000 F 
ATOM     30  C   UNL     1       4.545   5.997  17.042  0.00  0.00    +0.000 A 
ATOM     31  C   UNL     1       4.089   7.290  17.294  0.00  0.00    +0.000 A 
ENDBRANCH  24  25
ENDBRANCH  23  24
ENDBRANCH  22  23
ENDBRANCH   2  17
TORSDOF 7
ENDMDL
MODEL 7
REMARK VINA RESULT:      -7.3      4.733      6.999
REMARK  Name = 
REMARK  9 active torsions:
REMARK  status: ('A' for Active; 'I' for Inactive)
REMARK    1  A    between atoms: C_1  and  N_2
REMARK    2  A    between atoms: N_2  and  C_3
REMARK    3  A    between atoms: N_2  and  S_4
REMARK    4  A    between atoms: S_4  and  C_7
REMARK    5  A    between atoms: C_11  and  N_12
REMARK    6  A    between atoms: C_13  and  C_15
REMARK    7  A    between atoms: C_20  and  O_21
REMARK    8  A    between atoms: O_21  and  C_22
REMARK    9  A    between atoms: C_22  and  C_23
REMARK                            x       y       z     vdW  Elec       q    Type
REMARK                         _______ _______ _______ _____ _____    ______ ____
ROOT
ATOM      1  N   UNL     1       2.228   6.400  21.034  0.00  0.00    +0.000 N 
ATOM      2  C   UNL     1       2.256   5.011  20.828  0.00  0.00    +0.000 C 
ATOM      3  O   UNL     1       2.231   4.263  21.800  0.00  0.00    +0.000 OA
ATOM      4  H   UNL     1       2.519   6.668  21.966  0.00  0.00    +0.000 HD
ENDROOT
BRANCH   1   9
ATOM      5  C   UNL     1       0.957   9.314  19.155  0.00  0.00    +0.000 A 
ATOM      6  C   UNL     1       1.513   9.080  17.894  0.00  0.00    +0.000 A 
ATOM      7  C   UNL     1       2.432   8.042  17.733  0.00  0.00    +0.000 A 
ATOM      8  C   UNL     1       2.762   7.217  18.818  0.00  0.00    +0.000 A 
ATOM      9  C   UNL     1       2.119   7.398  20.048  0.00  0.00    +0.000 A 
ATOM     10  C   UNL     1       1.257   8.478  20.232  0.00  0.00    +0.000 A 
BRANCH   5  11
ATOM     11  S   UNL     1      -0.261  10.591  19.382  0.00  0.00    +0.000 S 
ATOM     12  O   UNL     1      -0.762  10.487  20.732  0.00  0.00    +0.000 OA
ATOM     13  O   UNL     1      -1.168  10.526  18.245  0.00  0.00    +0.000 OA
BRANCH  11  15
ATOM     14  C   UNL     1       0.009  13.165  18.609  0.00  0.00    +0.000 C 
ATOM     15  N   UNL     1       0.660  12.012  19.254  0.00  0.00    +0.000 NA
ATOM     16  C   UNL     1       1.458  12.382  20.440  0.00  0.00    +0.000 C 
ENDBRANCH  11  15
ENDBRANCH   5  11
ENDBRANCH   1   9
BRANCH   2  17
ATOM     17  C   UNL     1       2.452   4.472  19.437  0.00  0.00    +0.000 A 
ATOM     18  C   UNL     1       1.322   4.397  18.595  0.00  0.00    +0.000 A 
ATOM     19  C   UNL     1       1.343   3.662  17.415  0.00  0.00    +0.000 A 
ATOM     20  C   UNL     1       2.526   3.071  17.010  0.00  0.00    +0.000 A 
ATOM     21  C   UNL     1       3.691   3.275  17.750  0.00  0.00    +0.000 A 
ATOM     22  C   UNL     1       3.687   4.014  18.947  0.00  0.00    +0.000 A 
BRANCH  22  23
ATOM     23  O   UNL     1       4.846   4.290  19.637  0.00  0.00    +0.000 OA
BRANCH  23  24
ATOM     24  C   UNL     1       5.601   5.395  19.108  0.00  0.00    +0.000 C 
BRANCH  24  25
ATOM     25  C   UNL     1       5.986   5.265  17.648  0.00  0.00    +0.000 A 
ATOM     26  C   UNL     1       7.049   4.459  17.219  0.00  0.00    +0.000 A 
ATOM     27  C   UNL     1       7.388   4.407  15.866  0.00  0.00    +0.000 A 
ATOM     28  C   UNL     1       6.664   5.151  14.940  0.00  0.00    +0.000 A 
ATOM     29  F   UNL     1       7.012   5.119  13.647  0.00  0.00    +0.000 F 
ATOM     30  C   UNL     1       5.589   5.932  15.338  0.00  0.00    +0.000 A 
ATOM     31  C   UNL     1       5.248   5.984  16.688  0.00  0.00    +0.000 A 
ENDBRANCH  24  25
ENDBRANCH  23  24
ENDBRANCH  22  23
ENDBRANCH   2  17
TORSDOF 7
ENDMDL
MODEL 8
REMARK VINA RESULT:      -7.3      7.395     10.019
REMARK  Name = 
REMARK  9 active torsions:
REMARK  status: ('A' for Active; 'I' for Inactive)
REMARK    1  A    between atoms: C_1  and  N_2
REMARK    2  A    between atoms: N_2  and  C_3
REMARK    3  A    between atoms: N_2  and  S_4
REMARK    4  A    between atoms: S_4  and  C_7
REMARK    5  A    between atoms: C_11  and  N_12
REMARK    6  A    between atoms: C_13  and  C_15
REMARK    7  A    between atoms: C_20  and  O_21
REMARK    8  A    between atoms: O_21  and  C_22
REMARK    9  A    between atoms: C_22  and  C_23
REMARK                            x       y       z     vdW  Elec       q    Type
REMARK                         _______ _______ _______ _____ _____    ______ ____
ROOT
ATOM      1  N   UNL     1      -0.550  12.220  18.155  0.00  0.00    +0.000 N 
ATOM      2  C   UNL     1       0.082  12.416  19.394  0.00  0.00    +0.000 C 
ATOM      3  O   UNL     1       1.100  13.100  19.444  0.00  0.00    +0.000 OA
ATOM      4  H   UNL     1       0.065  12.385  17.367  0.00  0.00    +0.000 HD
ENDROOT
BRANCH   1   9
ATOM      5  C   UNL     1      -4.164  11.478  18.299  0.00  0.00    +0.000 A 
ATOM      6  C   UNL     1      -4.170  10.121  17.965  0.00  0.00    +0.000 A 
ATOM      7  C   UNL     1      -2.987   9.515  17.541  0.00  0.00    +0.000 A 
ATOM      8  C   UNL     1      -1.795  10.253  17.491  0.00  0.00    +0.000 A 
ATOM      9  C   UNL     1      -1.784  11.582  17.928  0.00  0.00    +0.000 A 
ATOM     10  C   UNL     1      -2.977  12.211  18.281  0.00  0.00    +0.000 A 
BRANCH   5  11
ATOM     11  S   UNL     1      -5.643  12.267  18.899  0.00  0.00    +0.000 S 
ATOM     12  O   UNL     1      -6.483  11.244  19.477  0.00  0.00    +0.000 OA
ATOM     13  O   UNL     1      -6.138  13.121  17.830  0.00  0.00    +0.000 OA
BRANCH  11  15
ATOM     14  C   UNL     1      -5.565  14.638  20.192  0.00  0.00    +0.000 C 
ATOM     15  N   UNL     1      -5.057  13.255  20.150  0.00  0.00    +0.000 NA
ATOM     16  C   UNL     1      -4.957  12.631  21.484  0.00  0.00    +0.000 C 
ENDBRANCH  11  15
ENDBRANCH   5  11
ENDBRANCH   1   9
BRANCH   2  17
ATOM     17  C   UNL     1      -0.419  11.679  20.606  0.00  0.00    +0.000 A 
ATOM     18  C   UNL     1      -1.272  12.372  21.492  0.00  0.00    +0.000 A 
ATOM     19  C   UNL     1      -1.552  11.882  22.763  0.00  0.00    +0.000 A 
ATOM     20  C   UNL     1      -1.061  10.642  23.131  0.00  0.00    +0.000 A 
ATOM     21  C   UNL     1      -0.353   9.875  22.205  0.00  0.00    +0.000 A 
ATOM     22  C   UNL     1      -0.059  10.357  20.916  0.00  0.00    +0.000 A 
BRANCH  22  23
ATOM     23  O   UNL     1       0.565   9.574  19.971  0.00  0.00    +0.000 OA
BRANCH  23  24
ATOM     24  C   UNL     1       1.248   8.428  20.509  0.00  0.00    +0.000 C 
BRANCH  24  25
ATOM     25  C   UNL     1       2.074   7.647  19.506  0.00  0.00    +0.000 A 
ATOM     26  C   UNL     1       2.533   8.211  18.308  0.00  0.00    +0.000 A 
ATOM     27  C   UNL     1       3.256   7.435  17.400  0.00  0.00    +0.000 A 
ATOM     28  C   UNL     1       3.527   6.101  17.688  0.00  0.00    +0.000 A 
ATOM     29  F   UNL     1       4.196   5.355  16.799  0.00  0.00    +0.000 F 
ATOM     30  C   UNL     1       3.109   5.531  18.881  0.00  0.00    +0.000 A 
ATOM     31  C   UNL     1       2.389   6.304  19.790  0.00  0.00    +0.000 A 
ENDBRANCH  24  25
ENDBRANCH  23  24
ENDBRANCH  22  23
ENDBRANCH   2  17
TORSDOF 7
ENDMDL
MODEL 9
REMARK VINA RESULT:      -7.3      1.388      1.857
REMARK  Name = 
REMARK  9 active torsions:
REMARK  status: ('A' for Active; 'I' for Inactive)
REMARK    1  A    between atoms: C_1  and  N_2
REMARK    2  A    between atoms: N_2  and  C_3
REMARK    3  A    between atoms: N_2  and  S_4
REMARK    4  A    between atoms: S_4  and  C_7
REMARK    5  A    between atoms: C_11  and  N_12
REMARK    6  A    between atoms: C_13  and  C_15
REMARK    7  A    between atoms: C_20  and  O_21
REMARK    8  A    between atoms: O_21  and  C_22
REMARK    9  A    between atoms: C_22  and  C_23
REMARK                            x       y       z     vdW  Elec       q    Type
REMARK                         _______ _______ _______ _____ _____    ______ ____
ROOT
ATOM      1  N   UNL     1       3.673   6.653  16.673  0.00  0.00    +0.000 N 
ATOM      2  C   UNL     1       4.995   6.818  16.231  0.00  0.00    +0.000 C 
ATOM      3  O   UNL     1       5.198   7.303  15.122  0.00  0.00    +0.000 OA
ATOM      4  H   UNL     1       3.001   6.642  15.916  0.00  0.00    +0.000 HD
ENDROOT
BRANCH   1   9
ATOM      5  C   UNL     1       2.239   4.568  19.363  0.00  0.00    +0.000 A 
ATOM      6  C   UNL     1       1.940   5.541  20.322  0.00  0.00    +0.000 A 
ATOM      7  C   UNL     1       2.368   6.854  20.121  0.00  0.00    +0.000 A 
ATOM      8  C   UNL     1       3.055   7.201  18.949  0.00  0.00    +0.000 A 
ATOM      9  C   UNL     1       3.256   6.240  17.953  0.00  0.00    +0.000 A 
ATOM     10  C   UNL     1       2.896   4.912  18.181  0.00  0.00    +0.000 A 
BRANCH   5  11
ATOM     11  S   UNL     1       1.658   2.897  19.560  0.00  0.00    +0.000 S 
ATOM     12  O   UNL     1       0.849   2.575  18.408  0.00  0.00    +0.000 OA
ATOM     13  O   UNL     1       1.114   2.788  20.905  0.00  0.00    +0.000 OA
BRANCH  11  15
ATOM     14  C   UNL     1       3.497   1.506  18.153  0.00  0.00    +0.000 C 
ATOM     15  N   UNL     1       3.093   1.992  19.484  0.00  0.00    +0.000 NA
ATOM     16  C   UNL     1       4.225   2.493  20.289  0.00  0.00    +0.000 C 
ENDBRANCH  11  15
ENDBRANCH   5  11
ENDBRANCH   1   9
BRANCH   2  17
ATOM     17  C   UNL     1       6.128   6.277  17.061  0.00  0.00    +0.000 A 
ATOM     18  C   UNL     1       6.306   4.877  17.098  0.00  0.00    +0.000 A 
ATOM     19  C   UNL     1       7.128   4.275  18.044  0.00  0.00    +0.000 A 
ATOM     20  C   UNL     1       7.861   5.072  18.906  0.00  0.00    +0.000 A 
ATOM     21  C   UNL     1       7.818   6.459  18.771  0.00  0.00    +0.000 A 
ATOM     22  C   UNL     1       6.990   7.085  17.821  0.00  0.00    +0.000 A 
BRANCH  22  23
ATOM     23  O   UNL     1       7.006   8.448  17.626  0.00  0.00    +0.000 OA
BRANCH  23  24
ATOM     24  C   UNL     1       8.310   8.992  17.354  0.00  0.00    +0.000 C 
BRANCH  24  25
ATOM     25  C   UNL     1       8.726  10.137  18.256  0.00  0.00    +0.000 A 
ATOM     26  C   UNL     1       9.145   9.938  19.578  0.00  0.00    +0.000 A 
ATOM     27  C   UNL     1       9.478  11.032  20.380  0.00  0.00    +0.000 A 
ATOM     28  C   UNL     1       9.400  12.321  19.862  0.00  0.00    +0.000 A 
ATOM     29  F   UNL     1       9.694  13.368  20.645  0.00  0.00    +0.000 F 
ATOM     30  C   UNL     1       9.018  12.539  18.547  0.00  0.00    +0.000 A 
ATOM     31  C   UNL     1       8.686  11.448  17.745  0.00  0.00    +0.000 A 
ENDBRANCH  24  25
ENDBRANCH  23  24
ENDBRANCH  22  23
ENDBRANCH   2  17
TORSDOF 7
ENDMDL
