MODEL 1
REMARK VINA RESULT:      -7.5      0.000      0.000
REMARK  Name = 
REMARK  8 active torsions:
REMARK  status: ('A' for Active; 'I' for Inactive)
REMARK    1  A    between atoms: C_1  and  C_2
REMARK    2  A    between atoms: C_6  and  N_7
REMARK    3  A    between atoms: C_10  and  O_11
REMARK    4  A    between atoms: C_20  and  C_21
REMARK    5  A    between atoms: C_21  and  O_23
REMARK    6  A    between atoms: O_23  and  C_24
REMARK    7  A    between atoms: C_24  and  C_25
REMARK    8  A    between atoms: C_25  and  N_26
REMARK                            x       y       z     vdW  Elec       q    Type
REMARK                         _______ _______ _______ _____ _____    ______ ____
ROOT
ATOM      1  C   UNL     1      -1.652  10.025  17.098  0.00  0.00    +0.000 C 
ATOM      2  C   UNL     1      -0.546  10.858  17.747  0.00  0.00    +0.000 C 
ATOM      3  C   UNL     1      -1.078  12.126  18.374  0.00  0.00    +0.000 C 
ATOM      4  C   UNL     1      -1.454  12.004  19.831  0.00  0.00    +0.000 C 
ATOM      5  C   UNL     1      -0.731  11.011  20.695  0.00  0.00    +0.000 A 
ATOM      6  C   UNL     1      -0.864  11.039  22.132  0.00  0.00    +0.000 A 
ATOM      7  C   UNL     1      -0.142  10.045  22.842  0.00  0.00    +0.000 A 
ATOM      8  F   UNL     1      -0.259   9.927  24.176  0.00  0.00    +0.000 F 
ATOM      9  C   UNL     1       0.690   9.125  22.228  0.00  0.00    +0.000 A 
ATOM     10  C   UNL     1       0.816   9.143  20.843  0.00  0.00    +0.000 A 
ATOM     11  C   UNL     1       1.735   8.147  20.233  0.00  0.00    +0.000 A 
ATOM     12  O   UNL     1       2.353   7.376  20.947  0.00  0.00    +0.000 OA
ATOM     13  C   UNL     1       1.866   8.174  18.763  0.00  0.00    +0.000 A 
ATOM     14  C   UNL     1       1.159   9.101  18.104  0.00  0.00    +0.000 A 
ATOM     15  N   UNL     1       0.288  10.040  18.642  0.00  0.00    +0.000 N 
ATOM     16  C   UNL     1       0.105  10.067  20.047  0.00  0.00    +0.000 A 
ENDROOT
BRANCH   6  17
ATOM     17  N   UNL     1      -1.608  11.988  22.838  0.00  0.00    +0.000 N 
ATOM     18  C   UNL     1      -1.039  13.307  23.165  0.00  0.00    +0.000 C 
ATOM     19  C   UNL     1      -1.916  14.388  22.535  0.00  0.00    +0.000 C 
ATOM     20  C   UNL     1      -3.391  14.239  22.902  0.00  0.00    +0.000 C 
ATOM     21  C   UNL     1      -3.903  12.810  22.741  0.00  0.00    +0.000 C 
ATOM     22  C   UNL     1      -2.950  11.801  23.388  0.00  0.00    +0.000 C 
BRANCH  20  23
ATOM     23  O   UNL     1      -3.625  14.691  24.235  0.00  0.00    +0.000 OA
ATOM     24  H   UNL     1      -2.853  14.475  24.782  0.00  0.00    +0.000 HD
ENDBRANCH  20  23
ENDBRANCH   6  17
BRANCH  13  25
ATOM     25  C   UNL     1       2.618   7.198  17.956  0.00  0.00    +0.000 C 
ATOM     26  O   UNL     1       3.584   7.499  17.264  0.00  0.00    +0.000 OA
BRANCH  25  27
ATOM     27  O   UNL     1       2.009   5.989  17.960  0.00  0.00    +0.000 OA
BRANCH  27  28
ATOM     28  C   UNL     1       2.770   4.926  18.548  0.00  0.00    +0.000 C 
BRANCH  28  29
ATOM     29  C   UNL     1       3.184   3.851  17.532  0.00  0.00    +0.000 C 
BRANCH  29  30
ATOM     30  N   UNL     1       4.636   3.842  17.248  0.00  0.00    +0.000 NA
ATOM     31  C   UNL     1       4.920   4.366  15.901  0.00  0.00    +0.000 C 
ATOM     32  C   UNL     1       6.416   4.352  15.594  0.00  0.00    +0.000 C 
ATOM     33  C   UNL     1       7.194   5.141  16.635  0.00  0.00    +0.000 C 
ATOM     34  C   UNL     1       6.855   4.640  18.033  0.00  0.00    +0.000 C 
ATOM     35  C   UNL     1       5.344   4.631  18.272  0.00  0.00    +0.000 C 
ENDBRANCH  29  30
ENDBRANCH  28  29
ENDBRANCH  27  28
ENDBRANCH  25  27
ENDBRANCH  13  25
TORSDOF 7
ENDMDL
MODEL 2
REMARK VINA RESULT:      -7.5      2.595      3.765
REMARK  Name = 
REMARK  8 active torsions:
REMARK  status: ('A' for Active; 'I' for Inactive)
REMARK    1  A    between atoms: C_1  and  C_2
REMARK    2  A    between atoms: C_6  and  N_7
REMARK    3  A    between atoms: C_10  and  O_11
REMARK    4  A    between atoms: C_20  and  C_21
REMARK    5  A    between atoms: C_21  and  O_23
REMARK    6  A    between atoms: O_23  and  C_24
REMARK    7  A    between atoms: C_24  and  C_25
REMARK    8  A    between atoms: C_25  and  N_26
REMARK                            x       y       z     vdW  Elec       q    Type
REMARK                         _______ _______ _______ _____ _____    ______ ____
ROOT
ATOM      1  C   UNL     1      -3.567   9.387  17.649  0.00  0.00    +0.000 C 
ATOM      2  C   UNL     1      -3.021  10.814  17.589  0.00  0.00    +0.000 C 
ATOM      3  C   UNL     1      -4.114  11.851  17.716  0.00  0.00    +0.000 C 
ATOM      4  C   UNL     1      -4.388  12.314  19.127  0.00  0.00    +0.000 C 
ATOM      5  C   UNL     1      -3.271  12.304  20.131  0.00  0.00    +0.000 A 
ATOM      6  C   UNL     1      -3.408  12.976  21.402  0.00  0.00    +0.000 A 
ATOM      7  C   UNL     1      -2.292  12.889  22.274  0.00  0.00    +0.000 A 
ATOM      8  F   UNL     1      -2.342  13.406  23.513  0.00  0.00    +0.000 F 
ATOM      9  C   UNL     1      -1.111  12.251  21.935  0.00  0.00    +0.000 A 
ATOM     10  C   UNL     1      -1.004  11.636  20.693  0.00  0.00    +0.000 A 
ATOM     11  C   UNL     1       0.290  10.981  20.370  0.00  0.00    +0.000 A 
ATOM     12  O   UNL     1       1.206  11.018  21.175  0.00  0.00    +0.000 OA
ATOM     13  C   UNL     1       0.398  10.333  19.049  0.00  0.00    +0.000 A 
ATOM     14  C   UNL     1      -0.672  10.401  18.246  0.00  0.00    +0.000 A 
ATOM     15  N   UNL     1      -1.896  10.999  18.519  0.00  0.00    +0.000 N 
ATOM     16  C   UNL     1      -2.075  11.633  19.774  0.00  0.00    +0.000 A 
ENDROOT
BRANCH   6  17
ATOM     17  N   UNL     1      -4.528  13.719  21.786  0.00  0.00    +0.000 N 
ATOM     18  C   UNL     1      -5.688  13.068  22.420  0.00  0.00    +0.000 C 
ATOM     19  C   UNL     1      -5.904  13.690  23.799  0.00  0.00    +0.000 C 
ATOM     20  C   UNL     1      -5.996  15.214  23.751  0.00  0.00    +0.000 C 
ATOM     21  C   UNL     1      -4.887  15.851  22.915  0.00  0.00    +0.000 C 
ATOM     22  C   UNL     1      -4.736  15.149  21.563  0.00  0.00    +0.000 C 
BRANCH  20  23
ATOM     23  O   UNL     1      -7.271  15.625  23.259  0.00  0.00    +0.000 OA
ATOM     24  H   UNL     1      -7.338  15.389  22.319  0.00  0.00    +0.000 HD
ENDBRANCH  20  23
ENDBRANCH   6  17
BRANCH  13  25
ATOM     25  C   UNL     1       1.538   9.524  18.586  0.00  0.00    +0.000 C 
ATOM     26  O   UNL     1       2.131   9.736  17.535  0.00  0.00    +0.000 OA
BRANCH  25  27
ATOM     27  O   UNL     1       1.728   8.446  19.383  0.00  0.00    +0.000 OA
BRANCH  27  28
ATOM     28  C   UNL     1       2.359   7.325  18.751  0.00  0.00    +0.000 C 
BRANCH  28  29
ATOM     29  C   UNL     1       3.016   6.364  19.753  0.00  0.00    +0.000 C 
BRANCH  29  30
ATOM     30  N   UNL     1       2.626   4.951  19.550  0.00  0.00    +0.000 NA
ATOM     31  C   UNL     1       1.664   4.511  20.576  0.00  0.00    +0.000 C 
ATOM     32  C   UNL     1       1.261   3.051  20.382  0.00  0.00    +0.000 C 
ATOM     33  C   UNL     1       0.684   2.824  18.994  0.00  0.00    +0.000 C 
ATOM     34  C   UNL     1       1.652   3.334  17.935  0.00  0.00    +0.000 C 
ATOM     35  C   UNL     1       2.058   4.784  18.201  0.00  0.00    +0.000 C 
ENDBRANCH  29  30
ENDBRANCH  28  29
ENDBRANCH  27  28
ENDBRANCH  25  27
ENDBRANCH  13  25
TORSDOF 7
ENDMDL
MODEL 3
REMARK VINA RESULT:      -7.4      1.432      2.440
REMARK  Name = 
REMARK  8 active torsions:
REMARK  status: ('A' for Active; 'I' for Inactive)
REMARK    1  A    between atoms: C_1  and  C_2
REMARK    2  A    between atoms: C_6  and  N_7
REMARK    3  A    between atoms: C_10  and  O_11
REMARK    4  A    between atoms: C_20  and  C_21
REMARK    5  A    between atoms: C_21  and  O_23
REMARK    6  A    between atoms: O_23  and  C_24
REMARK    7  A    between atoms: C_24  and  C_25
REMARK    8  A    between atoms: C_25  and  N_26
REMARK                            x       y       z     vdW  Elec       q    Type
REMARK                         _______ _______ _______ _____ _____    ______ ____
ROOT
ATOM      1  C   UNL     1      -1.948  10.661  17.177  0.00  0.00    +0.000 C 
ATOM      2  C   UNL     1      -0.857  11.467  17.883  0.00  0.00    +0.000 C 
ATOM      3  C   UNL     1      -1.415  12.667  18.614  0.00  0.00    +0.000 C 
ATOM      4  C   UNL     1      -1.775  12.419  20.059  0.00  0.00    +0.000 C 
ATOM      5  C   UNL     1      -1.020  11.379  20.835  0.00  0.00    +0.000 A 
ATOM      6  C   UNL     1      -1.141  11.288  22.271  0.00  0.00    +0.000 A 
ATOM      7  C   UNL     1      -0.388  10.260  22.894  0.00  0.00    +0.000 A 
ATOM      8  F   UNL     1      -0.491  10.032  24.215  0.00  0.00    +0.000 F 
ATOM      9  C   UNL     1       0.461   9.413  22.202  0.00  0.00    +0.000 A 
ATOM     10  C   UNL     1       0.574   9.545  20.823  0.00  0.00    +0.000 A 
ATOM     11  C   UNL     1       1.512   8.624  20.128  0.00  0.00    +0.000 A 
ATOM     12  O   UNL     1       2.155   7.814  20.774  0.00  0.00    +0.000 OA
ATOM     13  C   UNL     1       1.629   8.772  18.665  0.00  0.00    +0.000 A 
ATOM     14  C   UNL     1       0.893   9.730  18.087  0.00  0.00    +0.000 A 
ATOM     15  N   UNL     1       0.004  10.601  18.704  0.00  0.00    +0.000 N 
ATOM     16  C   UNL     1      -0.167  10.511  20.108  0.00  0.00    +0.000 A 
ENDROOT
BRANCH   6  17
ATOM     17  N   UNL     1      -1.902  12.159  23.055  0.00  0.00    +0.000 N 
ATOM     18  C   UNL     1      -1.356  13.454  23.499  0.00  0.00    +0.000 C 
ATOM     19  C   UNL     1      -2.252  14.571  22.963  0.00  0.00    +0.000 C 
ATOM     20  C   UNL     1      -3.725  14.364  23.312  0.00  0.00    +0.000 C 
ATOM     21  C   UNL     1      -4.211  12.945  23.026  0.00  0.00    +0.000 C 
ATOM     22  C   UNL     1      -3.241  11.901  23.584  0.00  0.00    +0.000 C 
BRANCH  20  23
ATOM     23  O   UNL     1      -3.968  14.693  24.680  0.00  0.00    +0.000 OA
ATOM     24  H   UNL     1      -3.331  15.371  24.959  0.00  0.00    +0.000 HD
ENDBRANCH  20  23
ENDBRANCH   6  17
BRANCH  13  25
ATOM     25  C   UNL     1       2.398   7.884  17.777  0.00  0.00    +0.000 C 
ATOM     26  O   UNL     1       2.952   8.270  16.754  0.00  0.00    +0.000 OA
BRANCH  25  27
ATOM     27  O   UNL     1       2.272   6.589  18.153  0.00  0.00    +0.000 OA
BRANCH  27  28
ATOM     28  C   UNL     1       3.472   5.810  18.066  0.00  0.00    +0.000 C 
BRANCH  28  29
ATOM     29  C   UNL     1       3.227   4.386  17.546  0.00  0.00    +0.000 C 
BRANCH  29  30
ATOM     30  N   UNL     1       2.741   3.457  18.589  0.00  0.00    +0.000 NA
ATOM     31  C   UNL     1       3.297   3.800  19.910  0.00  0.00    +0.000 C 
ATOM     32  C   UNL     1       2.809   2.841  20.994  0.00  0.00    +0.000 C 
ATOM     33  C   UNL     1       1.290   2.819  21.058  0.00  0.00    +0.000 C 
ATOM     34  C   UNL     1       0.712   2.524  19.680  0.00  0.00    +0.000 C 
ATOM     35  C   UNL     1       1.268   3.483  18.625  0.00  0.00    +0.000 C 
ENDBRANCH  29  30
ENDBRANCH  28  29
ENDBRANCH  27  28
ENDBRANCH  25  27
ENDBRANCH  13  25
TORSDOF 7
ENDMDL
MODEL 4
REMARK VINA RESULT:      -7.3      2.686      3.864
REMARK  Name = 
REMARK  8 active torsions:
REMARK  status: ('A' for Active; 'I' for Inactive)
REMARK    1  A    between atoms: C_1  and  C_2
REMARK    2  A    between atoms: C_6  and  N_7
REMARK    3  A    between atoms: C_10  and  O_11
REMARK    4  A    between atoms: C_20  and  C_21
REMARK    5  A    between atoms: C_21  and  O_23
REMARK    6  A    between atoms: O_23  and  C_24
REMARK    7  A    between atoms: C_24  and  C_25
REMARK    8  A    between atoms: C_25  and  N_26
REMARK                            x       y       z     vdW  Elec       q    Type
REMARK                         _______ _______ _______ _____ _____    ______ ____
ROOT
ATOM      1  C   UNL     1      -3.528   9.506  17.765  0.00  0.00    +0.000 C 
ATOM      2  C   UNL     1      -3.135  10.982  17.720  0.00  0.00    +0.000 C 
ATOM      3  C   UNL     1      -4.320  11.896  17.934  0.00  0.00    +0.000 C 
ATOM      4  C   UNL     1      -4.563  12.294  19.370  0.00  0.00    +0.000 C 
ATOM      5  C   UNL     1      -3.399  12.375  20.316  0.00  0.00    +0.000 A 
ATOM      6  C   UNL     1      -3.534  12.998  21.611  0.00  0.00    +0.000 A 
ATOM      7  C   UNL     1      -2.370  13.006  22.421  0.00  0.00    +0.000 A 
ATOM      8  F   UNL     1      -2.406  13.485  23.677  0.00  0.00    +0.000 F 
ATOM      9  C   UNL     1      -1.150  12.503  22.004  0.00  0.00    +0.000 A 
ATOM     10  C   UNL     1      -1.047  11.933  20.740  0.00  0.00    +0.000 A 
ATOM     11  C   UNL     1       0.288  11.424  20.332  0.00  0.00    +0.000 A 
ATOM     12  O   UNL     1       1.237  11.537  21.089  0.00  0.00    +0.000 OA
ATOM     13  C   UNL     1       0.389  10.824  18.987  0.00  0.00    +0.000 A 
ATOM     14  C   UNL     1      -0.724  10.800  18.243  0.00  0.00    +0.000 A 
ATOM     15  N   UNL     1      -1.986  11.260  18.597  0.00  0.00    +0.000 N 
ATOM     16  C   UNL     1      -2.161  11.841  19.877  0.00  0.00    +0.000 A 
ENDROOT
BRANCH   6  17
ATOM     17  N   UNL     1      -4.702  13.611  22.074  0.00  0.00    +0.000 N 
ATOM     18  C   UNL     1      -4.952  15.044  21.838  0.00  0.00    +0.000 C 
ATOM     19  C   UNL     1      -6.248  15.189  21.042  0.00  0.00    +0.000 C 
ATOM     20  C   UNL     1      -7.421  14.451  21.684  0.00  0.00    +0.000 C 
ATOM     21  C   UNL     1      -7.070  13.025  22.103  0.00  0.00    +0.000 C 
ATOM     22  C   UNL     1      -5.750  12.981  22.877  0.00  0.00    +0.000 C 
BRANCH  20  23
ATOM     23  O   UNL     1      -7.917  15.178  22.808  0.00  0.00    +0.000 OA
ATOM     24  H   UNL     1      -7.197  15.714  23.180  0.00  0.00    +0.000 HD
ENDBRANCH  20  23
ENDBRANCH   6  17
BRANCH  13  25
ATOM     25  C   UNL     1       1.579  10.149  18.443  0.00  0.00    +0.000 C 
ATOM     26  O   UNL     1       2.497  10.745  17.890  0.00  0.00    +0.000 OA
BRANCH  25  27
ATOM     27  O   UNL     1       1.444   8.803  18.493  0.00  0.00    +0.000 OA
BRANCH  27  28
ATOM     28  C   UNL     1       1.822   8.199  19.736  0.00  0.00    +0.000 C 
BRANCH  28  29
ATOM     29  C   UNL     1       2.657   6.922  19.553  0.00  0.00    +0.000 C 
BRANCH  29  30
ATOM     30  N   UNL     1       1.835   5.696  19.446  0.00  0.00    +0.000 NA
ATOM     31  C   UNL     1       2.216   4.900  18.266  0.00  0.00    +0.000 C 
ATOM     32  C   UNL     1       1.367   3.637  18.141  0.00  0.00    +0.000 C 
ATOM     33  C   UNL     1       1.466   2.786  19.397  0.00  0.00    +0.000 C 
ATOM     34  C   UNL     1       1.131   3.624  20.624  0.00  0.00    +0.000 C 
ATOM     35  C   UNL     1       1.976   4.898  20.678  0.00  0.00    +0.000 C 
ENDBRANCH  29  30
ENDBRANCH  28  29
ENDBRANCH  27  28
ENDBRANCH  25  27
ENDBRANCH  13  25
TORSDOF 7
ENDMDL
MODEL 5
REMARK VINA RESULT:      -7.3      2.671      4.256
REMARK  Name = 
REMARK  8 active torsions:
REMARK  status: ('A' for Active; 'I' for Inactive)
REMARK    1  A    between atoms: C_1  and  C_2
REMARK    2  A    between atoms: C_6  and  N_7
REMARK    3  A    between atoms: C_10  and  O_11
REMARK    4  A    between atoms: C_20  and  C_21
REMARK    5  A    between atoms: C_21  and  O_23
REMARK    6  A    between atoms: O_23  and  C_24
REMARK    7  A    between atoms: C_24  and  C_25
REMARK    8  A    between atoms: C_25  and  N_26
REMARK                            x       y       z     vdW  Elec       q    Type
REMARK                         _______ _______ _______ _____ _____    ______ ____
ROOT
ATOM      1  C   UNL     1       0.216   9.580  23.360  0.00  0.00    +0.000 C 
ATOM      2  C   UNL     1      -0.779  10.212  22.385  0.00  0.00    +0.000 C 
ATOM      3  C   UNL     1      -1.722  11.172  23.073  0.00  0.00    +0.000 C 
ATOM      4  C   UNL     1      -1.259  12.610  23.094  0.00  0.00    +0.000 C 
ATOM      5  C   UNL     1      -0.386  13.115  21.982  0.00  0.00    +0.000 A 
ATOM      6  C   UNL     1      -0.137  14.528  21.815  0.00  0.00    +0.000 A 
ATOM      7  C   UNL     1       0.712  14.886  20.737  0.00  0.00    +0.000 A 
ATOM      8  F   UNL     1       1.077  16.164  20.540  0.00  0.00    +0.000 F 
ATOM      9  C   UNL     1       1.243  13.965  19.849  0.00  0.00    +0.000 A 
ATOM     10  C   UNL     1       0.963  12.615  20.023  0.00  0.00    +0.000 A 
ATOM     11  C   UNL     1       1.541  11.669  19.034  0.00  0.00    +0.000 A 
ATOM     12  O   UNL     1       2.211  12.094  18.108  0.00  0.00    +0.000 OA
ATOM     13  C   UNL     1       1.236  10.237  19.224  0.00  0.00    +0.000 A 
ATOM     14  C   UNL     1       0.454   9.912  20.261  0.00  0.00    +0.000 A 
ATOM     15  N   UNL     1      -0.096  10.769  21.206  0.00  0.00    +0.000 N 
ATOM     16  C   UNL     1       0.162  12.157  21.092  0.00  0.00    +0.000 A 
ENDROOT
BRANCH   6  17
ATOM     17  N   UNL     1      -0.706  15.529  22.608  0.00  0.00    +0.000 N 
ATOM     18  C   UNL     1      -1.967  16.182  22.215  0.00  0.00    +0.000 C 
ATOM     19  C   UNL     1      -2.999  15.954  23.319  0.00  0.00    +0.000 C 
ATOM     20  C   UNL     1      -2.488  16.366  24.699  0.00  0.00    +0.000 C 
ATOM     21  C   UNL     1      -1.087  15.837  24.997  0.00  0.00    +0.000 C 
ATOM     22  C   UNL     1      -0.133  16.096  23.828  0.00  0.00    +0.000 C 
BRANCH  20  23
ATOM     23  O   UNL     1      -2.510  17.786  24.838  0.00  0.00    +0.000 OA
ATOM     24  H   UNL     1      -1.750  18.162  24.364  0.00  0.00    +0.000 HD
ENDBRANCH  20  23
ENDBRANCH   6  17
BRANCH  13  25
ATOM     25  C   UNL     1       1.811   9.132  18.439  0.00  0.00    +0.000 C 
ATOM     26  O   UNL     1       1.942   9.169  17.221  0.00  0.00    +0.000 OA
BRANCH  25  27
ATOM     27  O   UNL     1       2.017   8.039  19.211  0.00  0.00    +0.000 OA
BRANCH  27  28
ATOM     28  C   UNL     1       2.604   6.919  18.537  0.00  0.00    +0.000 C 
BRANCH  28  29
ATOM     29  C   UNL     1       3.342   5.965  19.489  0.00  0.00    +0.000 C 
BRANCH  29  30
ATOM     30  N   UNL     1       2.810   4.585  19.463  0.00  0.00    +0.000 NA
ATOM     31  C   UNL     1       1.615   4.458  20.317  0.00  0.00    +0.000 C 
ATOM     32  C   UNL     1       1.063   3.035  20.305  0.00  0.00    +0.000 C 
ATOM     33  C   UNL     1       0.740   2.586  18.889  0.00  0.00    +0.000 C 
ATOM     34  C   UNL     1       1.957   2.774  17.991  0.00  0.00    +0.000 C 
ATOM     35  C   UNL     1       2.497   4.202  18.075  0.00  0.00    +0.000 C 
ENDBRANCH  29  30
ENDBRANCH  28  29
ENDBRANCH  27  28
ENDBRANCH  25  27
ENDBRANCH  13  25
TORSDOF 7
ENDMDL
MODEL 6
REMARK VINA RESULT:      -7.3      1.073      1.682
REMARK  Name = 
REMARK  8 active torsions:
REMARK  status: ('A' for Active; 'I' for Inactive)
REMARK    1  A    between atoms: C_1  and  C_2
REMARK    2  A    between atoms: C_6  and  N_7
REMARK    3  A    between atoms: C_10  and  O_11
REMARK    4  A    between atoms: C_20  and  C_21
REMARK    5  A    between atoms: C_21  and  O_23
REMARK    6  A    between atoms: O_23  and  C_24
REMARK    7  A    between atoms: C_24  and  C_25
REMARK    8  A    between atoms: C_25  and  N_26
REMARK                            x       y       z     vdW  Elec       q    Type
REMARK                         _______ _______ _______ _____ _____    ______ ____
ROOT
ATOM      1  C   UNL     1      -2.032   9.820  16.886  0.00  0.00    +0.000 C 
ATOM      2  C   UNL     1      -1.069  10.881  17.418  0.00  0.00    +0.000 C 
ATOM      3  C   UNL     1      -1.768  12.185  17.727  0.00  0.00    +0.000 C 
ATOM      4  C   UNL     1      -2.258  12.320  19.149  0.00  0.00    +0.000 C 
ATOM      5  C   UNL     1      -1.525  11.606  20.249  0.00  0.00    +0.000 A 
ATOM      6  C   UNL     1      -1.786  11.909  21.636  0.00  0.00    +0.000 A 
ATOM      7  C   UNL     1      -1.042  11.164  22.586  0.00  0.00    +0.000 A 
ATOM      8  F   UNL     1      -1.265  11.306  23.904  0.00  0.00    +0.000 F 
ATOM      9  C   UNL     1      -0.078  10.234  22.236  0.00  0.00    +0.000 A 
ATOM     10  C   UNL     1       0.167   9.984  20.890  0.00  0.00    +0.000 A 
ATOM     11  C   UNL     1       1.223   8.991  20.566  0.00  0.00    +0.000 A 
ATOM     12  O   UNL     1       1.844   8.451  21.466  0.00  0.00    +0.000 OA
ATOM     13  C   UNL     1       1.480   8.734  19.135  0.00  0.00    +0.000 A 
ATOM     14  C   UNL     1       0.752   9.426  18.250  0.00  0.00    +0.000 A 
ATOM     15  N   UNL     1      -0.246  10.355  18.519  0.00  0.00    +0.000 N 
ATOM     16  C   UNL     1      -0.553  10.646  19.871  0.00  0.00    +0.000 A 
ENDROOT
BRANCH   6  17
ATOM     17  N   UNL     1      -2.674  12.896  22.075  0.00  0.00    +0.000 N 
ATOM     18  C   UNL     1      -4.088  12.579  22.340  0.00  0.00    +0.000 C 
ATOM     19  C   UNL     1      -4.396  12.903  23.802  0.00  0.00    +0.000 C 
ATOM     20  C   UNL     1      -3.994  14.326  24.188  0.00  0.00    +0.000 C 
ATOM     21  C   UNL     1      -2.588  14.694  23.721  0.00  0.00    +0.000 C 
ATOM     22  C   UNL     1      -2.371  14.315  22.253  0.00  0.00    +0.000 C 
BRANCH  20  23
ATOM     23  O   UNL     1      -4.937  15.269  23.680  0.00  0.00    +0.000 OA
ATOM     24  H   UNL     1      -5.725  14.793  23.371  0.00  0.00    +0.000 HD
ENDBRANCH  20  23
ENDBRANCH   6  17
BRANCH  13  25
ATOM     25  C   UNL     1       2.386   7.702  18.604  0.00  0.00    +0.000 C 
ATOM     26  O   UNL     1       3.155   7.898  17.670  0.00  0.00    +0.000 OA
BRANCH  25  27
ATOM     27  O   UNL     1       2.140   6.497  19.169  0.00  0.00    +0.000 OA
BRANCH  27  28
ATOM     28  C   UNL     1       2.290   5.372  18.294  0.00  0.00    +0.000 C 
BRANCH  28  29
ATOM     29  C   UNL     1       3.474   4.470  18.674  0.00  0.00    +0.000 C 
BRANCH  29  30
ATOM     30  N   UNL     1       4.765   4.937  18.123  0.00  0.00    +0.000 NA
ATOM     31  C   UNL     1       5.789   5.041  19.179  0.00  0.00    +0.000 C 
ATOM     32  C   UNL     1       7.124   5.532  18.623  0.00  0.00    +0.000 C 
ATOM     33  C   UNL     1       7.617   4.624  17.508  0.00  0.00    +0.000 C 
ATOM     34  C   UNL     1       6.537   4.467  16.445  0.00  0.00    +0.000 C 
ATOM     35  C   UNL     1       5.210   4.019  17.060  0.00  0.00    +0.000 C 
ENDBRANCH  29  30
ENDBRANCH  28  29
ENDBRANCH  27  28
ENDBRANCH  25  27
ENDBRANCH  13  25
TORSDOF 7
ENDMDL
MODEL 7
REMARK VINA RESULT:      -7.2      1.742      3.055
REMARK  Name = 
REMARK  8 active torsions:
REMARK  status: ('A' for Active; 'I' for Inactive)
REMARK    1  A    between atoms: C_1  and  C_2
REMARK    2  A    between atoms: C_6  and  N_7
REMARK    3  A    between atoms: C_10  and  O_11
REMARK    4  A    between atoms: C_20  and  C_21
REMARK    5  A    between atoms: C_21  and  O_23
REMARK    6  A    between atoms: O_23  and  C_24
REMARK    7  A    between atoms: C_24  and  C_25
REMARK    8  A    between atoms: C_25  and  N_26
REMARK                            x       y       z     vdW  Elec       q    Type
REMARK                         _______ _______ _______ _____ _____    ______ ____
ROOT
ATOM      1  C   UNL     1       2.019   9.256  23.234  0.00  0.00    +0.000 C 
ATOM      2  C   UNL     1       0.721   8.883  22.519  0.00  0.00    +0.000 C 
ATOM      3  C   UNL     1      -0.473   9.625  23.075  0.00  0.00    +0.000 C 
ATOM      4  C   UNL     1      -0.792  10.926  22.378  0.00  0.00    +0.000 C 
ATOM      5  C   UNL     1      -0.447  11.083  20.924  0.00  0.00    +0.000 A 
ATOM      6  C   UNL     1      -0.963  12.189  20.153  0.00  0.00    +0.000 A 
ATOM      7  C   UNL     1      -0.560  12.239  18.794  0.00  0.00    +0.000 A 
ATOM      8  F   UNL     1      -0.913  13.271  18.007  0.00  0.00    +0.000 F 
ATOM      9  C   UNL     1       0.234  11.273  18.199  0.00  0.00    +0.000 A 
ATOM     10  C   UNL     1       0.692  10.207  18.964  0.00  0.00    +0.000 A 
ATOM     11  C   UNL     1       1.525   9.187  18.277  0.00  0.00    +0.000 A 
ATOM     12  O   UNL     1       1.761   9.300  17.086  0.00  0.00    +0.000 OA
ATOM     13  C   UNL     1       2.005   8.056  19.095  0.00  0.00    +0.000 A 
ATOM     14  C   UNL     1       1.638   8.036  20.383  0.00  0.00    +0.000 A 
ATOM     15  N   UNL     1       0.867   8.974  21.057  0.00  0.00    +0.000 N 
ATOM     16  C   UNL     1       0.379  10.092  20.337  0.00  0.00    +0.000 A 
ENDROOT
BRANCH   6  17
ATOM     17  N   UNL     1      -1.841  13.156  20.649  0.00  0.00    +0.000 N 
ATOM     18  C   UNL     1      -3.299  13.006  20.494  0.00  0.00    +0.000 C 
ATOM     19  C   UNL     1      -3.939  12.989  21.882  0.00  0.00    +0.000 C 
ATOM     20  C   UNL     1      -3.524  14.185  22.738  0.00  0.00    +0.000 C 
ATOM     21  C   UNL     1      -2.018  14.437  22.718  0.00  0.00    +0.000 C 
ATOM     22  C   UNL     1      -1.469  14.417  21.288  0.00  0.00    +0.000 C 
BRANCH  20  23
ATOM     23  O   UNL     1      -4.219  15.361  22.327  0.00  0.00    +0.000 OA
ATOM     24  H   UNL     1      -5.168  15.165  22.273  0.00  0.00    +0.000 HD
ENDBRANCH  20  23
ENDBRANCH   6  17
BRANCH  13  25
ATOM     25  C   UNL     1       2.942   7.015  18.643  0.00  0.00    +0.000 C 
ATOM     26  O   UNL     1       3.810   7.210  17.799  0.00  0.00    +0.000 OA
BRANCH  25  27
ATOM     27  O   UNL     1       2.614   5.806  19.157  0.00  0.00    +0.000 OA
BRANCH  27  28
ATOM     28  C   UNL     1       3.710   5.057  19.698  0.00  0.00    +0.000 C 
BRANCH  28  29
ATOM     29  C   UNL     1       3.938   3.720  18.977  0.00  0.00    +0.000 C 
BRANCH  29  30
ATOM     30  N   UNL     1       5.125   3.726  18.095  0.00  0.00    +0.000 NA
ATOM     31  C   UNL     1       4.750   4.007  16.697  0.00  0.00    +0.000 C 
ATOM     32  C   UNL     1       5.968   4.006  15.776  0.00  0.00    +0.000 C 
ATOM     33  C   UNL     1       7.010   5.008  16.247  0.00  0.00    +0.000 C 
ATOM     34  C   UNL     1       7.353   4.756  17.709  0.00  0.00    +0.000 C 
ATOM     35  C   UNL     1       6.097   4.722  18.581  0.00  0.00    +0.000 C 
ENDBRANCH  29  30
ENDBRANCH  28  29
ENDBRANCH  27  28
ENDBRANCH  25  27
ENDBRANCH  13  25
TORSDOF 7
ENDMDL
MODEL 8
REMARK VINA RESULT:      -7.2      2.630      3.942
REMARK  Name = 
REMARK  8 active torsions:
REMARK  status: ('A' for Active; 'I' for Inactive)
REMARK    1  A    between atoms: C_1  and  C_2
REMARK    2  A    between atoms: C_6  and  N_7
REMARK    3  A    between atoms: C_10  and  O_11
REMARK    4  A    between atoms: C_20  and  C_21
REMARK    5  A    between atoms: C_21  and  O_23
REMARK    6  A    between atoms: O_23  and  C_24
REMARK    7  A    between atoms: C_24  and  C_25
REMARK    8  A    between atoms: C_25  and  N_26
REMARK                            x       y       z     vdW  Elec       q    Type
REMARK                         _______ _______ _______ _____ _____    ______ ____
ROOT
ATOM      1  C   UNL     1      -3.620   9.581  17.625  0.00  0.00    +0.000 C 
ATOM      2  C   UNL     1      -3.245  11.062  17.580  0.00  0.00    +0.000 C 
ATOM      3  C   UNL     1      -4.449  11.962  17.744  0.00  0.00    +0.000 C 
ATOM      4  C   UNL     1      -4.747  12.369  19.167  0.00  0.00    +0.000 C 
ATOM      5  C   UNL     1      -3.618  12.474  20.152  0.00  0.00    +0.000 A 
ATOM      6  C   UNL     1      -3.807  13.106  21.436  0.00  0.00    +0.000 A 
ATOM      7  C   UNL     1      -2.672  13.136  22.287  0.00  0.00    +0.000 A 
ATOM      8  F   UNL     1      -2.758  13.626  23.536  0.00  0.00    +0.000 F 
ATOM      9  C   UNL     1      -1.431  12.646  21.917  0.00  0.00    +0.000 A 
ATOM     10  C   UNL     1      -1.277  12.067  20.663  0.00  0.00    +0.000 A 
ATOM     11  C   UNL     1       0.078  11.572  20.306  0.00  0.00    +0.000 A 
ATOM     12  O   UNL     1       0.998  11.704  21.095  0.00  0.00    +0.000 OA
ATOM     13  C   UNL     1       0.235  10.961  18.972  0.00  0.00    +0.000 A 
ATOM     14  C   UNL     1      -0.852  10.916  18.190  0.00  0.00    +0.000 A 
ATOM     15  N   UNL     1      -2.131  11.363  18.494  0.00  0.00    +0.000 N 
ATOM     16  C   UNL     1      -2.358  11.952  19.762  0.00  0.00    +0.000 A 
ENDROOT
BRANCH   6  17
ATOM     17  N   UNL     1      -4.998  13.707  21.853  0.00  0.00    +0.000 N 
ATOM     18  C   UNL     1      -6.056  12.919  22.510  0.00  0.00    +0.000 C 
ATOM     19  C   UNL     1      -6.311  13.504  23.898  0.00  0.00    +0.000 C 
ATOM     20  C   UNL     1      -6.586  15.007  23.863  0.00  0.00    +0.000 C 
ATOM     21  C   UNL     1      -5.583  15.776  23.006  0.00  0.00    +0.000 C 
ATOM     22  C   UNL     1      -5.382  15.103  21.645  0.00  0.00    +0.000 C 
BRANCH  20  23
ATOM     23  O   UNL     1      -7.913  15.263  23.405  0.00  0.00    +0.000 OA
ATOM     24  H   UNL     1      -7.961  16.173  23.069  0.00  0.00    +0.000 HD
ENDBRANCH  20  23
ENDBRANCH   6  17
BRANCH  13  25
ATOM     25  C   UNL     1       1.452  10.298  18.476  0.00  0.00    +0.000 C 
ATOM     26  O   UNL     1       2.439  10.909  18.082  0.00  0.00    +0.000 OA
BRANCH  25  27
ATOM     27  O   UNL     1       1.269   8.961  18.367  0.00  0.00    +0.000 OA
BRANCH  27  28
ATOM     28  C   UNL     1       2.061   8.164  19.257  0.00  0.00    +0.000 C 
BRANCH  28  29
ATOM     29  C   UNL     1       2.718   6.961  18.563  0.00  0.00    +0.000 C 
BRANCH  29  30
ATOM     30  N   UNL     1       1.974   5.697  18.754  0.00  0.00    +0.000 NA
ATOM     31  C   UNL     1       2.585   4.597  17.987  0.00  0.00    +0.000 C 
ATOM     32  C   UNL     1       1.819   3.288  18.169  0.00  0.00    +0.000 C 
ATOM     33  C   UNL     1       1.727   2.910  19.639  0.00  0.00    +0.000 C 
ATOM     34  C   UNL     1       1.152   4.070  20.442  0.00  0.00    +0.000 C 
ATOM     35  C   UNL     1       1.926   5.364  20.189  0.00  0.00    +0.000 C 
ENDBRANCH  29  30
ENDBRANCH  28  29
ENDBRANCH  27  28
ENDBRANCH  25  27
ENDBRANCH  13  25
TORSDOF 7
ENDMDL
MODEL 9
REMARK VINA RESULT:      -7.2      2.295      3.365
REMARK  Name = 
REMARK  8 active torsions:
REMARK  status: ('A' for Active; 'I' for Inactive)
REMARK    1  A    between atoms: C_1  and  C_2
REMARK    2  A    between atoms: C_6  and  N_7
REMARK    3  A    between atoms: C_10  and  O_11
REMARK    4  A    between atoms: C_20  and  C_21
REMARK    5  A    between atoms: C_21  and  O_23
REMARK    6  A    between atoms: O_23  and  C_24
REMARK    7  A    between atoms: C_24  and  C_25
REMARK    8  A    between atoms: C_25  and  N_26
REMARK                            x       y       z     vdW  Elec       q    Type
REMARK                         _______ _______ _______ _____ _____    ______ ____
ROOT
ATOM      1  C   UNL     1      -3.634   9.420  17.698  0.00  0.00    +0.000 C 
ATOM      2  C   UNL     1      -3.123  10.859  17.618  0.00  0.00    +0.000 C 
ATOM      3  C   UNL     1      -4.241  11.870  17.726  0.00  0.00    +0.000 C 
ATOM      4  C   UNL     1      -4.531  12.348  19.129  0.00  0.00    +0.000 C 
ATOM      5  C   UNL     1      -3.419  12.380  20.137  0.00  0.00    +0.000 A 
ATOM      6  C   UNL     1      -3.577  13.068  21.397  0.00  0.00    +0.000 A 
ATOM      7  C   UNL     1      -2.463  13.020  22.274  0.00  0.00    +0.000 A 
ATOM      8  F   UNL     1      -2.531  13.555  23.506  0.00  0.00    +0.000 F 
ATOM      9  C   UNL     1      -1.265  12.406  21.950  0.00  0.00    +0.000 A 
ATOM     10  C   UNL     1      -1.138  11.776  20.718  0.00  0.00    +0.000 A 
ATOM     11  C   UNL     1       0.172  11.147  20.410  0.00  0.00    +0.000 A 
ATOM     12  O   UNL     1       1.084  11.218  21.217  0.00  0.00    +0.000 OA
ATOM     13  C   UNL     1       0.301  10.482  19.098  0.00  0.00    +0.000 A 
ATOM     14  C   UNL     1      -0.767  10.513  18.291  0.00  0.00    +0.000 A 
ATOM     15  N   UNL     1      -2.006  11.084  18.550  0.00  0.00    +0.000 N 
ATOM     16  C   UNL     1      -2.205  11.733  19.794  0.00  0.00    +0.000 A 
ENDROOT
BRANCH   6  17
ATOM     17  N   UNL     1      -4.716  13.789  21.766  0.00  0.00    +0.000 N 
ATOM     18  C   UNL     1      -5.875  13.114  22.376  0.00  0.00    +0.000 C 
ATOM     19  C   UNL     1      -6.127  13.724  23.754  0.00  0.00    +0.000 C 
ATOM     20  C   UNL     1      -6.244  15.247  23.713  0.00  0.00    +0.000 C 
ATOM     21  C   UNL     1      -5.132  15.907  22.901  0.00  0.00    +0.000 C 
ATOM     22  C   UNL     1      -4.945  15.216  21.547  0.00  0.00    +0.000 C 
BRANCH  20  23
ATOM     23  O   UNL     1      -7.517  15.639  23.201  0.00  0.00    +0.000 OA
ATOM     24  H   UNL     1      -8.112  14.872  23.215  0.00  0.00    +0.000 HD
ENDBRANCH  20  23
ENDBRANCH   6  17
BRANCH  13  25
ATOM     25  C   UNL     1       1.462   9.694  18.652  0.00  0.00    +0.000 C 
ATOM     26  O   UNL     1       2.004   9.851  17.564  0.00  0.00    +0.000 OA
BRANCH  25  27
ATOM     27  O   UNL     1       1.735   8.691  19.520  0.00  0.00    +0.000 OA
BRANCH  27  28
ATOM     28  C   UNL     1       2.285   7.507  18.929  0.00  0.00    +0.000 C 
BRANCH  28  29
ATOM     29  C   UNL     1       2.358   6.326  19.909  0.00  0.00    +0.000 C 
BRANCH  29  30
ATOM     30  N   UNL     1       2.827   5.072  19.280  0.00  0.00    +0.000 NA
ATOM     31  C   UNL     1       2.244   4.898  17.937  0.00  0.00    +0.000 C 
ATOM     32  C   UNL     1       2.714   3.602  17.282  0.00  0.00    +0.000 C 
ATOM     33  C   UNL     1       4.231   3.549  17.202  0.00  0.00    +0.000 C 
ATOM     34  C   UNL     1       4.836   3.789  18.579  0.00  0.00    +0.000 C 
ATOM     35  C   UNL     1       4.299   5.075  19.209  0.00  0.00    +0.000 C 
ENDBRANCH  29  30
ENDBRANCH  28  29
ENDBRANCH  27  28
ENDBRANCH  25  27
ENDBRANCH  13  25
TORSDOF 7
ENDMDL
