MODEL 1
REMARK VINA RESULT:      -8.1      0.000      0.000
REMARK  Name = 
REMARK  6 active torsions:
REMARK  status: ('A' for Active; 'I' for Inactive)
REMARK    1  A    between atoms: C_2  and  O_3
REMARK    2  A    between atoms: C_2  and  C_4
REMARK    3  A    between atoms: C_8  and  C_9
REMARK    4  A    between atoms: C_9  and  O_10
REMARK    5  A    between atoms: O_10  and  C_11
REMARK    6  A    between atoms: C_15  and  C_16
REMARK                            x       y       z     vdW  Elec       q    Type
REMARK                         _______ _______ _______ _____ _____    ______ ____
ROOT
ATOM      1  C   UNL     1       3.736   6.764  17.840  0.00  0.00    +0.000 C 
ENDROOT
BRANCH   1   6
ATOM      2  C   UNL     1       6.597   5.008  15.984  0.00  0.00    +0.000 A 
ATOM      3  C   UNL     1       7.427   4.640  17.050  0.00  0.00    +0.000 A 
ATOM      4  C   UNL     1       7.043   4.932  18.358  0.00  0.00    +0.000 A 
ATOM      5  C   UNL     1       5.842   5.600  18.605  0.00  0.00    +0.000 A 
ATOM      6  C   UNL     1       5.007   5.991  17.547  0.00  0.00    +0.000 A 
ATOM      7  C   UNL     1       5.408   5.706  16.232  0.00  0.00    +0.000 A 
BRANCH   2   9
ATOM      8  O   UNL     1       7.665   5.437  13.899  0.00  0.00    +0.000 OA
ATOM      9  C   UNL     1       6.960   4.708  14.575  0.00  0.00    +0.000 C 
BRANCH   9  10
ATOM     10  O   UNL     1       6.398   3.575  14.102  0.00  0.00    +0.000 OA
ATOM     11  H   UNL     1       5.442   3.637  13.925  0.00  0.00    +0.000 HD
ENDBRANCH   9  10
ENDBRANCH   2   9
ENDBRANCH   1   6
BRANCH   1  12
ATOM     12  O   UNL     1       2.599   5.959  17.530  0.00  0.00    +0.000 OA
BRANCH  12  13
ATOM     13  C   UNL     1       2.484   4.750  18.153  0.00  0.00    +0.000 A 
ATOM     14  C   UNL     1       2.478   3.656  17.283  0.00  0.00    +0.000 A 
ATOM     15  C   UNL     1       2.368   2.355  17.770  0.00  0.00    +0.000 A 
ATOM     16  C   UNL     1       2.257   2.137  19.142  0.00  0.00    +0.000 A 
ATOM     17  C   UNL     1       2.254   3.220  20.034  0.00  0.00    +0.000 A 
ATOM     18  C   UNL     1       2.375   4.530  19.527  0.00  0.00    +0.000 A 
BRANCH  17  19
ATOM     19  C   UNL     1       2.116   2.994  21.520  0.00  0.00    +0.000 C 
ATOM     20  F   UNL     1       2.355   4.109  22.266  0.00  0.00    +0.000 F 
ATOM     21  F   UNL     1       0.870   2.572  21.870  0.00  0.00    +0.000 F 
ATOM     22  F   UNL     1       2.976   2.044  21.983  0.00  0.00    +0.000 F 
ENDBRANCH  17  19
ENDBRANCH  12  13
ENDBRANCH   1  12
TORSDOF 6
ENDMDL
MODEL 2
REMARK VINA RESULT:      -7.9      0.251      1.079
REMARK  Name = 
REMARK  6 active torsions:
REMARK  status: ('A' for Active; 'I' for Inactive)
REMARK    1  A    between atoms: C_2  and  O_3
REMARK    2  A    between atoms: C_2  and  C_4
REMARK    3  A    between atoms: C_8  and  C_9
REMARK    4  A    between atoms: C_9  and  O_10
REMARK    5  A    between atoms: O_10  and  C_11
REMARK    6  A    between atoms: C_15  and  C_16
REMARK                            x       y       z     vdW  Elec       q    Type
REMARK                         _______ _______ _______ _____ _____    ______ ____
ROOT
ATOM      1  C   UNL     1       3.605   6.750  18.022  0.00  0.00    +0.000 C 
ENDROOT
BRANCH   1   6
ATOM      2  C   UNL     1       6.439   5.136  16.004  0.00  0.00    +0.000 A 
ATOM      3  C   UNL     1       7.316   4.753  17.026  0.00  0.00    +0.000 A 
ATOM      4  C   UNL     1       6.974   4.990  18.356  0.00  0.00    +0.000 A 
ATOM      5  C   UNL     1       5.766   5.617  18.670  0.00  0.00    +0.000 A 
ATOM      6  C   UNL     1       4.883   6.022  17.657  0.00  0.00    +0.000 A 
ATOM      7  C   UNL     1       5.243   5.793  16.318  0.00  0.00    +0.000 A 
BRANCH   2   9
ATOM      8  O   UNL     1       6.068   4.203  13.844  0.00  0.00    +0.000 OA
ATOM      9  C   UNL     1       6.758   4.894  14.574  0.00  0.00    +0.000 C 
BRANCH   9  10
ATOM     10  O   UNL     1       7.908   5.476  14.171  0.00  0.00    +0.000 OA
ATOM     11  H   UNL     1       8.517   4.887  13.691  0.00  0.00    +0.000 HD
ENDBRANCH   9  10
ENDBRANCH   2   9
ENDBRANCH   1   6
BRANCH   1  12
ATOM     12  O   UNL     1       2.476   5.948  17.677  0.00  0.00    +0.000 OA
BRANCH  12  13
ATOM     13  C   UNL     1       2.356   4.725  18.273  0.00  0.00    +0.000 A 
ATOM     14  C   UNL     1       2.270   3.658  17.376  0.00  0.00    +0.000 A 
ATOM     15  C   UNL     1       2.145   2.347  17.833  0.00  0.00    +0.000 A 
ATOM     16  C   UNL     1       2.101   2.094  19.203  0.00  0.00    +0.000 A 
ATOM     17  C   UNL     1       2.179   3.150  20.122  0.00  0.00    +0.000 A 
ATOM     18  C   UNL     1       2.314   4.469  19.645  0.00  0.00    +0.000 A 
BRANCH  17  19
ATOM     19  C   UNL     1       2.113   2.886  21.607  0.00  0.00    +0.000 C 
ATOM     20  F   UNL     1       3.029   1.976  22.042  0.00  0.00    +0.000 F 
ATOM     21  F   UNL     1       2.325   4.010  22.345  0.00  0.00    +0.000 F 
ATOM     22  F   UNL     1       0.899   2.408  21.996  0.00  0.00    +0.000 F 
ENDBRANCH  17  19
ENDBRANCH  12  13
ENDBRANCH   1  12
TORSDOF 6
ENDMDL
MODEL 3
REMARK VINA RESULT:      -7.8      1.574      2.270
REMARK  Name = 
REMARK  6 active torsions:
REMARK  status: ('A' for Active; 'I' for Inactive)
REMARK    1  A    between atoms: C_2  and  O_3
REMARK    2  A    between atoms: C_2  and  C_4
REMARK    3  A    between atoms: C_8  and  C_9
REMARK    4  A    between atoms: C_9  and  O_10
REMARK    5  A    between atoms: O_10  and  C_11
REMARK    6  A    between atoms: C_15  and  C_16
REMARK                            x       y       z     vdW  Elec       q    Type
REMARK                         _______ _______ _______ _____ _____    ______ ____
ROOT
ATOM      1  C   UNL     1       4.237   7.435  17.642  0.00  0.00    +0.000 C 
ENDROOT
BRANCH   1   6
ATOM      2  C   UNL     1       6.706   5.099  15.865  0.00  0.00    +0.000 A 
ATOM      3  C   UNL     1       7.397   4.554  16.955  0.00  0.00    +0.000 A 
ATOM      4  C   UNL     1       7.041   4.920  18.252  0.00  0.00    +0.000 A 
ATOM      5  C   UNL     1       6.007   5.835  18.466  0.00  0.00    +0.000 A 
ATOM      6  C   UNL     1       5.316   6.403  17.385  0.00  0.00    +0.000 A 
ATOM      7  C   UNL     1       5.692   6.040  16.080  0.00  0.00    +0.000 A 
BRANCH   2   9
ATOM      8  O   UNL     1       7.790   5.391  13.765  0.00  0.00    +0.000 OA
ATOM      9  C   UNL     1       7.044   4.731  14.467  0.00  0.00    +0.000 C 
BRANCH   9  10
ATOM     10  O   UNL     1       6.409   3.621  14.033  0.00  0.00    +0.000 OA
ATOM     11  H   UNL     1       5.568   3.428  14.485  0.00  0.00    +0.000 HD
ENDBRANCH   9  10
ENDBRANCH   2   9
ENDBRANCH   1   6
BRANCH   1  12
ATOM     12  O   UNL     1       2.953   6.863  17.401  0.00  0.00    +0.000 OA
BRANCH  12  13
ATOM     13  C   UNL     1       2.490   5.936  18.291  0.00  0.00    +0.000 A 
ATOM     14  C   UNL     1       2.325   6.423  19.589  0.00  0.00    +0.000 A 
ATOM     15  C   UNL     1       1.858   5.596  20.609  0.00  0.00    +0.000 A 
ATOM     16  C   UNL     1       1.555   4.264  20.336  0.00  0.00    +0.000 A 
ATOM     17  C   UNL     1       1.718   3.751  19.041  0.00  0.00    +0.000 A 
ATOM     18  C   UNL     1       2.183   4.602  18.018  0.00  0.00    +0.000 A 
BRANCH  17  19
ATOM     19  C   UNL     1       1.410   2.305  18.739  0.00  0.00    +0.000 C 
ATOM     20  F   UNL     1       2.058   1.825  17.641  0.00  0.00    +0.000 F 
ATOM     21  F   UNL     1       1.749   1.475  19.764  0.00  0.00    +0.000 F 
ATOM     22  F   UNL     1       0.084   2.093  18.512  0.00  0.00    +0.000 F 
ENDBRANCH  17  19
ENDBRANCH  12  13
ENDBRANCH   1  12
TORSDOF 6
ENDMDL
MODEL 4
REMARK VINA RESULT:      -7.8      1.591      2.349
REMARK  Name = 
REMARK  6 active torsions:
REMARK  status: ('A' for Active; 'I' for Inactive)
REMARK    1  A    between atoms: C_2  and  O_3
REMARK    2  A    between atoms: C_2  and  C_4
REMARK    3  A    between atoms: C_8  and  C_9
REMARK    4  A    between atoms: C_9  and  O_10
REMARK    5  A    between atoms: O_10  and  C_11
REMARK    6  A    between atoms: C_15  and  C_16
REMARK                            x       y       z     vdW  Elec       q    Type
REMARK                         _______ _______ _______ _____ _____    ______ ____
ROOT
ATOM      1  C   UNL     1       4.177   7.443  17.638  0.00  0.00    +0.000 C 
ENDROOT
BRANCH   1   6
ATOM      2  C   UNL     1       6.550   5.099  15.743  0.00  0.00    +0.000 A 
ATOM      3  C   UNL     1       7.260   4.518  16.802  0.00  0.00    +0.000 A 
ATOM      4  C   UNL     1       6.947   4.862  18.116  0.00  0.00    +0.000 A 
ATOM      5  C   UNL     1       5.938   5.792  18.378  0.00  0.00    +0.000 A 
ATOM      6  C   UNL     1       5.228   6.396  17.328  0.00  0.00    +0.000 A 
ATOM      7  C   UNL     1       5.560   6.054  16.007  0.00  0.00    +0.000 A 
BRANCH   2   9
ATOM      8  O   UNL     1       6.253   3.877  13.721  0.00  0.00    +0.000 OA
ATOM      9  C   UNL     1       6.842   4.755  14.329  0.00  0.00    +0.000 C 
BRANCH   9  10
ATOM     10  O   UNL     1       7.851   5.475  13.795  0.00  0.00    +0.000 OA
ATOM     11  H   UNL     1       7.792   6.436  13.948  0.00  0.00    +0.000 HD
ENDBRANCH   9  10
ENDBRANCH   2   9
ENDBRANCH   1   6
BRANCH   1  12
ATOM     12  O   UNL     1       2.875   6.894  17.438  0.00  0.00    +0.000 OA
BRANCH  12  13
ATOM     13  C   UNL     1       2.441   5.945  18.318  0.00  0.00    +0.000 A 
ATOM     14  C   UNL     1       2.298   6.404  19.630  0.00  0.00    +0.000 A 
ATOM     15  C   UNL     1       1.861   5.552  20.642  0.00  0.00    +0.000 A 
ATOM     16  C   UNL     1       1.566   4.222  20.348  0.00  0.00    +0.000 A 
ATOM     17  C   UNL     1       1.709   3.737  19.040  0.00  0.00    +0.000 A 
ATOM     18  C   UNL     1       2.143   4.613  18.025  0.00  0.00    +0.000 A 
BRANCH  17  19
ATOM     19  C   UNL     1       1.410   2.293  18.716  0.00  0.00    +0.000 C 
ATOM     20  F   UNL     1       0.094   2.051  18.463  0.00  0.00    +0.000 F 
ATOM     21  F   UNL     1       2.087   1.854  17.619  0.00  0.00    +0.000 F 
ATOM     22  F   UNL     1       1.756   1.451  19.729  0.00  0.00    +0.000 F 
ENDBRANCH  17  19
ENDBRANCH  12  13
ENDBRANCH   1  12
TORSDOF 6
ENDMDL
MODEL 5
REMARK VINA RESULT:      -7.8      2.220      3.697
REMARK  Name = 
REMARK  6 active torsions:
REMARK  status: ('A' for Active; 'I' for Inactive)
REMARK    1  A    between atoms: C_2  and  O_3
REMARK    2  A    between atoms: C_2  and  C_4
REMARK    3  A    between atoms: C_8  and  C_9
REMARK    4  A    between atoms: C_9  and  O_10
REMARK    5  A    between atoms: O_10  and  C_11
REMARK    6  A    between atoms: C_15  and  C_16
REMARK                            x       y       z     vdW  Elec       q    Type
REMARK                         _______ _______ _______ _____ _____    ______ ____
ROOT
ATOM      1  C   UNL     1       6.255   4.635  16.110  0.00  0.00    +0.000 C 
ENDROOT
BRANCH   1   6
ATOM      2  C   UNL     1       6.126   3.500  12.448  0.00  0.00    +0.000 A 
ATOM      3  C   UNL     1       7.121   4.305  11.880  0.00  0.00    +0.000 A 
ATOM      4  C   UNL     1       7.846   5.182  12.685  0.00  0.00    +0.000 A 
ATOM      5  C   UNL     1       7.574   5.268  14.052  0.00  0.00    +0.000 A 
ATOM      6  C   UNL     1       6.569   4.481  14.635  0.00  0.00    +0.000 A 
ATOM      7  C   UNL     1       5.833   3.611  13.813  0.00  0.00    +0.000 A 
BRANCH   2   9
ATOM      8  O   UNL     1       5.759   1.454  11.287  0.00  0.00    +0.000 OA
ATOM      9  C   UNL     1       5.336   2.544  11.631  0.00  0.00    +0.000 C 
BRANCH   9  10
ATOM     10  O   UNL     1       4.124   3.016  11.269  0.00  0.00    +0.000 OA
ATOM     11  H   UNL     1       3.418   2.873  11.924  0.00  0.00    +0.000 HD
ENDBRANCH   9  10
ENDBRANCH   2   9
ENDBRANCH   1   6
BRANCH   1  12
ATOM     12  O   UNL     1       5.302   3.650  16.507  0.00  0.00    +0.000 OA
BRANCH  12  13
ATOM     13  C   UNL     1       4.222   4.063  17.232  0.00  0.00    +0.000 A 
ATOM     14  C   UNL     1       4.082   5.451  17.311  0.00  0.00    +0.000 A 
ATOM     15  C   UNL     1       3.026   6.024  18.016  0.00  0.00    +0.000 A 
ATOM     16  C   UNL     1       2.098   5.207  18.658  0.00  0.00    +0.000 A 
ATOM     17  C   UNL     1       2.221   3.812  18.599  0.00  0.00    +0.000 A 
ATOM     18  C   UNL     1       3.290   3.246  17.874  0.00  0.00    +0.000 A 
BRANCH  17  19
ATOM     19  C   UNL     1       1.231   2.919  19.306  0.00  0.00    +0.000 C 
ATOM     20  F   UNL     1       1.804   1.848  19.923  0.00  0.00    +0.000 F 
ATOM     21  F   UNL     1       0.534   3.577  20.273  0.00  0.00    +0.000 F 
ATOM     22  F   UNL     1       0.298   2.405  18.457  0.00  0.00    +0.000 F 
ENDBRANCH  17  19
ENDBRANCH  12  13
ENDBRANCH   1  12
TORSDOF 6
ENDMDL
MODEL 6
REMARK VINA RESULT:      -7.7      1.621      2.120
REMARK  Name = 
REMARK  6 active torsions:
REMARK  status: ('A' for Active; 'I' for Inactive)
REMARK    1  A    between atoms: C_2  and  O_3
REMARK    2  A    between atoms: C_2  and  C_4
REMARK    3  A    between atoms: C_8  and  C_9
REMARK    4  A    between atoms: C_9  and  O_10
REMARK    5  A    between atoms: O_10  and  C_11
REMARK    6  A    between atoms: C_15  and  C_16
REMARK                            x       y       z     vdW  Elec       q    Type
REMARK                         _______ _______ _______ _____ _____    ______ ____
ROOT
ATOM      1  C   UNL     1       3.349   7.088  17.979  0.00  0.00    +0.000 C 
ENDROOT
BRANCH   1   6
ATOM      2  C   UNL     1       6.753   5.394  17.475  0.00  0.00    +0.000 A 
ATOM      3  C   UNL     1       6.819   5.328  16.077  0.00  0.00    +0.000 A 
ATOM      4  C   UNL     1       5.783   5.857  15.310  0.00  0.00    +0.000 A 
ATOM      5  C   UNL     1       4.676   6.441  15.931  0.00  0.00    +0.000 A 
ATOM      6  C   UNL     1       4.586   6.500  17.330  0.00  0.00    +0.000 A 
ATOM      7  C   UNL     1       5.628   5.951  18.096  0.00  0.00    +0.000 A 
BRANCH   2   9
ATOM      8  O   UNL     1       8.068   5.264  19.456  0.00  0.00    +0.000 OA
ATOM      9  C   UNL     1       7.838   4.852  18.332  0.00  0.00    +0.000 C 
BRANCH   9  10
ATOM     10  O   UNL     1       8.574   3.893  17.730  0.00  0.00    +0.000 OA
ATOM     11  H   UNL     1       8.057   3.233  17.234  0.00  0.00    +0.000 HD
ENDBRANCH   9  10
ENDBRANCH   2   9
ENDBRANCH   1   6
BRANCH   1  12
ATOM     12  O   UNL     1       2.224   6.249  17.723  0.00  0.00    +0.000 OA
BRANCH  12  13
ATOM     13  C   UNL     1       2.216   5.003  18.281  0.00  0.00    +0.000 A 
ATOM     14  C   UNL     1       2.180   3.960  17.353  0.00  0.00    +0.000 A 
ATOM     15  C   UNL     1       2.170   2.631  17.770  0.00  0.00    +0.000 A 
ATOM     16  C   UNL     1       2.190   2.333  19.131  0.00  0.00    +0.000 A 
ATOM     17  C   UNL     1       2.219   3.363  20.082  0.00  0.00    +0.000 A 
ATOM     18  C   UNL     1       2.238   4.703  19.645  0.00  0.00    +0.000 A 
BRANCH  17  19
ATOM     19  C   UNL     1       2.222   3.050  21.559  0.00  0.00    +0.000 C 
ATOM     20  F   UNL     1       2.468   4.134  22.347  0.00  0.00    +0.000 F 
ATOM     21  F   UNL     1       1.033   2.541  21.986  0.00  0.00    +0.000 F 
ATOM     22  F   UNL     1       3.165   2.125  21.891  0.00  0.00    +0.000 F 
ENDBRANCH  17  19
ENDBRANCH  12  13
ENDBRANCH   1  12
TORSDOF 6
ENDMDL
MODEL 7
REMARK VINA RESULT:      -7.6      3.966      6.347
REMARK  Name = 
REMARK  6 active torsions:
REMARK  status: ('A' for Active; 'I' for Inactive)
REMARK    1  A    between atoms: C_2  and  O_3
REMARK    2  A    between atoms: C_2  and  C_4
REMARK    3  A    between atoms: C_8  and  C_9
REMARK    4  A    between atoms: C_9  and  O_10
REMARK    5  A    between atoms: O_10  and  C_11
REMARK    6  A    between atoms: C_15  and  C_16
REMARK                            x       y       z     vdW  Elec       q    Type
REMARK                         _______ _______ _______ _____ _____    ______ ____
ROOT
ATOM      1  C   UNL     1       3.159   7.196  17.495  0.00  0.00    +0.000 C 
ENDROOT
BRANCH   1   6
ATOM      2  C   UNL     1       1.601   3.995  18.923  0.00  0.00    +0.000 A 
ATOM      3  C   UNL     1       1.444   4.347  20.270  0.00  0.00    +0.000 A 
ATOM      4  C   UNL     1       1.811   5.621  20.699  0.00  0.00    +0.000 A 
ATOM      5  C   UNL     1       2.346   6.541  19.794  0.00  0.00    +0.000 A 
ATOM      6  C   UNL     1       2.525   6.199  18.445  0.00  0.00    +0.000 A 
ATOM      7  C   UNL     1       2.166   4.908  18.024  0.00  0.00    +0.000 A 
BRANCH   2   9
ATOM      8  O   UNL     1       0.200   2.075  18.773  0.00  0.00    +0.000 OA
ATOM      9  C   UNL     1       1.213   2.653  18.419  0.00  0.00    +0.000 C 
BRANCH   9  10
ATOM     10  O   UNL     1       2.112   2.117  17.566  0.00  0.00    +0.000 OA
ATOM     11  H   UNL     1       1.896   2.228  16.622  0.00  0.00    +0.000 HD
ENDBRANCH   9  10
ENDBRANCH   2   9
ENDBRANCH   1   6
BRANCH   1  12
ATOM     12  O   UNL     1       4.553   7.311  17.776  0.00  0.00    +0.000 OA
BRANCH  12  13
ATOM     13  C   UNL     1       5.392   6.376  17.239  0.00  0.00    +0.000 A 
ATOM     14  C   UNL     1       6.401   5.948  18.105  0.00  0.00    +0.000 A 
ATOM     15  C   UNL     1       7.333   4.995  17.701  0.00  0.00    +0.000 A 
ATOM     16  C   UNL     1       7.266   4.463  16.415  0.00  0.00    +0.000 A 
ATOM     17  C   UNL     1       6.266   4.882  15.526  0.00  0.00    +0.000 A 
ATOM     18  C   UNL     1       5.324   5.840  15.952  0.00  0.00    +0.000 A 
BRANCH  17  19
ATOM     19  C   UNL     1       6.196   4.325  14.125  0.00  0.00    +0.000 C 
ATOM     20  F   UNL     1       6.468   2.992  14.052  0.00  0.00    +0.000 F 
ATOM     21  F   UNL     1       4.968   4.486  13.560  0.00  0.00    +0.000 F 
ATOM     22  F   UNL     1       7.077   4.931  13.281  0.00  0.00    +0.000 F 
ENDBRANCH  17  19
ENDBRANCH  12  13
ENDBRANCH   1  12
TORSDOF 6
ENDMDL
MODEL 8
REMARK VINA RESULT:      -7.6      2.161      3.569
REMARK  Name = 
REMARK  6 active torsions:
REMARK  status: ('A' for Active; 'I' for Inactive)
REMARK    1  A    between atoms: C_2  and  O_3
REMARK    2  A    between atoms: C_2  and  C_4
REMARK    3  A    between atoms: C_8  and  C_9
REMARK    4  A    between atoms: C_9  and  O_10
REMARK    5  A    between atoms: O_10  and  C_11
REMARK    6  A    between atoms: C_15  and  C_16
REMARK                            x       y       z     vdW  Elec       q    Type
REMARK                         _______ _______ _______ _____ _____    ______ ____
ROOT
ATOM      1  C   UNL     1       5.979   4.610  16.082  0.00  0.00    +0.000 C 
ENDROOT
BRANCH   1   6
ATOM      2  C   UNL     1       6.096   3.451  12.428  0.00  0.00    +0.000 A 
ATOM      3  C   UNL     1       7.133   4.246  11.924  0.00  0.00    +0.000 A 
ATOM      4  C   UNL     1       7.806   5.125  12.771  0.00  0.00    +0.000 A 
ATOM      5  C   UNL     1       7.441   5.222  14.116  0.00  0.00    +0.000 A 
ATOM      6  C   UNL     1       6.393   4.445  14.633  0.00  0.00    +0.000 A 
ATOM      7  C   UNL     1       5.710   3.573  13.768  0.00  0.00    +0.000 A 
BRANCH   2   9
ATOM      8  O   UNL     1       4.262   2.733  11.089  0.00  0.00    +0.000 OA
ATOM      9  C   UNL     1       5.359   2.494  11.564  0.00  0.00    +0.000 C 
BRANCH   9  10
ATOM     10  O   UNL     1       5.999   1.317  11.394  0.00  0.00    +0.000 OA
ATOM     11  H   UNL     1       6.854   1.246  11.857  0.00  0.00    +0.000 HD
ENDBRANCH   9  10
ENDBRANCH   2   9
ENDBRANCH   1   6
BRANCH   1  12
ATOM     12  O   UNL     1       4.726   3.966  16.303  0.00  0.00    +0.000 OA
BRANCH  12  13
ATOM     13  C   UNL     1       3.910   4.474  17.273  0.00  0.00    +0.000 A 
ATOM     14  C   UNL     1       4.029   5.854  17.456  0.00  0.00    +0.000 A 
ATOM     15  C   UNL     1       3.259   6.518  18.410  0.00  0.00    +0.000 A 
ATOM     16  C   UNL     1       2.362   5.799  19.197  0.00  0.00    +0.000 A 
ATOM     17  C   UNL     1       2.230   4.413  19.036  0.00  0.00    +0.000 A 
ATOM     18  C   UNL     1       3.009   3.756  18.061  0.00  0.00    +0.000 A 
BRANCH  17  19
ATOM     19  C   UNL     1       1.274   3.623  19.897  0.00  0.00    +0.000 C 
ATOM     20  F   UNL     1       0.369   4.397  20.560  0.00  0.00    +0.000 F 
ATOM     21  F   UNL     1       0.543   2.728  19.177  0.00  0.00    +0.000 F 
ATOM     22  F   UNL     1       1.916   2.897  20.854  0.00  0.00    +0.000 F 
ENDBRANCH  17  19
ENDBRANCH  12  13
ENDBRANCH   1  12
TORSDOF 6
ENDMDL
MODEL 9
REMARK VINA RESULT:      -7.5      2.282      3.090
REMARK  Name = 
REMARK  6 active torsions:
REMARK  status: ('A' for Active; 'I' for Inactive)
REMARK    1  A    between atoms: C_2  and  O_3
REMARK    2  A    between atoms: C_2  and  C_4
REMARK    3  A    between atoms: C_8  and  C_9
REMARK    4  A    between atoms: C_9  and  O_10
REMARK    5  A    between atoms: O_10  and  C_11
REMARK    6  A    between atoms: C_15  and  C_16
REMARK                            x       y       z     vdW  Elec       q    Type
REMARK                         _______ _______ _______ _____ _____    ______ ____
ROOT
ATOM      1  C   UNL     1       3.814   7.732  17.532  0.00  0.00    +0.000 C 
ENDROOT
BRANCH   1   6
ATOM      2  C   UNL     1       6.787   5.318  17.321  0.00  0.00    +0.000 A 
ATOM      3  C   UNL     1       6.748   4.957  15.968  0.00  0.00    +0.000 A 
ATOM      4  C   UNL     1       5.786   5.517  15.131  0.00  0.00    +0.000 A 
ATOM      5  C   UNL     1       4.855   6.427  15.638  0.00  0.00    +0.000 A 
ATOM      6  C   UNL     1       4.870   6.787  16.994  0.00  0.00    +0.000 A 
ATOM      7  C   UNL     1       5.834   6.206  17.835  0.00  0.00    +0.000 A 
BRANCH   2   9
ATOM      8  O   UNL     1       8.674   3.982  17.892  0.00  0.00    +0.000 OA
ATOM      9  C   UNL     1       7.801   4.754  18.248  0.00  0.00    +0.000 C 
BRANCH   9  10
ATOM     10  O   UNL     1       7.635   5.144  19.531  0.00  0.00    +0.000 OA
ATOM     11  H   UNL     1       8.264   4.749  20.162  0.00  0.00    +0.000 HD
ENDBRANCH   9  10
ENDBRANCH   2   9
ENDBRANCH   1   6
BRANCH   1  12
ATOM     12  O   UNL     1       2.533   7.107  17.478  0.00  0.00    +0.000 OA
BRANCH  12  13
ATOM     13  C   UNL     1       2.286   6.083  18.347  0.00  0.00    +0.000 A 
ATOM     14  C   UNL     1       2.326   6.452  19.693  0.00  0.00    +0.000 A 
ATOM     15  C   UNL     1       2.092   5.516  20.699  0.00  0.00    +0.000 A 
ATOM     16  C   UNL     1       1.819   4.192  20.362  0.00  0.00    +0.000 A 
ATOM     17  C   UNL     1       1.780   3.797  19.017  0.00  0.00    +0.000 A 
ATOM     18  C   UNL     1       2.010   4.757  18.011  0.00  0.00    +0.000 A 
BRANCH  17  19
ATOM     19  C   UNL     1       1.504   2.361  18.643  0.00  0.00    +0.000 C 
ATOM     20  F   UNL     1       1.918   1.462  19.579  0.00  0.00    +0.000 F 
ATOM     21  F   UNL     1       0.177   2.117  18.455  0.00  0.00    +0.000 F 
ATOM     22  F   UNL     1       2.118   1.999  17.482  0.00  0.00    +0.000 F 
ENDBRANCH  17  19
ENDBRANCH  12  13
ENDBRANCH   1  12
TORSDOF 6
ENDMDL
