MODEL 1
REMARK VINA RESULT:      -6.6      0.000      0.000
REMARK  Name = 
REMARK  8 active torsions:
REMARK  status: ('A' for Active; 'I' for Inactive)
REMARK    1  A    between atoms: C_1  and  C_2
REMARK    2  A    between atoms: C_2  and  O_3
REMARK    3  A    between atoms: O_3  and  C_4
REMARK    4  A    between atoms: C_9  and  C_10
REMARK    5  A    between atoms: C_10  and  O_12
REMARK    6  A    between atoms: O_12  and  C_13
REMARK    7  A    between atoms: C_13  and  C_14
REMARK    8  A    between atoms: N_16  and  C_17
REMARK                            x       y       z     vdW  Elec       q    Type
REMARK                         _______ _______ _______ _____ _____    ______ ____
ROOT
ATOM      1  C   UNL     1       5.402   4.204  17.909  0.00  0.00    +0.000 C 
ATOM      2  O   UNL     1       6.192   4.241  18.842  0.00  0.00    +0.000 OA
ENDROOT
BRANCH   1   8
ATOM      3  C   UNL     1       3.074   4.872  18.671  0.00  0.00    +0.000 A 
ATOM      4  N   UNL     1       1.775   4.573  18.933  0.00  0.00    +0.000 NA
ATOM      5  C   UNL     1       1.347   3.332  18.619  0.00  0.00    +0.000 A 
ATOM      6  C   UNL     1       2.143   2.373  18.018  0.00  0.00    +0.000 A 
ATOM      7  C   UNL     1       3.465   2.704  17.738  0.00  0.00    +0.000 A 
ATOM      8  C   UNL     1       3.954   3.971  18.081  0.00  0.00    +0.000 A 
BRANCH   3   9
ATOM      9  O   UNL     1       3.493   6.158  18.936  0.00  0.00    +0.000 OA
BRANCH   9  11
ATOM     10  C   UNL     1       2.314   8.153  18.343  0.00  0.00    +0.000 C 
ATOM     11  C   UNL     1       3.230   7.048  17.848  0.00  0.00    +0.000 C 
ENDBRANCH   9  11
ENDBRANCH   3   9
ENDBRANCH   1   8
BRANCH   1  12
ATOM     12  O   UNL     1       5.656   4.631  16.651  0.00  0.00    +0.000 OA
BRANCH  12  13
ATOM     13  C   UNL     1       6.982   4.391  16.187  0.00  0.00    +0.000 C 
BRANCH  13  14
ATOM     14  C   UNL     1       7.012   4.612  14.676  0.00  0.00    +0.000 C 
ATOM     15  O   UNL     1       7.688   5.497  14.155  0.00  0.00    +0.000 OA
ATOM     16  N   UNL     1       6.254   3.701  13.962  0.00  0.00    +0.000 N 
ATOM     17  H   UNL     1       5.800   2.947  14.476  0.00  0.00    +0.000 HD
BRANCH  16  18
ATOM     18  C   UNL     1       6.181   3.706  12.538  0.00  0.00    +0.000 C 
ATOM     19  C   UNL     1       7.009   2.770  11.701  0.00  0.00    +0.000 C 
ATOM     20  C   UNL     1       5.528   2.559  11.816  0.00  0.00    +0.000 C 
ENDBRANCH  16  18
ENDBRANCH  13  14
ENDBRANCH  12  13
ENDBRANCH   1  12
TORSDOF 7
ENDMDL
MODEL 2
REMARK VINA RESULT:      -6.5      2.533      6.919
REMARK  Name = 
REMARK  8 active torsions:
REMARK  status: ('A' for Active; 'I' for Inactive)
REMARK    1  A    between atoms: C_1  and  C_2
REMARK    2  A    between atoms: C_2  and  O_3
REMARK    3  A    between atoms: O_3  and  C_4
REMARK    4  A    between atoms: C_9  and  C_10
REMARK    5  A    between atoms: C_10  and  O_12
REMARK    6  A    between atoms: O_12  and  C_13
REMARK    7  A    between atoms: C_13  and  C_14
REMARK    8  A    between atoms: N_16  and  C_17
REMARK                            x       y       z     vdW  Elec       q    Type
REMARK                         _______ _______ _______ _____ _____    ______ ____
ROOT
ATOM      1  C   UNL     1       5.071   4.449  18.723  0.00  0.00    +0.000 C 
ATOM      2  O   UNL     1       4.975   3.484  19.469  0.00  0.00    +0.000 OA
ENDROOT
BRANCH   1   8
ATOM      3  C   UNL     1       7.130   4.610  17.246  0.00  0.00    +0.000 A 
ATOM      4  N   UNL     1       7.714   4.690  16.022  0.00  0.00    +0.000 NA
ATOM      5  C   UNL     1       6.913   4.579  14.941  0.00  0.00    +0.000 A 
ATOM      6  C   UNL     1       5.549   4.356  15.015  0.00  0.00    +0.000 A 
ATOM      7  C   UNL     1       4.972   4.256  16.277  0.00  0.00    +0.000 A 
ATOM      8  C   UNL     1       5.766   4.400  17.421  0.00  0.00    +0.000 A 
BRANCH   3   9
ATOM      9  O   UNL     1       7.958   4.663  18.347  0.00  0.00    +0.000 OA
BRANCH   9  11
ATOM     10  C   UNL     1       7.750   7.020  17.997  0.00  0.00    +0.000 C 
ATOM     11  C   UNL     1       7.866   5.915  19.031  0.00  0.00    +0.000 C 
ENDBRANCH   9  11
ENDBRANCH   3   9
ENDBRANCH   1   8
BRANCH   1  12
ATOM     12  O   UNL     1       4.353   5.590  18.822  0.00  0.00    +0.000 OA
BRANCH  12  13
ATOM     13  C   UNL     1       3.166   5.492  19.605  0.00  0.00    +0.000 C 
BRANCH  13  14
ATOM     14  C   UNL     1       2.431   6.829  19.538  0.00  0.00    +0.000 C 
ATOM     15  O   UNL     1       2.218   7.408  18.475  0.00  0.00    +0.000 OA
ATOM     16  N   UNL     1       1.994   7.290  20.767  0.00  0.00    +0.000 N 
ATOM     17  H   UNL     1       2.140   6.695  21.582  0.00  0.00    +0.000 HD
BRANCH  16  18
ATOM     18  C   UNL     1       1.251   8.497  20.918  0.00  0.00    +0.000 C 
ATOM     19  C   UNL     1      -0.089   8.520  21.600  0.00  0.00    +0.000 C 
ATOM     20  C   UNL     1       1.105   9.124  22.278  0.00  0.00    +0.000 C 
ENDBRANCH  16  18
ENDBRANCH  13  14
ENDBRANCH  12  13
ENDBRANCH   1  12
TORSDOF 7
ENDMDL
MODEL 3
REMARK VINA RESULT:      -6.5      1.796      2.657
REMARK  Name = 
REMARK  8 active torsions:
REMARK  status: ('A' for Active; 'I' for Inactive)
REMARK    1  A    between atoms: C_1  and  C_2
REMARK    2  A    between atoms: C_2  and  O_3
REMARK    3  A    between atoms: O_3  and  C_4
REMARK    4  A    between atoms: C_9  and  C_10
REMARK    5  A    between atoms: C_10  and  O_12
REMARK    6  A    between atoms: O_12  and  C_13
REMARK    7  A    between atoms: C_13  and  C_14
REMARK    8  A    between atoms: N_16  and  C_17
REMARK                            x       y       z     vdW  Elec       q    Type
REMARK                         _______ _______ _______ _____ _____    ______ ____
ROOT
ATOM      1  C   UNL     1       5.586   4.391  17.610  0.00  0.00    +0.000 C 
ATOM      2  O   UNL     1       6.295   4.107  18.566  0.00  0.00    +0.000 OA
ENDROOT
BRANCH   1   8
ATOM      3  C   UNL     1       4.851   6.801  17.296  0.00  0.00    +0.000 A 
ATOM      4  N   UNL     1       3.945   7.801  17.458  0.00  0.00    +0.000 NA
ATOM      5  C   UNL     1       2.750   7.476  17.996  0.00  0.00    +0.000 A 
ATOM      6  C   UNL     1       2.392   6.188  18.353  0.00  0.00    +0.000 A 
ATOM      7  C   UNL     1       3.324   5.174  18.160  0.00  0.00    +0.000 A 
ATOM      8  C   UNL     1       4.587   5.479  17.637  0.00  0.00    +0.000 A 
BRANCH   3   9
ATOM      9  O   UNL     1       6.048   7.123  16.692  0.00  0.00    +0.000 OA
BRANCH   9  11
ATOM     10  C   UNL     1       7.936   7.124  18.160  0.00  0.00    +0.000 C 
ATOM     11  C   UNL     1       6.856   7.971  17.512  0.00  0.00    +0.000 C 
ENDBRANCH   9  11
ENDBRANCH   3   9
ENDBRANCH   1   8
BRANCH   1  12
ATOM     12  O   UNL     1       5.781   3.973  16.339  0.00  0.00    +0.000 OA
BRANCH  12  13
ATOM     13  C   UNL     1       7.076   4.239  15.806  0.00  0.00    +0.000 C 
BRANCH  13  14
ATOM     14  C   UNL     1       6.946   4.434  14.297  0.00  0.00    +0.000 C 
ATOM     15  O   UNL     1       7.484   5.369  13.707  0.00  0.00    +0.000 OA
ATOM     16  N   UNL     1       6.218   3.442  13.665  0.00  0.00    +0.000 N 
ATOM     17  H   UNL     1       5.887   2.659  14.227  0.00  0.00    +0.000 HD
BRANCH  16  18
ATOM     18  C   UNL     1       6.015   3.414  12.254  0.00  0.00    +0.000 C 
ATOM     19  C   UNL     1       5.649   2.146  11.534  0.00  0.00    +0.000 C 
ATOM     20  C   UNL     1       4.628   3.233  11.699  0.00  0.00    +0.000 C 
ENDBRANCH  16  18
ENDBRANCH  13  14
ENDBRANCH  12  13
ENDBRANCH   1  12
TORSDOF 7
ENDMDL
MODEL 4
REMARK VINA RESULT:      -6.4      2.040      6.307
REMARK  Name = 
REMARK  8 active torsions:
REMARK  status: ('A' for Active; 'I' for Inactive)
REMARK    1  A    between atoms: C_1  and  C_2
REMARK    2  A    between atoms: C_2  and  O_3
REMARK    3  A    between atoms: O_3  and  C_4
REMARK    4  A    between atoms: C_9  and  C_10
REMARK    5  A    between atoms: C_10  and  O_12
REMARK    6  A    between atoms: O_12  and  C_13
REMARK    7  A    between atoms: C_13  and  C_14
REMARK    8  A    between atoms: N_16  and  C_17
REMARK                            x       y       z     vdW  Elec       q    Type
REMARK                         _______ _______ _______ _____ _____    ______ ____
ROOT
ATOM      1  C   UNL     1       4.514   3.981  17.269  0.00  0.00    +0.000 C 
ATOM      2  O   UNL     1       4.331   2.913  17.837  0.00  0.00    +0.000 OA
ENDROOT
BRANCH   1   8
ATOM      3  C   UNL     1       6.825   4.512  16.364  0.00  0.00    +0.000 A 
ATOM      4  N   UNL     1       7.664   4.800  15.334  0.00  0.00    +0.000 NA
ATOM      5  C   UNL     1       7.153   4.758  14.085  0.00  0.00    +0.000 A 
ATOM      6  C   UNL     1       5.845   4.408  13.801  0.00  0.00    +0.000 A 
ATOM      7  C   UNL     1       5.007   4.096  14.866  0.00  0.00    +0.000 A 
ATOM      8  C   UNL     1       5.492   4.161  16.178  0.00  0.00    +0.000 A 
BRANCH   3   9
ATOM      9  O   UNL     1       7.364   4.496  17.633  0.00  0.00    +0.000 OA
BRANCH   9  11
ATOM     10  C   UNL     1       7.669   5.752  19.645  0.00  0.00    +0.000 C 
ATOM     11  C   UNL     1       7.615   5.813  18.129  0.00  0.00    +0.000 C 
ENDBRANCH   9  11
ENDBRANCH   3   9
ENDBRANCH   1   8
BRANCH   1  12
ATOM     12  O   UNL     1       3.696   5.056  17.340  0.00  0.00    +0.000 OA
BRANCH  12  13
ATOM     13  C   UNL     1       4.005   5.983  18.378  0.00  0.00    +0.000 C 
BRANCH  13  14
ATOM     14  C   UNL     1       2.982   5.811  19.499  0.00  0.00    +0.000 C 
ATOM     15  O   UNL     1       2.225   6.718  19.842  0.00  0.00    +0.000 OA
ATOM     16  N   UNL     1       2.958   4.541  20.045  0.00  0.00    +0.000 N 
ATOM     17  H   UNL     1       3.561   3.830  19.633  0.00  0.00    +0.000 HD
BRANCH  16  18
ATOM     18  C   UNL     1       2.048   4.161  21.075  0.00  0.00    +0.000 C 
ATOM     19  C   UNL     1       1.041   3.062  20.872  0.00  0.00    +0.000 C 
ATOM     20  C   UNL     1       2.217   2.841  21.777  0.00  0.00    +0.000 C 
ENDBRANCH  16  18
ENDBRANCH  13  14
ENDBRANCH  12  13
ENDBRANCH   1  12
TORSDOF 7
ENDMDL
MODEL 5
REMARK VINA RESULT:      -6.4      1.319      2.826
REMARK  Name = 
REMARK  8 active torsions:
REMARK  status: ('A' for Active; 'I' for Inactive)
REMARK    1  A    between atoms: C_1  and  C_2
REMARK    2  A    between atoms: C_2  and  O_3
REMARK    3  A    between atoms: O_3  and  C_4
REMARK    4  A    between atoms: C_9  and  C_10
REMARK    5  A    between atoms: C_10  and  O_12
REMARK    6  A    between atoms: O_12  and  C_13
REMARK    7  A    between atoms: C_13  and  C_14
REMARK    8  A    between atoms: N_16  and  C_17
REMARK                            x       y       z     vdW  Elec       q    Type
REMARK                         _______ _______ _______ _____ _____    ______ ____
ROOT
ATOM      1  C   UNL     1       5.681   6.181  16.889  0.00  0.00    +0.000 C 
ATOM      2  O   UNL     1       6.596   6.973  16.712  0.00  0.00    +0.000 OA
ENDROOT
BRANCH   1   8
ATOM      3  C   UNL     1       4.237   5.602  18.895  0.00  0.00    +0.000 A 
ATOM      4  N   UNL     1       3.125   5.784  19.654  0.00  0.00    +0.000 NA
ATOM      5  C   UNL     1       2.306   6.804  19.323  0.00  0.00    +0.000 A 
ATOM      6  C   UNL     1       2.554   7.684  18.284  0.00  0.00    +0.000 A 
ATOM      7  C   UNL     1       3.708   7.495  17.531  0.00  0.00    +0.000 A 
ATOM      8  C   UNL     1       4.565   6.426  17.824  0.00  0.00    +0.000 A 
BRANCH   3   9
ATOM      9  O   UNL     1       5.103   4.598  19.271  0.00  0.00    +0.000 OA
BRANCH   9  11
ATOM     10  C   UNL     1       3.956   2.806  18.179  0.00  0.00    +0.000 C 
ATOM     11  C   UNL     1       4.425   3.362  19.511  0.00  0.00    +0.000 C 
ENDBRANCH   9  11
ENDBRANCH   3   9
ENDBRANCH   1   8
BRANCH   1  12
ATOM     12  O   UNL     1       5.393   5.126  16.091  0.00  0.00    +0.000 OA
BRANCH  12  13
ATOM     13  C   UNL     1       6.510   4.317  15.734  0.00  0.00    +0.000 C 
BRANCH  13  14
ATOM     14  C   UNL     1       6.695   4.390  14.219  0.00  0.00    +0.000 C 
ATOM     15  O   UNL     1       7.429   5.221  13.687  0.00  0.00    +0.000 OA
ATOM     16  N   UNL     1       6.004   3.415  13.523  0.00  0.00    +0.000 N 
ATOM     17  H   UNL     1       5.493   2.715  14.059  0.00  0.00    +0.000 HD
BRANCH  16  18
ATOM     18  C   UNL     1       6.075   3.283  12.105  0.00  0.00    +0.000 C 
ATOM     19  C   UNL     1       7.119   2.427  11.443  0.00  0.00    +0.000 C 
ATOM     20  C   UNL     1       5.686   1.985  11.452  0.00  0.00    +0.000 C 
ENDBRANCH  16  18
ENDBRANCH  13  14
ENDBRANCH  12  13
ENDBRANCH   1  12
TORSDOF 7
ENDMDL
MODEL 6
REMARK VINA RESULT:      -6.4      1.461      2.774
REMARK  Name = 
REMARK  8 active torsions:
REMARK  status: ('A' for Active; 'I' for Inactive)
REMARK    1  A    between atoms: C_1  and  C_2
REMARK    2  A    between atoms: C_2  and  O_3
REMARK    3  A    between atoms: O_3  and  C_4
REMARK    4  A    between atoms: C_9  and  C_10
REMARK    5  A    between atoms: C_10  and  O_12
REMARK    6  A    between atoms: O_12  and  C_13
REMARK    7  A    between atoms: C_13  and  C_14
REMARK    8  A    between atoms: N_16  and  C_17
REMARK                            x       y       z     vdW  Elec       q    Type
REMARK                         _______ _______ _______ _____ _____    ______ ____
ROOT
ATOM      1  C   UNL     1       4.534   4.508  17.822  0.00  0.00    +0.000 C 
ATOM      2  O   UNL     1       4.873   3.586  18.551  0.00  0.00    +0.000 OA
ENDROOT
BRANCH   1   8
ATOM      3  C   UNL     1       2.994   5.720  19.437  0.00  0.00    +0.000 A 
ATOM      4  N   UNL     1       2.232   6.790  19.778  0.00  0.00    +0.000 NA
ATOM      5  C   UNL     1       2.259   7.861  18.957  0.00  0.00    +0.000 A 
ATOM      6  C   UNL     1       3.041   7.937  17.817  0.00  0.00    +0.000 A 
ATOM      7  C   UNL     1       3.831   6.838  17.495  0.00  0.00    +0.000 A 
ATOM      8  C   UNL     1       3.803   5.697  18.305  0.00  0.00    +0.000 A 
BRANCH   3   9
ATOM      9  O   UNL     1       3.012   4.651  20.308  0.00  0.00    +0.000 OA
BRANCH   9  11
ATOM     10  C   UNL     1       1.620   2.966  21.277  0.00  0.00    +0.000 C 
ATOM     11  C   UNL     1       1.740   4.437  20.925  0.00  0.00    +0.000 C 
ENDBRANCH   9  11
ENDBRANCH   3   9
ENDBRANCH   1   8
BRANCH   1  12
ATOM     12  O   UNL     1       4.994   4.726  16.569  0.00  0.00    +0.000 OA
BRANCH  12  13
ATOM     13  C   UNL     1       6.357   4.369  16.355  0.00  0.00    +0.000 C 
BRANCH  13  14
ATOM     14  C   UNL     1       6.668   4.521  14.867  0.00  0.00    +0.000 C 
ATOM     15  O   UNL     1       7.501   5.323  14.449  0.00  0.00    +0.000 OA
ATOM     16  N   UNL     1       5.967   3.647  14.057  0.00  0.00    +0.000 N 
ATOM     17  H   UNL     1       5.365   2.957  14.503  0.00  0.00    +0.000 HD
BRANCH  16  18
ATOM     18  C   UNL     1       6.142   3.597  12.642  0.00  0.00    +0.000 C 
ATOM     19  C   UNL     1       6.025   2.308  11.877  0.00  0.00    +0.000 C 
ATOM     20  C   UNL     1       4.957   3.353  11.747  0.00  0.00    +0.000 C 
ENDBRANCH  16  18
ENDBRANCH  13  14
ENDBRANCH  12  13
ENDBRANCH   1  12
TORSDOF 7
ENDMDL
MODEL 7
REMARK VINA RESULT:      -6.4      2.193      6.239
REMARK  Name = 
REMARK  8 active torsions:
REMARK  status: ('A' for Active; 'I' for Inactive)
REMARK    1  A    between atoms: C_1  and  C_2
REMARK    2  A    between atoms: C_2  and  O_3
REMARK    3  A    between atoms: O_3  and  C_4
REMARK    4  A    between atoms: C_9  and  C_10
REMARK    5  A    between atoms: C_10  and  O_12
REMARK    6  A    between atoms: O_12  and  C_13
REMARK    7  A    between atoms: C_13  and  C_14
REMARK    8  A    between atoms: N_16  and  C_17
REMARK                            x       y       z     vdW  Elec       q    Type
REMARK                         _______ _______ _______ _____ _____    ______ ____
ROOT
ATOM      1  C   UNL     1       5.441   5.147  18.198  0.00  0.00    +0.000 C 
ATOM      2  O   UNL     1       5.675   4.439  19.168  0.00  0.00    +0.000 OA
ENDROOT
BRANCH   1   8
ATOM      3  C   UNL     1       7.151   5.668  16.395  0.00  0.00    +0.000 A 
ATOM      4  N   UNL     1       7.617   5.546  15.125  0.00  0.00    +0.000 NA
ATOM      5  C   UNL     1       6.969   4.694  14.303  0.00  0.00    +0.000 A 
ATOM      6  C   UNL     1       5.890   3.921  14.693  0.00  0.00    +0.000 A 
ATOM      7  C   UNL     1       5.440   4.043  16.004  0.00  0.00    +0.000 A 
ATOM      8  C   UNL     1       6.066   4.942  16.875  0.00  0.00    +0.000 A 
BRANCH   3   9
ATOM      9  O   UNL     1       7.851   6.493  17.250  0.00  0.00    +0.000 OA
BRANCH   9  11
ATOM     10  C   UNL     1       8.265   8.704  18.062  0.00  0.00    +0.000 C 
ATOM     11  C   UNL     1       7.308   7.815  17.289  0.00  0.00    +0.000 C 
ENDBRANCH   9  11
ENDBRANCH   3   9
ENDBRANCH   1   8
BRANCH   1  12
ATOM     12  O   UNL     1       4.409   6.015  18.093  0.00  0.00    +0.000 OA
BRANCH  12  13
ATOM     13  C   UNL     1       3.689   6.247  19.300  0.00  0.00    +0.000 C 
BRANCH  13  14
ATOM     14  C   UNL     1       2.484   5.308  19.332  0.00  0.00    +0.000 C 
ATOM     15  O   UNL     1       1.824   5.054  18.326  0.00  0.00    +0.000 OA
ATOM     16  N   UNL     1       2.245   4.746  20.573  0.00  0.00    +0.000 N 
ATOM     17  H   UNL     1       2.901   4.948  21.325  0.00  0.00    +0.000 HD
BRANCH  16  18
ATOM     18  C   UNL     1       1.195   3.811  20.806  0.00  0.00    +0.000 C 
ATOM     19  C   UNL     1       1.171   2.465  20.135  0.00  0.00    +0.000 C 
ATOM     20  C   UNL     1       1.464   2.563  21.603  0.00  0.00    +0.000 C 
ENDBRANCH  16  18
ENDBRANCH  13  14
ENDBRANCH  12  13
ENDBRANCH   1  12
TORSDOF 7
ENDMDL
MODEL 8
REMARK VINA RESULT:      -6.4      1.853      2.573
REMARK  Name = 
REMARK  8 active torsions:
REMARK  status: ('A' for Active; 'I' for Inactive)
REMARK    1  A    between atoms: C_1  and  C_2
REMARK    2  A    between atoms: C_2  and  O_3
REMARK    3  A    between atoms: O_3  and  C_4
REMARK    4  A    between atoms: C_9  and  C_10
REMARK    5  A    between atoms: C_10  and  O_12
REMARK    6  A    between atoms: O_12  and  C_13
REMARK    7  A    between atoms: C_13  and  C_14
REMARK    8  A    between atoms: N_16  and  C_17
REMARK                            x       y       z     vdW  Elec       q    Type
REMARK                         _______ _______ _______ _____ _____    ______ ____
ROOT
ATOM      1  C   UNL     1       5.307   5.922  16.683  0.00  0.00    +0.000 C 
ATOM      2  O   UNL     1       4.553   6.745  16.181  0.00  0.00    +0.000 OA
ENDROOT
BRANCH   1   8
ATOM      3  C   UNL     1       5.259   4.649  18.879  0.00  0.00    +0.000 A 
ATOM      4  N   UNL     1       4.918   3.562  19.618  0.00  0.00    +0.000 NA
ATOM      5  C   UNL     1       4.162   2.616  19.021  0.00  0.00    +0.000 A 
ATOM      6  C   UNL     1       3.692   2.714  17.723  0.00  0.00    +0.000 A 
ATOM      7  C   UNL     1       4.033   3.845  16.989  0.00  0.00    +0.000 A 
ATOM      8  C   UNL     1       4.845   4.830  17.563  0.00  0.00    +0.000 A 
BRANCH   3   9
ATOM      9  O   UNL     1       5.980   5.641  19.509  0.00  0.00    +0.000 OA
BRANCH   9  11
ATOM     10  C   UNL     1       8.146   6.532  19.023  0.00  0.00    +0.000 C 
ATOM     11  C   UNL     1       7.377   5.341  19.565  0.00  0.00    +0.000 C 
ENDBRANCH   9  11
ENDBRANCH   3   9
ENDBRANCH   1   8
BRANCH   1  12
ATOM     12  O   UNL     1       6.589   5.705  16.310  0.00  0.00    +0.000 OA
BRANCH  12  13
ATOM     13  C   UNL     1       6.851   4.413  15.769  0.00  0.00    +0.000 C 
BRANCH  13  14
ATOM     14  C   UNL     1       6.821   4.513  14.245  0.00  0.00    +0.000 C 
ATOM     15  O   UNL     1       7.404   5.407  13.635  0.00  0.00    +0.000 OA
ATOM     16  N   UNL     1       6.126   3.488  13.630  0.00  0.00    +0.000 N 
ATOM     17  H   UNL     1       5.753   2.742  14.216  0.00  0.00    +0.000 HD
BRANCH  16  18
ATOM     18  C   UNL     1       6.015   3.372  12.213  0.00  0.00    +0.000 C 
ATOM     19  C   UNL     1       5.637   2.075  11.554  0.00  0.00    +0.000 C 
ATOM     20  C   UNL     1       4.660   3.214  11.577  0.00  0.00    +0.000 C 
ENDBRANCH  16  18
ENDBRANCH  13  14
ENDBRANCH  12  13
ENDBRANCH   1  12
TORSDOF 7
ENDMDL
MODEL 9
REMARK VINA RESULT:      -6.4      1.245      2.607
REMARK  Name = 
REMARK  8 active torsions:
REMARK  status: ('A' for Active; 'I' for Inactive)
REMARK    1  A    between atoms: C_1  and  C_2
REMARK    2  A    between atoms: C_2  and  O_3
REMARK    3  A    between atoms: O_3  and  C_4
REMARK    4  A    between atoms: C_9  and  C_10
REMARK    5  A    between atoms: C_10  and  O_12
REMARK    6  A    between atoms: O_12  and  C_13
REMARK    7  A    between atoms: C_13  and  C_14
REMARK    8  A    between atoms: N_16  and  C_17
REMARK                            x       y       z     vdW  Elec       q    Type
REMARK                         _______ _______ _______ _____ _____    ______ ____
ROOT
ATOM      1  C   UNL     1       5.667   4.231  17.571  0.00  0.00    +0.000 C 
ATOM      2  O   UNL     1       6.524   4.140  18.440  0.00  0.00    +0.000 OA
ENDROOT
BRANCH   1   8
ATOM      3  C   UNL     1       3.131   4.157  17.665  0.00  0.00    +0.000 A 
ATOM      4  N   UNL     1       1.924   4.774  17.755  0.00  0.00    +0.000 NA
ATOM      5  C   UNL     1       1.921   6.107  17.968  0.00  0.00    +0.000 A 
ATOM      6  C   UNL     1       3.069   6.863  18.131  0.00  0.00    +0.000 A 
ATOM      7  C   UNL     1       4.295   6.210  18.056  0.00  0.00    +0.000 A 
ATOM      8  C   UNL     1       4.338   4.833  17.803  0.00  0.00    +0.000 A 
BRANCH   3   9
ATOM      9  O   UNL     1       3.131   2.787  17.508  0.00  0.00    +0.000 OA
BRANCH   9  11
ATOM     10  C   UNL     1       1.764   2.012  19.311  0.00  0.00    +0.000 C 
ATOM     11  C   UNL     1       3.176   2.101  18.762  0.00  0.00    +0.000 C 
ENDBRANCH   9  11
ENDBRANCH   3   9
ENDBRANCH   1   8
BRANCH   1  12
ATOM     12  O   UNL     1       5.875   4.066  16.245  0.00  0.00    +0.000 OA
BRANCH  12  13
ATOM     13  C   UNL     1       7.086   4.631  15.748  0.00  0.00    +0.000 C 
BRANCH  13  14
ATOM     14  C   UNL     1       7.009   4.672  14.224  0.00  0.00    +0.000 C 
ATOM     15  O   UNL     1       7.622   5.505  13.558  0.00  0.00    +0.000 OA
ATOM     16  N   UNL     1       6.235   3.667  13.674  0.00  0.00    +0.000 N 
ATOM     17  H   UNL     1       5.840   2.968  14.302  0.00  0.00    +0.000 HD
BRANCH  16  18
ATOM     18  C   UNL     1       6.068   3.502  12.268  0.00  0.00    +0.000 C 
ATOM     19  C   UNL     1       5.820   2.152  11.654  0.00  0.00    +0.000 C 
ATOM     20  C   UNL     1       4.713   3.163  11.707  0.00  0.00    +0.000 C 
ENDBRANCH  16  18
ENDBRANCH  13  14
ENDBRANCH  12  13
ENDBRANCH   1  12
TORSDOF 7
ENDMDL
