MODEL 1
REMARK VINA RESULT:      -7.6      0.000      0.000
REMARK  Name = 
REMARK  3 active torsions:
REMARK  status: ('A' for Active; 'I' for Inactive)
REMARK    1  A    between atoms: C_1  and  C_2
REMARK    2  A    between atoms: C_7  and  C_8
REMARK    3  A    between atoms: C_12  and  N_13
REMARK                            x       y       z     vdW  Elec       q    Type
REMARK                         _______ _______ _______ _____ _____    ______ ____
ROOT
ATOM      1  C   UNL     1      -0.417  10.367  22.816  0.00  0.00    +0.000 C 
ATOM      2  C   UNL     1       0.264   9.856  21.577  0.00  0.00    +0.000 A 
ATOM      3  C   UNL     1       0.306  10.643  20.416  0.00  0.00    +0.000 A 
ATOM      4  C   UNL     1       0.953  10.196  19.256  0.00  0.00    +0.000 A 
ATOM      5  C   UNL     1       1.559   8.933  19.272  0.00  0.00    +0.000 A 
ATOM      6  N   UNL     1       2.247   8.280  18.281  0.00  0.00    +0.000 NA
ATOM      7  C   UNL     1       2.566   7.099  18.777  0.00  0.00    +0.000 A 
ATOM      8  N   UNL     1       2.151   7.008  20.088  0.00  0.00    +0.000 N 
ATOM      9  C   UNL     1       1.494   8.162  20.423  0.00  0.00    +0.000 A 
ATOM     10  C   UNL     1       0.866   8.584  21.596  0.00  0.00    +0.000 A 
ATOM     11  H   UNL     1       2.299   6.216  20.698  0.00  0.00    +0.000 HD
ENDROOT
BRANCH   7  12
ATOM     12  C   UNL     1       3.252   6.032  18.050  0.00  0.00    +0.000 A 
ATOM     13  C   UNL     1       2.699   4.742  18.033  0.00  0.00    +0.000 A 
ATOM     14  C   UNL     1       3.355   3.683  17.400  0.00  0.00    +0.000 A 
ATOM     15  C   UNL     1       4.587   3.897  16.784  0.00  0.00    +0.000 A 
ATOM     16  C   UNL     1       5.148   5.180  16.800  0.00  0.00    +0.000 A 
ATOM     17  C   UNL     1       4.485   6.249  17.421  0.00  0.00    +0.000 A 
BRANCH  16  18
ATOM     18  N   UNL     1       6.458   5.409  16.180  0.00  0.00    +0.000 N 
ATOM     19  O   UNL     1       6.484   5.928  15.055  0.00  0.00    +0.000 OA
ATOM     20  O   UNL     1       7.463   5.071  16.822  0.00  0.00    +0.000 OA
ENDBRANCH  16  18
ENDBRANCH   7  12
TORSDOF 2
ENDMDL
MODEL 2
REMARK VINA RESULT:      -7.5      3.747      5.157
REMARK  Name = 
REMARK  3 active torsions:
REMARK  status: ('A' for Active; 'I' for Inactive)
REMARK    1  A    between atoms: C_1  and  C_2
REMARK    2  A    between atoms: C_7  and  C_8
REMARK    3  A    between atoms: C_12  and  N_13
REMARK                            x       y       z     vdW  Elec       q    Type
REMARK                         _______ _______ _______ _____ _____    ______ ____
ROOT
ATOM      1  C   UNL     1       1.393   2.636  21.622  0.00  0.00    +0.000 C 
ATOM      2  C   UNL     1       2.126   3.418  20.569  0.00  0.00    +0.000 A 
ATOM      3  C   UNL     1       2.029   4.817  20.530  0.00  0.00    +0.000 A 
ATOM      4  C   UNL     1       2.720   5.568  19.569  0.00  0.00    +0.000 A 
ATOM      5  C   UNL     1       3.513   4.893  18.634  0.00  0.00    +0.000 A 
ATOM      6  N   UNL     1       4.279   5.393  17.612  0.00  0.00    +0.000 NA
ATOM      7  C   UNL     1       4.784   4.343  16.989  0.00  0.00    +0.000 A 
ATOM      8  N   UNL     1       4.407   3.184  17.631  0.00  0.00    +0.000 N 
ATOM      9  C   UNL     1       3.585   3.508  18.678  0.00  0.00    +0.000 A 
ATOM     10  C   UNL     1       2.917   2.733  19.627  0.00  0.00    +0.000 A 
ATOM     11  H   UNL     1       4.685   2.249  17.367  0.00  0.00    +0.000 HD
ENDROOT
BRANCH   7  12
ATOM     12  C   UNL     1       5.616   4.391  15.787  0.00  0.00    +0.000 A 
ATOM     13  C   UNL     1       6.786   5.167  15.787  0.00  0.00    +0.000 A 
ATOM     14  C   UNL     1       7.574   5.286  14.640  0.00  0.00    +0.000 A 
ATOM     15  C   UNL     1       7.195   4.638  13.466  0.00  0.00    +0.000 A 
ATOM     16  C   UNL     1       6.027   3.864  13.456  0.00  0.00    +0.000 A 
ATOM     17  C   UNL     1       5.241   3.731  14.610  0.00  0.00    +0.000 A 
BRANCH  16  18
ATOM     18  N   UNL     1       5.604   3.203  12.217  0.00  0.00    +0.000 N 
ATOM     19  O   UNL     1       4.452   3.414  11.811  0.00  0.00    +0.000 OA
ATOM     20  O   UNL     1       6.428   2.472  11.646  0.00  0.00    +0.000 OA
ENDBRANCH  16  18
ENDBRANCH   7  12
TORSDOF 2
ENDMDL
MODEL 3
REMARK VINA RESULT:      -7.5      4.834      5.421
REMARK  Name = 
REMARK  3 active torsions:
REMARK  status: ('A' for Active; 'I' for Inactive)
REMARK    1  A    between atoms: C_1  and  C_2
REMARK    2  A    between atoms: C_7  and  C_8
REMARK    3  A    between atoms: C_12  and  N_13
REMARK                            x       y       z     vdW  Elec       q    Type
REMARK                         _______ _______ _______ _____ _____    ______ ____
ROOT
ATOM      1  C   UNL     1       1.622   2.435  22.048  0.00  0.00    +0.000 C 
ATOM      2  C   UNL     1       1.957   2.826  20.636  0.00  0.00    +0.000 A 
ATOM      3  C   UNL     1       0.934   3.066  19.706  0.00  0.00    +0.000 A 
ATOM      4  C   UNL     1       1.223   3.452  18.390  0.00  0.00    +0.000 A 
ATOM      5  C   UNL     1       2.564   3.589  18.011  0.00  0.00    +0.000 A 
ATOM      6  N   UNL     1       3.100   3.953  16.801  0.00  0.00    +0.000 NA
ATOM      7  C   UNL     1       4.410   3.877  16.946  0.00  0.00    +0.000 A 
ATOM      8  N   UNL     1       4.725   3.533  18.243  0.00  0.00    +0.000 N 
ATOM      9  C   UNL     1       3.563   3.332  18.939  0.00  0.00    +0.000 A 
ATOM     10  C   UNL     1       3.307   2.955  20.259  0.00  0.00    +0.000 A 
ATOM     11  H   UNL     1       5.659   3.437  18.615  0.00  0.00    +0.000 HD
ENDROOT
BRANCH   7  12
ATOM     12  C   UNL     1       5.394   4.113  15.891  0.00  0.00    +0.000 A 
ATOM     13  C   UNL     1       6.480   4.967  16.137  0.00  0.00    +0.000 A 
ATOM     14  C   UNL     1       7.407   5.264  15.135  0.00  0.00    +0.000 A 
ATOM     15  C   UNL     1       7.254   4.720  13.861  0.00  0.00    +0.000 A 
ATOM     16  C   UNL     1       6.170   3.869  13.606  0.00  0.00    +0.000 A 
ATOM     17  C   UNL     1       5.246   3.556  14.614  0.00  0.00    +0.000 A 
BRANCH  16  18
ATOM     18  N   UNL     1       5.983   3.314  12.260  0.00  0.00    +0.000 N 
ATOM     19  O   UNL     1       4.838   3.317  11.786  0.00  0.00    +0.000 OA
ATOM     20  O   UNL     1       6.986   2.877  11.676  0.00  0.00    +0.000 OA
ENDBRANCH  16  18
ENDBRANCH   7  12
TORSDOF 2
ENDMDL
MODEL 4
REMARK VINA RESULT:      -7.5      0.779      1.678
REMARK  Name = 
REMARK  3 active torsions:
REMARK  status: ('A' for Active; 'I' for Inactive)
REMARK    1  A    between atoms: C_1  and  C_2
REMARK    2  A    between atoms: C_7  and  C_8
REMARK    3  A    between atoms: C_12  and  N_13
REMARK                            x       y       z     vdW  Elec       q    Type
REMARK                         _______ _______ _______ _____ _____    ______ ____
ROOT
ATOM      1  C   UNL     1      -0.478  11.778  20.208  0.00  0.00    +0.000 C 
ATOM      2  C   UNL     1       0.306  10.496  20.157  0.00  0.00    +0.000 A 
ATOM      3  C   UNL     1       0.481   9.728  21.319  0.00  0.00    +0.000 A 
ATOM      4  C   UNL     1       1.191   8.519  21.291  0.00  0.00    +0.000 A 
ATOM      5  C   UNL     1       1.732   8.088  20.074  0.00  0.00    +0.000 A 
ATOM      6  N   UNL     1       2.454   6.957  19.788  0.00  0.00    +0.000 NA
ATOM      7  C   UNL     1       2.778   7.045  18.511  0.00  0.00    +0.000 A 
ATOM      8  N   UNL     1       2.224   8.179  17.958  0.00  0.00    +0.000 N 
ATOM      9  C   UNL     1       1.562   8.868  18.939  0.00  0.00    +0.000 A 
ATOM     10  C   UNL     1       0.854  10.071  18.933  0.00  0.00    +0.000 A 
ATOM     11  H   UNL     1       2.302   8.459  16.991  0.00  0.00    +0.000 HD
ENDROOT
BRANCH   7  12
ATOM     12  C   UNL     1       3.609   6.089  17.781  0.00  0.00    +0.000 A 
ATOM     13  C   UNL     1       3.177   4.760  17.644  0.00  0.00    +0.000 A 
ATOM     14  C   UNL     1       3.971   3.804  17.006  0.00  0.00    +0.000 A 
ATOM     15  C   UNL     1       5.221   4.161  16.504  0.00  0.00    +0.000 A 
ATOM     16  C   UNL     1       5.662   5.484  16.639  0.00  0.00    +0.000 A 
ATOM     17  C   UNL     1       4.861   6.450  17.266  0.00  0.00    +0.000 A 
BRANCH  16  18
ATOM     18  N   UNL     1       6.989   5.863  16.140  0.00  0.00    +0.000 N 
ATOM     19  O   UNL     1       7.573   6.800  16.702  0.00  0.00    +0.000 OA
ATOM     20  O   UNL     1       7.449   5.217  15.187  0.00  0.00    +0.000 OA
ENDBRANCH  16  18
ENDBRANCH   7  12
TORSDOF 2
ENDMDL
MODEL 5
REMARK VINA RESULT:      -7.5      0.936      1.239
REMARK  Name = 
REMARK  3 active torsions:
REMARK  status: ('A' for Active; 'I' for Inactive)
REMARK    1  A    between atoms: C_1  and  C_2
REMARK    2  A    between atoms: C_7  and  C_8
REMARK    3  A    between atoms: C_12  and  N_13
REMARK                            x       y       z     vdW  Elec       q    Type
REMARK                         _______ _______ _______ _____ _____    ______ ____
ROOT
ATOM      1  C   UNL     1      -0.674  10.633  22.952  0.00  0.00    +0.000 C 
ATOM      2  C   UNL     1       0.034  10.047  21.763  0.00  0.00    +0.000 A 
ATOM      3  C   UNL     1       0.110  10.766  20.560  0.00  0.00    +0.000 A 
ATOM      4  C   UNL     1       0.782  10.248  19.445  0.00  0.00    +0.000 A 
ATOM      5  C   UNL     1       1.379   8.985  19.549  0.00  0.00    +0.000 A 
ATOM      6  N   UNL     1       2.087   8.272  18.615  0.00  0.00    +0.000 NA
ATOM      7  C   UNL     1       2.386   7.120  19.187  0.00  0.00    +0.000 A 
ATOM      8  N   UNL     1       1.937   7.107  20.490  0.00  0.00    +0.000 N 
ATOM      9  C   UNL     1       1.280   8.282  20.741  0.00  0.00    +0.000 A 
ATOM     10  C   UNL     1       0.626   8.775  21.871  0.00  0.00    +0.000 A 
ATOM     11  H   UNL     1       2.065   6.351  21.148  0.00  0.00    +0.000 HD
ENDROOT
BRANCH   7  12
ATOM     12  C   UNL     1       3.082   6.009  18.541  0.00  0.00    +0.000 A 
ATOM     13  C   UNL     1       2.337   4.988  17.930  0.00  0.00    +0.000 A 
ATOM     14  C   UNL     1       2.964   3.880  17.354  0.00  0.00    +0.000 A 
ATOM     15  C   UNL     1       4.353   3.769  17.394  0.00  0.00    +0.000 A 
ATOM     16  C   UNL     1       5.104   4.781  18.005  0.00  0.00    +0.000 A 
ATOM     17  C   UNL     1       4.478   5.903  18.571  0.00  0.00    +0.000 A 
BRANCH  16  18
ATOM     18  N   UNL     1       6.565   4.659  18.078  0.00  0.00    +0.000 N 
ATOM     19  O   UNL     1       7.098   4.733  19.195  0.00  0.00    +0.000 OA
ATOM     20  O   UNL     1       7.180   4.485  17.016  0.00  0.00    +0.000 OA
ENDBRANCH  16  18
ENDBRANCH   7  12
TORSDOF 2
ENDMDL
MODEL 6
REMARK VINA RESULT:      -7.4      4.038      5.551
REMARK  Name = 
REMARK  3 active torsions:
REMARK  status: ('A' for Active; 'I' for Inactive)
REMARK    1  A    between atoms: C_1  and  C_2
REMARK    2  A    between atoms: C_7  and  C_8
REMARK    3  A    between atoms: C_12  and  N_13
REMARK                            x       y       z     vdW  Elec       q    Type
REMARK                         _______ _______ _______ _____ _____    ______ ____
ROOT
ATOM      1  C   UNL     1       2.081   2.956  21.472  0.00  0.00    +0.000 C 
ATOM      2  C   UNL     1       2.804   3.647  20.350  0.00  0.00    +0.000 A 
ATOM      3  C   UNL     1       2.965   5.042  20.365  0.00  0.00    +0.000 A 
ATOM      4  C   UNL     1       3.653   5.705  19.340  0.00  0.00    +0.000 A 
ATOM      5  C   UNL     1       4.178   4.948  18.286  0.00  0.00    +0.000 A 
ATOM      6  N   UNL     1       4.884   5.355  17.182  0.00  0.00    +0.000 NA
ATOM      7  C   UNL     1       5.100   4.266  16.467  0.00  0.00    +0.000 A 
ATOM      8  N   UNL     1       4.600   3.161  17.122  0.00  0.00    +0.000 N 
ATOM      9  C   UNL     1       3.996   3.573  18.280  0.00  0.00    +0.000 A 
ATOM     10  C   UNL     1       3.324   2.882  19.290  0.00  0.00    +0.000 A 
ATOM     11  H   UNL     1       4.662   2.208  16.796  0.00  0.00    +0.000 HD
ENDROOT
BRANCH   7  12
ATOM     12  C   UNL     1       5.762   4.227  15.164  0.00  0.00    +0.000 A 
ATOM     13  C   UNL     1       6.898   5.022  14.942  0.00  0.00    +0.000 A 
ATOM     14  C   UNL     1       7.523   5.056  13.693  0.00  0.00    +0.000 A 
ATOM     15  C   UNL     1       7.011   4.304  12.638  0.00  0.00    +0.000 A 
ATOM     16  C   UNL     1       5.875   3.511  12.849  0.00  0.00    +0.000 A 
ATOM     17  C   UNL     1       5.254   3.462  14.106  0.00  0.00    +0.000 A 
BRANCH  16  18
ATOM     18  N   UNL     1       5.311   2.738  11.737  0.00  0.00    +0.000 N 
ATOM     19  O   UNL     1       5.980   1.797  11.287  0.00  0.00    +0.000 OA
ATOM     20  O   UNL     1       4.194   3.072  11.315  0.00  0.00    +0.000 OA
ENDBRANCH  16  18
ENDBRANCH   7  12
TORSDOF 2
ENDMDL
MODEL 7
REMARK VINA RESULT:      -7.4      2.214      2.436
REMARK  Name = 
REMARK  3 active torsions:
REMARK  status: ('A' for Active; 'I' for Inactive)
REMARK    1  A    between atoms: C_1  and  C_2
REMARK    2  A    between atoms: C_7  and  C_8
REMARK    3  A    between atoms: C_12  and  N_13
REMARK                            x       y       z     vdW  Elec       q    Type
REMARK                         _______ _______ _______ _____ _____    ______ ____
ROOT
ATOM      1  C   UNL     1      -1.043  10.605  23.077  0.00  0.00    +0.000 C 
ATOM      2  C   UNL     1      -0.294  10.089  21.881  0.00  0.00    +0.000 A 
ATOM      3  C   UNL     1      -0.336  10.787  20.664  0.00  0.00    +0.000 A 
ATOM      4  C   UNL     1       0.371  10.335  19.541  0.00  0.00    +0.000 A 
ATOM      5  C   UNL     1       1.125   9.160  19.652  0.00  0.00    +0.000 A 
ATOM      6  N   UNL     1       1.896   8.523  18.713  0.00  0.00    +0.000 NA
ATOM      7  C   UNL     1       2.351   7.429  19.298  0.00  0.00    +0.000 A 
ATOM      8  N   UNL     1       1.937   7.387  20.612  0.00  0.00    +0.000 N 
ATOM      9  C   UNL     1       1.143   8.475  20.858  0.00  0.00    +0.000 A 
ATOM     10  C   UNL     1       0.456   8.904  21.996  0.00  0.00    +0.000 A 
ATOM     11  H   UNL     1       2.174   6.667  21.279  0.00  0.00    +0.000 HD
ENDROOT
BRANCH   7  12
ATOM     12  C   UNL     1       3.168   6.402  18.654  0.00  0.00    +0.000 A 
ATOM     13  C   UNL     1       3.947   6.739  17.536  0.00  0.00    +0.000 A 
ATOM     14  C   UNL     1       4.694   5.773  16.858  0.00  0.00    +0.000 A 
ATOM     15  C   UNL     1       4.661   4.445  17.280  0.00  0.00    +0.000 A 
ATOM     16  C   UNL     1       3.883   4.099  18.393  0.00  0.00    +0.000 A 
ATOM     17  C   UNL     1       3.144   5.070  19.086  0.00  0.00    +0.000 A 
BRANCH  16  18
ATOM     18  N   UNL     1       3.819   2.699  18.828  0.00  0.00    +0.000 N 
ATOM     19  O   UNL     1       3.392   1.861  18.021  0.00  0.00    +0.000 OA
ATOM     20  O   UNL     1       4.200   2.438  19.978  0.00  0.00    +0.000 OA
ENDBRANCH  16  18
ENDBRANCH   7  12
TORSDOF 2
ENDMDL
MODEL 8
REMARK VINA RESULT:      -7.1      3.870      7.479
REMARK  Name = 
REMARK  3 active torsions:
REMARK  status: ('A' for Active; 'I' for Inactive)
REMARK    1  A    between atoms: C_1  and  C_2
REMARK    2  A    between atoms: C_7  and  C_8
REMARK    3  A    between atoms: C_12  and  N_13
REMARK                            x       y       z     vdW  Elec       q    Type
REMARK                         _______ _______ _______ _____ _____    ______ ____
ROOT
ATOM      1  C   UNL     1       6.773   3.725  12.153  0.00  0.00    +0.000 C 
ATOM      2  C   UNL     1       6.497   4.182  13.557  0.00  0.00    +0.000 A 
ATOM      3  C   UNL     1       7.464   4.910  14.267  0.00  0.00    +0.000 A 
ATOM      4  C   UNL     1       7.221   5.364  15.571  0.00  0.00    +0.000 A 
ATOM      5  C   UNL     1       5.986   5.072  16.163  0.00  0.00    +0.000 A 
ATOM      6  N   UNL     1       5.511   5.402  17.407  0.00  0.00    +0.000 NA
ATOM      7  C   UNL     1       4.318   4.845  17.501  0.00  0.00    +0.000 A 
ATOM      8  N   UNL     1       3.993   4.217  16.317  0.00  0.00    +0.000 N 
ATOM      9  C   UNL     1       5.048   4.338  15.452  0.00  0.00    +0.000 A 
ATOM     10  C   UNL     1       5.257   3.880  14.150  0.00  0.00    +0.000 A 
ATOM     11  H   UNL     1       3.124   3.740  16.125  0.00  0.00    +0.000 HD
ENDROOT
BRANCH   7  12
ATOM     12  C   UNL     1       3.460   4.874  18.684  0.00  0.00    +0.000 A 
ATOM     13  C   UNL     1       2.777   6.056  19.013  0.00  0.00    +0.000 A 
ATOM     14  C   UNL     1       1.996   6.141  20.168  0.00  0.00    +0.000 A 
ATOM     15  C   UNL     1       1.897   5.045  21.024  0.00  0.00    +0.000 A 
ATOM     16  C   UNL     1       2.579   3.863  20.705  0.00  0.00    +0.000 A 
ATOM     17  C   UNL     1       3.352   3.769  19.538  0.00  0.00    +0.000 A 
BRANCH  16  18
ATOM     18  N   UNL     1       2.505   2.714  21.615  0.00  0.00    +0.000 N 
ATOM     19  O   UNL     1       1.436   2.511  22.207  0.00  0.00    +0.000 OA
ATOM     20  O   UNL     1       3.520   2.011  21.734  0.00  0.00    +0.000 OA
ENDBRANCH  16  18
ENDBRANCH   7  12
TORSDOF 2
ENDMDL
MODEL 9
REMARK VINA RESULT:      -7.0      1.697      2.568
REMARK  Name = 
REMARK  3 active torsions:
REMARK  status: ('A' for Active; 'I' for Inactive)
REMARK    1  A    between atoms: C_1  and  C_2
REMARK    2  A    between atoms: C_7  and  C_8
REMARK    3  A    between atoms: C_12  and  N_13
REMARK                            x       y       z     vdW  Elec       q    Type
REMARK                         _______ _______ _______ _____ _____    ______ ____
ROOT
ATOM      1  C   UNL     1      -0.502  10.847  19.093  0.00  0.00    +0.000 C 
ATOM      2  C   UNL     1       0.482   9.720  19.232  0.00  0.00    +0.000 A 
ATOM      3  C   UNL     1       0.550   8.983  20.425  0.00  0.00    +0.000 A 
ATOM      4  C   UNL     1       1.446   7.915  20.570  0.00  0.00    +0.000 A 
ATOM      5  C   UNL     1       2.286   7.594  19.496  0.00  0.00    +0.000 A 
ATOM      6  N   UNL     1       3.232   6.606  19.389  0.00  0.00    +0.000 NA
ATOM      7  C   UNL     1       3.784   6.760  18.199  0.00  0.00    +0.000 A 
ATOM      8  N   UNL     1       3.167   7.787  17.518  0.00  0.00    +0.000 N 
ATOM      9  C   UNL     1       2.215   8.343  18.330  0.00  0.00    +0.000 A 
ATOM     10  C   UNL     1       1.327   9.406  18.152  0.00  0.00    +0.000 A 
ATOM     11  H   UNL     1       3.388   8.084  16.578  0.00  0.00    +0.000 HD
ENDROOT
BRANCH   7  12
ATOM     12  C   UNL     1       4.895   5.968  17.673  0.00  0.00    +0.000 A 
ATOM     13  C   UNL     1       5.895   5.513  18.548  0.00  0.00    +0.000 A 
ATOM     14  C   UNL     1       7.002   4.806  18.074  0.00  0.00    +0.000 A 
ATOM     15  C   UNL     1       7.135   4.553  16.710  0.00  0.00    +0.000 A 
ATOM     16  C   UNL     1       6.144   5.006  15.829  0.00  0.00    +0.000 A 
ATOM     17  C   UNL     1       5.023   5.704  16.303  0.00  0.00    +0.000 A 
BRANCH  16  18
ATOM     18  N   UNL     1       6.289   4.770  14.388  0.00  0.00    +0.000 N 
ATOM     19  O   UNL     1       7.331   5.156  13.840  0.00  0.00    +0.000 OA
ATOM     20  O   UNL     1       5.359   4.194  13.805  0.00  0.00    +0.000 OA
ENDBRANCH  16  18
ENDBRANCH   7  12
TORSDOF 2
ENDMDL
