MODEL 1
REMARK VINA RESULT:      -7.6      0.000      0.000
REMARK  Name = 
REMARK  9 active torsions:
REMARK  status: ('A' for Active; 'I' for Inactive)
REMARK    1  A    between atoms: C_1  and  O_2
REMARK    2  A    between atoms: O_2  and  C_3
REMARK    3  A    between atoms: C_8  and  C_9
REMARK    4  A    between atoms: C_12  and  C_13
REMARK    5  A    between atoms: C_13  and  C_14
REMARK    6  A    between atoms: N_22  and  C_23
REMARK    7  A    between atoms: C_23  and  C_24
REMARK    8  A    between atoms: C_33  and  O_34
REMARK    9  A    between atoms: O_34  and  C_35
REMARK                            x       y       z     vdW  Elec       q    Type
REMARK                         _______ _______ _______ _____ _____    ______ ____
ROOT
ATOM      1  C   UNL     1      -4.176  12.605  19.587  0.00  0.00    +0.000 A 
ATOM      2  C   UNL     1      -3.317  11.655  19.043  0.00  0.00    +0.000 A 
ATOM      3  C   UNL     1      -1.972  11.614  19.427  0.00  0.00    +0.000 A 
ATOM      4  C   UNL     1      -1.119  10.557  18.824  0.00  0.00    +0.000 A 
ATOM      5  O   UNL     1      -1.626   9.722  18.080  0.00  0.00    +0.000 OA
ATOM      6  C   UNL     1       0.318  10.546  19.185  0.00  0.00    +0.000 A 
ATOM      7  C   UNL     1       0.709  11.467  20.082  0.00  0.00    +0.000 A 
ATOM      8  N   UNL     1      -0.063  12.447  20.694  0.00  0.00    +0.000 N 
ATOM      9  C   UNL     1      -1.433  12.528  20.355  0.00  0.00    +0.000 A 
ATOM     10  C   UNL     1      -2.319  13.481  20.885  0.00  0.00    +0.000 A 
ATOM     11  C   UNL     1      -3.666  13.549  20.489  0.00  0.00    +0.000 A 
ENDROOT
BRANCH   6  12
ATOM     12  C   UNL     1       1.201   9.587  18.605  0.00  0.00    +0.000 A 
ATOM     13  N   UNL     1       1.707   9.586  17.362  0.00  0.00    +0.000 NA
ATOM     14  O   UNL     1       2.522   8.457  17.338  0.00  0.00    +0.000 OA
ATOM     15  C   UNL     1       2.443   7.897  18.574  0.00  0.00    +0.000 A 
ATOM     16  N   UNL     1       1.657   8.553  19.400  0.00  0.00    +0.000 NA
BRANCH  15  17
ATOM     17  C   UNL     1       3.230   6.665  18.810  0.00  0.00    +0.000 C 
BRANCH  17  18
ATOM     18  C   UNL     1       2.350   5.466  19.073  0.00  0.00    +0.000 A 
ATOM     19  C   UNL     1       1.944   5.154  20.378  0.00  0.00    +0.000 A 
ATOM     20  C   UNL     1       1.180   4.012  20.627  0.00  0.00    +0.000 A 
ATOM     21  C   UNL     1       0.819   3.173  19.575  0.00  0.00    +0.000 A 
ATOM     22  C   UNL     1       1.216   3.474  18.274  0.00  0.00    +0.000 A 
ATOM     23  C   UNL     1       1.979   4.615  18.022  0.00  0.00    +0.000 A 
ENDBRANCH  17  18
ENDBRANCH  15  17
ENDBRANCH   6  12
BRANCH   1  25
ATOM     24  C   UNL     1      -6.299  11.573  19.659  0.00  0.00    +0.000 C 
ATOM     25  O   UNL     1      -5.505  12.686  19.253  0.00  0.00    +0.000 OA
ENDBRANCH   1  25
BRANCH  11  26
ATOM     26  O   UNL     1      -4.551  14.475  20.986  0.00  0.00    +0.000 OA
ATOM     27  C   UNL     1      -4.134  15.834  20.935  0.00  0.00    +0.000 C 
ENDBRANCH  11  26
BRANCH   8  28
ATOM     28  C   UNL     1       0.560  13.450  21.586  0.00  0.00    +0.000 C 
BRANCH  28  29
ATOM     29  C   UNL     1       1.602  14.290  20.873  0.00  0.00    +0.000 A 
ATOM     30  C   UNL     1       1.230  15.168  19.842  0.00  0.00    +0.000 A 
ATOM     31  C   UNL     1       2.193  15.907  19.148  0.00  0.00    +0.000 A 
ATOM     32  C   UNL     1       3.536  15.783  19.490  0.00  0.00    +0.000 A 
ATOM     33 CL   UNL     1       4.726  16.652  18.603  0.00  0.00    +0.000 Cl
ATOM     34  C   UNL     1       3.921  14.953  20.540  0.00  0.00    +0.000 A 
ATOM     35  C   UNL     1       2.957  14.214  21.233  0.00  0.00    +0.000 A 
ENDBRANCH  28  29
ENDBRANCH   8  28
TORSDOF 7
ENDMDL
MODEL 2
REMARK VINA RESULT:      -7.6      1.046      1.363
REMARK  Name = 
REMARK  9 active torsions:
REMARK  status: ('A' for Active; 'I' for Inactive)
REMARK    1  A    between atoms: C_1  and  O_2
REMARK    2  A    between atoms: O_2  and  C_3
REMARK    3  A    between atoms: C_8  and  C_9
REMARK    4  A    between atoms: C_12  and  C_13
REMARK    5  A    between atoms: C_13  and  C_14
REMARK    6  A    between atoms: N_22  and  C_23
REMARK    7  A    between atoms: C_23  and  C_24
REMARK    8  A    between atoms: C_33  and  O_34
REMARK    9  A    between atoms: O_34  and  C_35
REMARK                            x       y       z     vdW  Elec       q    Type
REMARK                         _______ _______ _______ _____ _____    ______ ____
ROOT
ATOM      1  C   UNL     1      -4.449  12.309  19.033  0.00  0.00    +0.000 A 
ATOM      2  C   UNL     1      -3.476  11.457  18.519  0.00  0.00    +0.000 A 
ATOM      3  C   UNL     1      -2.218  11.371  19.127  0.00  0.00    +0.000 A 
ATOM      4  C   UNL     1      -1.237  10.422  18.539  0.00  0.00    +0.000 A 
ATOM      5  O   UNL     1      -1.577   9.703  17.604  0.00  0.00    +0.000 OA
ATOM      6  C   UNL     1       0.114  10.370  19.144  0.00  0.00    +0.000 A 
ATOM      7  C   UNL     1       0.311  11.150  20.220  0.00  0.00    +0.000 A 
ATOM      8  N   UNL     1      -0.589  12.022  20.820  0.00  0.00    +0.000 N 
ATOM      9  C   UNL     1      -1.881  12.141  20.258  0.00  0.00    +0.000 A 
ATOM     10  C   UNL     1      -2.878  12.998  20.754  0.00  0.00    +0.000 A 
ATOM     11  C   UNL     1      -4.137  13.113  20.138  0.00  0.00    +0.000 A 
ENDROOT
BRANCH   6  12
ATOM     12  C   UNL     1       1.117   9.515  18.598  0.00  0.00    +0.000 A 
ATOM     13  N   UNL     1       1.791   9.673  17.448  0.00  0.00    +0.000 NA
ATOM     14  O   UNL     1       2.658   8.584  17.421  0.00  0.00    +0.000 OA
ATOM     15  C   UNL     1       2.438   7.884  18.565  0.00  0.00    +0.000 A 
ATOM     16  N   UNL     1       1.511   8.414  19.334  0.00  0.00    +0.000 NA
BRANCH  15  17
ATOM     17  C   UNL     1       3.246   6.663  18.779  0.00  0.00    +0.000 C 
BRANCH  17  18
ATOM     18  C   UNL     1       2.387   5.441  19.003  0.00  0.00    +0.000 A 
ATOM     19  C   UNL     1       1.930   5.120  20.290  0.00  0.00    +0.000 A 
ATOM     20  C   UNL     1       1.186   3.958  20.506  0.00  0.00    +0.000 A 
ATOM     21  C   UNL     1       0.896   3.108  19.441  0.00  0.00    +0.000 A 
ATOM     22  C   UNL     1       1.344   3.418  18.158  0.00  0.00    +0.000 A 
ATOM     23  C   UNL     1       2.087   4.578  17.939  0.00  0.00    +0.000 A 
ENDBRANCH  17  18
ENDBRANCH  15  17
ENDBRANCH   6  12
BRANCH   1  25
ATOM     24  C   UNL     1      -5.754  12.293  17.065  0.00  0.00    +0.000 C 
ATOM     25  O   UNL     1      -5.701  12.428  18.484  0.00  0.00    +0.000 OA
ENDBRANCH   1  25
BRANCH  11  26
ATOM     26  O   UNL     1      -5.127  13.947  20.598  0.00  0.00    +0.000 OA
ATOM     27  C   UNL     1      -5.346  13.947  22.004  0.00  0.00    +0.000 C 
ENDBRANCH  11  26
BRANCH   8  28
ATOM     28  C   UNL     1      -0.167  12.886  21.944  0.00  0.00    +0.000 C 
BRANCH  28  29
ATOM     29  C   UNL     1       0.582  14.119  21.476  0.00  0.00    +0.000 A 
ATOM     30  C   UNL     1       1.974  14.085  21.292  0.00  0.00    +0.000 A 
ATOM     31  C   UNL     1       2.674  15.232  20.909  0.00  0.00    +0.000 A 
ATOM     32  C   UNL     1       1.985  16.421  20.693  0.00  0.00    +0.000 A 
ATOM     33 CL   UNL     1       2.852  17.846  20.272  0.00  0.00    +0.000 Cl
ATOM     34  C   UNL     1       0.600  16.465  20.825  0.00  0.00    +0.000 A 
ATOM     35  C   UNL     1      -0.100  15.317  21.208  0.00  0.00    +0.000 A 
ENDBRANCH  28  29
ENDBRANCH   8  28
TORSDOF 7
ENDMDL
MODEL 3
REMARK VINA RESULT:      -7.6      1.280      1.781
REMARK  Name = 
REMARK  9 active torsions:
REMARK  status: ('A' for Active; 'I' for Inactive)
REMARK    1  A    between atoms: C_1  and  O_2
REMARK    2  A    between atoms: O_2  and  C_3
REMARK    3  A    between atoms: C_8  and  C_9
REMARK    4  A    between atoms: C_12  and  C_13
REMARK    5  A    between atoms: C_13  and  C_14
REMARK    6  A    between atoms: N_22  and  C_23
REMARK    7  A    between atoms: C_23  and  C_24
REMARK    8  A    between atoms: C_33  and  O_34
REMARK    9  A    between atoms: O_34  and  C_35
REMARK                            x       y       z     vdW  Elec       q    Type
REMARK                         _______ _______ _______ _____ _____    ______ ____
ROOT
ATOM      1  C   UNL     1      -4.379  12.039  18.648  0.00  0.00    +0.000 A 
ATOM      2  C   UNL     1      -3.341  11.271  18.131  0.00  0.00    +0.000 A 
ATOM      3  C   UNL     1      -2.135  11.147  18.830  0.00  0.00    +0.000 A 
ATOM      4  C   UNL     1      -1.080  10.290  18.230  0.00  0.00    +0.000 A 
ATOM      5  O   UNL     1      -1.320   9.670  17.198  0.00  0.00    +0.000 OA
ATOM      6  C   UNL     1       0.218  10.203  18.939  0.00  0.00    +0.000 A 
ATOM      7  C   UNL     1       0.301  10.867  20.104  0.00  0.00    +0.000 A 
ATOM      8  N   UNL     1      -0.672  11.648  20.715  0.00  0.00    +0.000 N 
ATOM      9  C   UNL     1      -1.917  11.798  20.061  0.00  0.00    +0.000 A 
ATOM     10  C   UNL     1      -2.978  12.573  20.559  0.00  0.00    +0.000 A 
ATOM     11  C   UNL     1      -4.185  12.726  19.855  0.00  0.00    +0.000 A 
ENDROOT
BRANCH   6  12
ATOM     12  C   UNL     1       1.289   9.435  18.392  0.00  0.00    +0.000 A 
ATOM     13  N   UNL     1       2.116   9.779  17.392  0.00  0.00    +0.000 NA
ATOM     14  O   UNL     1       2.981   8.692  17.291  0.00  0.00    +0.000 OA
ATOM     15  C   UNL     1       2.604   7.806  18.250  0.00  0.00    +0.000 A 
ATOM     16  N   UNL     1       1.578   8.212  18.967  0.00  0.00    +0.000 NA
BRANCH  15  17
ATOM     17  C   UNL     1       3.376   6.547  18.351  0.00  0.00    +0.000 C 
BRANCH  17  18
ATOM     18  C   UNL     1       2.542   5.406  18.883  0.00  0.00    +0.000 A 
ATOM     19  C   UNL     1       1.938   4.496  18.004  0.00  0.00    +0.000 A 
ATOM     20  C   UNL     1       1.119   3.477  18.493  0.00  0.00    +0.000 A 
ATOM     21  C   UNL     1       0.896   3.361  19.864  0.00  0.00    +0.000 A 
ATOM     22  C   UNL     1       1.492   4.258  20.747  0.00  0.00    +0.000 A 
ATOM     23  C   UNL     1       2.311   5.277  20.261  0.00  0.00    +0.000 A 
ENDBRANCH  17  18
ENDBRANCH  15  17
ENDBRANCH   6  12
BRANCH   1  25
ATOM     24  C   UNL     1      -6.530  11.147  18.250  0.00  0.00    +0.000 C 
ATOM     25  O   UNL     1      -5.585  12.188  18.010  0.00  0.00    +0.000 OA
ENDBRANCH   1  25
BRANCH  11  26
ATOM     26  O   UNL     1      -5.235  13.483  20.315  0.00  0.00    +0.000 OA
ATOM     27  C   UNL     1      -5.031  14.153  21.554  0.00  0.00    +0.000 C 
ENDBRANCH  11  26
BRANCH   8  28
ATOM     28  C   UNL     1      -0.371  12.394  21.956  0.00  0.00    +0.000 C 
BRANCH  28  29
ATOM     29  C   UNL     1       0.111  13.806  21.679  0.00  0.00    +0.000 A 
ATOM     30  C   UNL     1      -0.312  14.877  22.484  0.00  0.00    +0.000 A 
ATOM     31  C   UNL     1       0.089  16.186  22.202  0.00  0.00    +0.000 A 
ATOM     32  C   UNL     1       0.929  16.432  21.121  0.00  0.00    +0.000 A 
ATOM     33 CL   UNL     1       1.381  18.048  20.741  0.00  0.00    +0.000 Cl
ATOM     34  C   UNL     1       1.397  15.379  20.339  0.00  0.00    +0.000 A 
ATOM     35  C   UNL     1       0.995  14.070  20.621  0.00  0.00    +0.000 A 
ENDBRANCH  28  29
ENDBRANCH   8  28
TORSDOF 7
ENDMDL
MODEL 4
REMARK VINA RESULT:      -7.6      0.523      1.266
REMARK  Name = 
REMARK  9 active torsions:
REMARK  status: ('A' for Active; 'I' for Inactive)
REMARK    1  A    between atoms: C_1  and  O_2
REMARK    2  A    between atoms: O_2  and  C_3
REMARK    3  A    between atoms: C_8  and  C_9
REMARK    4  A    between atoms: C_12  and  C_13
REMARK    5  A    between atoms: C_13  and  C_14
REMARK    6  A    between atoms: N_22  and  C_23
REMARK    7  A    between atoms: C_23  and  C_24
REMARK    8  A    between atoms: C_33  and  O_34
REMARK    9  A    between atoms: O_34  and  C_35
REMARK                            x       y       z     vdW  Elec       q    Type
REMARK                         _______ _______ _______ _____ _____    ______ ____
ROOT
ATOM      1  C   UNL     1      -4.033  12.233  19.078  0.00  0.00    +0.000 A 
ATOM      2  C   UNL     1      -3.118  11.311  18.581  0.00  0.00    +0.000 A 
ATOM      3  C   UNL     1      -1.801  11.295  19.053  0.00  0.00    +0.000 A 
ATOM      4  C   UNL     1      -0.885  10.266  18.496  0.00  0.00    +0.000 A 
ATOM      5  O   UNL     1      -1.323   9.430  17.710  0.00  0.00    +0.000 OA
ATOM      6  C   UNL     1       0.524  10.283  18.952  0.00  0.00    +0.000 A 
ATOM      7  C   UNL     1       0.834  11.200  19.883  0.00  0.00    +0.000 A 
ATOM      8  N   UNL     1       0.000  12.154  20.453  0.00  0.00    +0.000 N 
ATOM      9  C   UNL     1      -1.346  12.209  20.025  0.00  0.00    +0.000 A 
ATOM     10  C   UNL     1      -2.287  13.135  20.507  0.00  0.00    +0.000 A 
ATOM     11  C   UNL     1      -3.607  13.178  20.022  0.00  0.00    +0.000 A 
ENDROOT
BRANCH   6  12
ATOM     12  C   UNL     1       1.466   9.352  18.420  0.00  0.00    +0.000 A 
ATOM     13  N   UNL     1       2.107   9.417  17.243  0.00  0.00    +0.000 NA
ATOM     14  O   UNL     1       2.919   8.286  17.247  0.00  0.00    +0.000 OA
ATOM     15  C   UNL     1       2.703   7.657  18.432  0.00  0.00    +0.000 A 
ATOM     16  N   UNL     1       1.829   8.271  19.201  0.00  0.00    +0.000 NA
BRANCH  15  17
ATOM     17  C   UNL     1       3.458   6.409  18.685  0.00  0.00    +0.000 C 
BRANCH  17  18
ATOM     18  C   UNL     1       2.550   5.253  19.033  0.00  0.00    +0.000 A 
ATOM     19  C   UNL     1       2.012   4.442  18.024  0.00  0.00    +0.000 A 
ATOM     20  C   UNL     1       1.127   3.410  18.342  0.00  0.00    +0.000 A 
ATOM     21  C   UNL     1       0.770   3.184  19.670  0.00  0.00    +0.000 A 
ATOM     22  C   UNL     1       1.300   3.983  20.681  0.00  0.00    +0.000 A 
ATOM     23  C   UNL     1       2.185   5.014  20.366  0.00  0.00    +0.000 A 
ENDBRANCH  17  18
ENDBRANCH  15  17
ENDBRANCH   6  12
BRANCH   1  25
ATOM     24  C   UNL     1      -5.839  11.086  18.078  0.00  0.00    +0.000 C 
ATOM     25  O   UNL     1      -5.339  12.289  18.658  0.00  0.00    +0.000 OA
ENDBRANCH   1  25
BRANCH  11  26
ATOM     26  O   UNL     1      -4.545  14.076  20.470  0.00  0.00    +0.000 OA
ATOM     27  C   UNL     1      -4.108  14.998  21.463  0.00  0.00    +0.000 C 
ENDBRANCH  11  26
BRANCH   8  28
ATOM     28  C   UNL     1       0.539  13.159  21.397  0.00  0.00    +0.000 C 
BRANCH  28  29
ATOM     29  C   UNL     1       1.573  14.062  20.752  0.00  0.00    +0.000 A 
ATOM     30  C   UNL     1       2.906  14.055  21.195  0.00  0.00    +0.000 A 
ATOM     31  C   UNL     1       3.851  14.920  20.638  0.00  0.00    +0.000 A 
ATOM     32  C   UNL     1       3.473  15.791  19.620  0.00  0.00    +0.000 A 
ATOM     33 CL   UNL     1       4.622  16.893  18.969  0.00  0.00    +0.000 Cl
ATOM     34  C   UNL     1       2.168  15.781  19.134  0.00  0.00    +0.000 A 
ATOM     35  C   UNL     1       1.223  14.915  19.693  0.00  0.00    +0.000 A 
ENDBRANCH  28  29
ENDBRANCH   8  28
TORSDOF 7
ENDMDL
MODEL 5
REMARK VINA RESULT:      -7.4      2.993      5.196
REMARK  Name = 
REMARK  9 active torsions:
REMARK  status: ('A' for Active; 'I' for Inactive)
REMARK    1  A    between atoms: C_1  and  O_2
REMARK    2  A    between atoms: O_2  and  C_3
REMARK    3  A    between atoms: C_8  and  C_9
REMARK    4  A    between atoms: C_12  and  C_13
REMARK    5  A    between atoms: C_13  and  C_14
REMARK    6  A    between atoms: N_22  and  C_23
REMARK    7  A    between atoms: C_23  and  C_24
REMARK    8  A    between atoms: C_33  and  O_34
REMARK    9  A    between atoms: O_34  and  C_35
REMARK                            x       y       z     vdW  Elec       q    Type
REMARK                         _______ _______ _______ _____ _____    ______ ____
ROOT
ATOM      1  C   UNL     1       1.481  15.504  18.611  0.00  0.00    +0.000 A 
ATOM      2  C   UNL     1       1.943  14.208  18.400  0.00  0.00    +0.000 A 
ATOM      3  C   UNL     1       1.194  13.109  18.835  0.00  0.00    +0.000 A 
ATOM      4  C   UNL     1       1.737  11.755  18.553  0.00  0.00    +0.000 A 
ATOM      5  O   UNL     1       2.767  11.642  17.895  0.00  0.00    +0.000 OA
ATOM      6  C   UNL     1       0.974  10.591  19.061  0.00  0.00    +0.000 A 
ATOM      7  C   UNL     1      -0.182  10.868  19.685  0.00  0.00    +0.000 A 
ATOM      8  N   UNL     1      -0.741  12.116  19.936  0.00  0.00    +0.000 N 
ATOM      9  C   UNL     1      -0.035  13.263  19.508  0.00  0.00    +0.000 A 
ATOM     10  C   UNL     1      -0.477  14.581  19.715  0.00  0.00    +0.000 A 
ATOM     11  C   UNL     1       0.278  15.695  19.306  0.00  0.00    +0.000 A 
ENDROOT
BRANCH   6  12
ATOM     12  C   UNL     1       1.466   9.266  18.865  0.00  0.00    +0.000 A 
ATOM     13  N   UNL     1       1.684   8.637  17.699  0.00  0.00    +0.000 NA
ATOM     14  O   UNL     1       2.189   7.397  18.084  0.00  0.00    +0.000 OA
ATOM     15  C   UNL     1       2.243   7.404  19.441  0.00  0.00    +0.000 A 
ATOM     16  N   UNL     1       1.823   8.530  19.978  0.00  0.00    +0.000 NA
BRANCH  15  17
ATOM     17  C   UNL     1       2.750   6.182  20.106  0.00  0.00    +0.000 C 
BRANCH  17  18
ATOM     18  C   UNL     1       2.053   4.934  19.618  0.00  0.00    +0.000 A 
ATOM     19  C   UNL     1       1.271   4.168  20.494  0.00  0.00    +0.000 A 
ATOM     20  C   UNL     1       0.675   2.983  20.059  0.00  0.00    +0.000 A 
ATOM     21  C   UNL     1       0.859   2.553  18.746  0.00  0.00    +0.000 A 
ATOM     22  C   UNL     1       1.633   3.307  17.866  0.00  0.00    +0.000 A 
ATOM     23  C   UNL     1       2.229   4.492  18.299  0.00  0.00    +0.000 A 
ENDBRANCH  17  18
ENDBRANCH  15  17
ENDBRANCH   6  12
BRANCH   1  25
ATOM     24  C   UNL     1       3.457  16.785  18.790  0.00  0.00    +0.000 C 
ATOM     25  O   UNL     1       2.169  16.617  18.200  0.00  0.00    +0.000 OA
ENDBRANCH   1  25
BRANCH  11  26
ATOM     26  O   UNL     1      -0.127  16.992  19.502  0.00  0.00    +0.000 OA
ATOM     27  C   UNL     1      -0.246  17.416  20.855  0.00  0.00    +0.000 C 
ENDBRANCH  11  26
BRANCH   8  28
ATOM     28  C   UNL     1      -1.982  12.240  20.733  0.00  0.00    +0.000 C 
BRANCH  28  29
ATOM     29  C   UNL     1      -3.222  12.305  19.863  0.00  0.00    +0.000 A 
ATOM     30  C   UNL     1      -4.379  12.962  20.314  0.00  0.00    +0.000 A 
ATOM     31  C   UNL     1      -5.540  12.982  19.537  0.00  0.00    +0.000 A 
ATOM     32  C   UNL     1      -5.550  12.356  18.295  0.00  0.00    +0.000 A 
ATOM     33 CL   UNL     1      -6.995  12.334  17.361  0.00  0.00    +0.000 Cl
ATOM     34  C   UNL     1      -4.401  11.738  17.809  0.00  0.00    +0.000 A 
ATOM     35  C   UNL     1      -3.239  11.719  18.587  0.00  0.00    +0.000 A 
ENDBRANCH  28  29
ENDBRANCH   8  28
TORSDOF 7
ENDMDL
MODEL 6
REMARK VINA RESULT:      -7.2      3.081      5.369
REMARK  Name = 
REMARK  9 active torsions:
REMARK  status: ('A' for Active; 'I' for Inactive)
REMARK    1  A    between atoms: C_1  and  O_2
REMARK    2  A    between atoms: O_2  and  C_3
REMARK    3  A    between atoms: C_8  and  C_9
REMARK    4  A    between atoms: C_12  and  C_13
REMARK    5  A    between atoms: C_13  and  C_14
REMARK    6  A    between atoms: N_22  and  C_23
REMARK    7  A    between atoms: C_23  and  C_24
REMARK    8  A    between atoms: C_33  and  O_34
REMARK    9  A    between atoms: O_34  and  C_35
REMARK                            x       y       z     vdW  Elec       q    Type
REMARK                         _______ _______ _______ _____ _____    ______ ____
ROOT
ATOM      1  C   UNL     1       1.616  15.734  18.708  0.00  0.00    +0.000 A 
ATOM      2  C   UNL     1       2.042  14.435  18.450  0.00  0.00    +0.000 A 
ATOM      3  C   UNL     1       1.274  13.342  18.868  0.00  0.00    +0.000 A 
ATOM      4  C   UNL     1       1.778  11.984  18.536  0.00  0.00    +0.000 A 
ATOM      5  O   UNL     1       2.791  11.866  17.854  0.00  0.00    +0.000 OA
ATOM      6  C   UNL     1       0.997  10.824  19.027  0.00  0.00    +0.000 A 
ATOM      7  C   UNL     1      -0.139  11.112  19.683  0.00  0.00    +0.000 A 
ATOM      8  N   UNL     1      -0.661  12.364  19.982  0.00  0.00    +0.000 N 
ATOM      9  C   UNL     1       0.064  13.506  19.572  0.00  0.00    +0.000 A 
ATOM     10  C   UNL     1      -0.341  14.828  19.826  0.00  0.00    +0.000 A 
ATOM     11  C   UNL     1       0.433  15.934  19.433  0.00  0.00    +0.000 A 
ENDROOT
BRANCH   6  12
ATOM     12  C   UNL     1       1.451   9.494  18.783  0.00  0.00    +0.000 A 
ATOM     13  N   UNL     1       1.832   8.960  17.611  0.00  0.00    +0.000 NA
ATOM     14  O   UNL     1       2.206   7.661  17.947  0.00  0.00    +0.000 OA
ATOM     15  C   UNL     1       2.032   7.543  19.290  0.00  0.00    +0.000 A 
ATOM     16  N   UNL     1       1.583   8.639  19.861  0.00  0.00    +0.000 NA
BRANCH  15  17
ATOM     17  C   UNL     1       2.364   6.237  19.903  0.00  0.00    +0.000 C 
BRANCH  17  18
ATOM     18  C   UNL     1       2.932   5.261  18.900  0.00  0.00    +0.000 A 
ATOM     19  C   UNL     1       4.305   5.254  18.614  0.00  0.00    +0.000 A 
ATOM     20  C   UNL     1       4.820   4.392  17.643  0.00  0.00    +0.000 A 
ATOM     21  C   UNL     1       3.968   3.536  16.950  0.00  0.00    +0.000 A 
ATOM     22  C   UNL     1       2.602   3.533  17.227  0.00  0.00    +0.000 A 
ATOM     23  C   UNL     1       2.085   4.393  18.196  0.00  0.00    +0.000 A 
ENDBRANCH  17  18
ENDBRANCH  15  17
ENDBRANCH   6  12
BRANCH   1  25
ATOM     24  C   UNL     1       3.742  16.704  18.364  0.00  0.00    +0.000 C 
ATOM     25  O   UNL     1       2.323  16.842  18.314  0.00  0.00    +0.000 OA
ENDBRANCH   1  25
BRANCH  11  26
ATOM     26  O   UNL     1       0.064  17.235  19.675  0.00  0.00    +0.000 OA
ATOM     27  C   UNL     1      -1.126  17.680  19.034  0.00  0.00    +0.000 C 
ENDBRANCH  11  26
BRANCH   8  28
ATOM     28  C   UNL     1      -1.882  12.495  20.808  0.00  0.00    +0.000 C 
BRANCH  28  29
ATOM     29  C   UNL     1      -3.151  12.406  19.982  0.00  0.00    +0.000 A 
ATOM     30  C   UNL     1      -4.368  12.894  20.485  0.00  0.00    +0.000 A 
ATOM     31  C   UNL     1      -5.549  12.768  19.749  0.00  0.00    +0.000 A 
ATOM     32  C   UNL     1      -5.519  12.166  18.495  0.00  0.00    +0.000 A 
ATOM     33 CL   UNL     1      -6.981  11.964  17.610  0.00  0.00    +0.000 Cl
ATOM     34  C   UNL     1      -4.315  11.718  17.958  0.00  0.00    +0.000 A 
ATOM     35  C   UNL     1      -3.134  11.843  18.696  0.00  0.00    +0.000 A 
ENDBRANCH  28  29
ENDBRANCH   8  28
TORSDOF 7
ENDMDL
MODEL 7
REMARK VINA RESULT:      -7.2      2.163      2.346
REMARK  Name = 
REMARK  9 active torsions:
REMARK  status: ('A' for Active; 'I' for Inactive)
REMARK    1  A    between atoms: C_1  and  O_2
REMARK    2  A    between atoms: O_2  and  C_3
REMARK    3  A    between atoms: C_8  and  C_9
REMARK    4  A    between atoms: C_12  and  C_13
REMARK    5  A    between atoms: C_13  and  C_14
REMARK    6  A    between atoms: N_22  and  C_23
REMARK    7  A    between atoms: C_23  and  C_24
REMARK    8  A    between atoms: C_33  and  O_34
REMARK    9  A    between atoms: O_34  and  C_35
REMARK                            x       y       z     vdW  Elec       q    Type
REMARK                         _______ _______ _______ _____ _____    ______ ____
ROOT
ATOM      1  C   UNL     1      -1.778  12.950  22.967  0.00  0.00    +0.000 A 
ATOM      2  C   UNL     1      -1.295  11.781  22.388  0.00  0.00    +0.000 A 
ATOM      3  C   UNL     1      -0.450  11.840  21.273  0.00  0.00    +0.000 A 
ATOM      4  C   UNL     1       0.048  10.553  20.722  0.00  0.00    +0.000 A 
ATOM      5  O   UNL     1      -0.229   9.503  21.295  0.00  0.00    +0.000 OA
ATOM      6  C   UNL     1       0.896  10.609  19.509  0.00  0.00    +0.000 A 
ATOM      7  C   UNL     1       1.189  11.836  19.048  0.00  0.00    +0.000 A 
ATOM      8  N   UNL     1       0.773  13.061  19.554  0.00  0.00    +0.000 N 
ATOM      9  C   UNL     1      -0.071  13.065  20.688  0.00  0.00    +0.000 A 
ATOM     10  C   UNL     1      -0.578  14.231  21.288  0.00  0.00    +0.000 A 
ATOM     11  C   UNL     1      -1.447  14.185  22.392  0.00  0.00    +0.000 A 
ENDROOT
BRANCH   6  12
ATOM     12  C   UNL     1       1.368   9.406  18.902  0.00  0.00    +0.000 A 
ATOM     13  N   UNL     1       1.217   9.018  17.626  0.00  0.00    +0.000 NA
ATOM     14  O   UNL     1       1.892   7.802  17.570  0.00  0.00    +0.000 OA
ATOM     15  C   UNL     1       2.400   7.582  18.811  0.00  0.00    +0.000 A 
ATOM     16  N   UNL     1       2.122   8.539  19.670  0.00  0.00    +0.000 NA
BRANCH  15  17
ATOM     17  C   UNL     1       3.172   6.336  19.016  0.00  0.00    +0.000 C 
BRANCH  17  18
ATOM     18  C   UNL     1       2.278   5.135  19.215  0.00  0.00    +0.000 A 
ATOM     19  C   UNL     1       1.813   4.799  20.495  0.00  0.00    +0.000 A 
ATOM     20  C   UNL     1       1.035   3.656  20.687  0.00  0.00    +0.000 A 
ATOM     21  C   UNL     1       0.718   2.839  19.603  0.00  0.00    +0.000 A 
ATOM     22  C   UNL     1       1.173   3.164  18.327  0.00  0.00    +0.000 A 
ATOM     23  C   UNL     1       1.950   4.306  18.132  0.00  0.00    +0.000 A 
ENDBRANCH  17  18
ENDBRANCH  15  17
ENDBRANCH   6  12
BRANCH   1  25
ATOM     24  C   UNL     1      -3.837  12.259  23.896  0.00  0.00    +0.000 C 
ATOM     25  O   UNL     1      -2.602  12.952  24.065  0.00  0.00    +0.000 OA
ENDBRANCH   1  25
BRANCH  11  26
ATOM     26  O   UNL     1      -1.962  15.308  22.992  0.00  0.00    +0.000 OA
ATOM     27  C   UNL     1      -2.976  15.998  22.271  0.00  0.00    +0.000 C 
ENDBRANCH  11  26
BRANCH   8  28
ATOM     28  C   UNL     1       1.110  14.321  18.854  0.00  0.00    +0.000 C 
BRANCH  28  29
ATOM     29  C   UNL     1       2.569  14.700  19.018  0.00  0.00    +0.000 A 
ATOM     30  C   UNL     1       3.471  14.557  17.950  0.00  0.00    +0.000 A 
ATOM     31  C   UNL     1       4.826  14.857  18.111  0.00  0.00    +0.000 A 
ATOM     32  C   UNL     1       5.289  15.318  19.339  0.00  0.00    +0.000 A 
ATOM     33 CL   UNL     1       6.965  15.638  19.554  0.00  0.00    +0.000 Cl
ATOM     34  C   UNL     1       4.404  15.510  20.397  0.00  0.00    +0.000 A 
ATOM     35  C   UNL     1       3.048  15.209  20.235  0.00  0.00    +0.000 A 
ENDBRANCH  28  29
ENDBRANCH   8  28
TORSDOF 7
ENDMDL
MODEL 8
REMARK VINA RESULT:      -7.1      3.013      5.214
REMARK  Name = 
REMARK  9 active torsions:
REMARK  status: ('A' for Active; 'I' for Inactive)
REMARK    1  A    between atoms: C_1  and  O_2
REMARK    2  A    between atoms: O_2  and  C_3
REMARK    3  A    between atoms: C_8  and  C_9
REMARK    4  A    between atoms: C_12  and  C_13
REMARK    5  A    between atoms: C_13  and  C_14
REMARK    6  A    between atoms: N_22  and  C_23
REMARK    7  A    between atoms: C_23  and  C_24
REMARK    8  A    between atoms: C_33  and  O_34
REMARK    9  A    between atoms: O_34  and  C_35
REMARK                            x       y       z     vdW  Elec       q    Type
REMARK                         _______ _______ _______ _____ _____    ______ ____
ROOT
ATOM      1  C   UNL     1       1.013  15.894  19.137  0.00  0.00    +0.000 A 
ATOM      2  C   UNL     1       1.553  14.651  18.824  0.00  0.00    +0.000 A 
ATOM      3  C   UNL     1       0.847  13.478  19.118  0.00  0.00    +0.000 A 
ATOM      4  C   UNL     1       1.473  12.187  18.732  0.00  0.00    +0.000 A 
ATOM      5  O   UNL     1       2.533  12.190  18.113  0.00  0.00    +0.000 OA
ATOM      6  C   UNL     1       0.756  10.942  19.093  0.00  0.00    +0.000 A 
ATOM      7  C   UNL     1      -0.437  11.099  19.690  0.00  0.00    +0.000 A 
ATOM      8  N   UNL     1      -1.072  12.286  20.034  0.00  0.00    +0.000 N 
ATOM      9  C   UNL     1      -0.413  13.504  19.749  0.00  0.00    +0.000 A 
ATOM     10  C   UNL     1      -0.934  14.771  20.061  0.00  0.00    +0.000 A 
ATOM     11  C   UNL     1      -0.224  15.956  19.794  0.00  0.00    +0.000 A 
ENDROOT
BRANCH   6  12
ATOM     12  C   UNL     1       1.325   9.668  18.794  0.00  0.00    +0.000 A 
ATOM     13  N   UNL     1       1.676   9.190  17.589  0.00  0.00    +0.000 NA
ATOM     14  O   UNL     1       2.203   7.933  17.875  0.00  0.00    +0.000 OA
ATOM     15  C   UNL     1       2.136   7.782  19.223  0.00  0.00    +0.000 A 
ATOM     16  N   UNL     1       1.618   8.819  19.844  0.00  0.00    +0.000 NA
BRANCH  15  17
ATOM     17  C   UNL     1       2.641   6.510  19.788  0.00  0.00    +0.000 C 
BRANCH  17  18
ATOM     18  C   UNL     1       2.768   5.429  18.740  0.00  0.00    +0.000 A 
ATOM     19  C   UNL     1       1.700   4.557  18.485  0.00  0.00    +0.000 A 
ATOM     20  C   UNL     1       1.838   3.521  17.559  0.00  0.00    +0.000 A 
ATOM     21  C   UNL     1       3.045   3.348  16.884  0.00  0.00    +0.000 A 
ATOM     22  C   UNL     1       4.112   4.210  17.127  0.00  0.00    +0.000 A 
ATOM     23  C   UNL     1       3.976   5.246  18.052  0.00  0.00    +0.000 A 
ENDBRANCH  17  18
ENDBRANCH  15  17
ENDBRANCH   6  12
BRANCH   1  25
ATOM     24  C   UNL     1       1.623  17.481  17.497  0.00  0.00    +0.000 C 
ATOM     25  O   UNL     1       1.656  17.076  18.864  0.00  0.00    +0.000 OA
ENDBRANCH   1  25
BRANCH  11  26
ATOM     26  O   UNL     1      -0.706  17.207  20.094  0.00  0.00    +0.000 OA
ATOM     27  C   UNL     1      -1.969  17.545  19.532  0.00  0.00    +0.000 C 
ENDBRANCH  11  26
BRANCH   8  28
ATOM     28  C   UNL     1      -2.347  12.270  20.784  0.00  0.00    +0.000 C 
BRANCH  28  29
ATOM     29  C   UNL     1      -3.553  12.409  19.876  0.00  0.00    +0.000 A 
ATOM     30  C   UNL     1      -4.632  13.233  20.239  0.00  0.00    +0.000 A 
ATOM     31  C   UNL     1      -5.767  13.326  19.429  0.00  0.00    +0.000 A 
ATOM     32  C   UNL     1      -5.827  12.605  18.240  0.00  0.00    +0.000 A 
ATOM     33 CL   UNL     1      -7.244  12.677  17.268  0.00  0.00    +0.000 Cl
ATOM     34  C   UNL     1      -4.749  11.819  17.839  0.00  0.00    +0.000 A 
ATOM     35  C   UNL     1      -3.614  11.727  18.651  0.00  0.00    +0.000 A 
ENDBRANCH  28  29
ENDBRANCH   8  28
TORSDOF 7
ENDMDL
MODEL 9
REMARK VINA RESULT:      -7.1      2.346      2.662
REMARK  Name = 
REMARK  9 active torsions:
REMARK  status: ('A' for Active; 'I' for Inactive)
REMARK    1  A    between atoms: C_1  and  O_2
REMARK    2  A    between atoms: O_2  and  C_3
REMARK    3  A    between atoms: C_8  and  C_9
REMARK    4  A    between atoms: C_12  and  C_13
REMARK    5  A    between atoms: C_13  and  C_14
REMARK    6  A    between atoms: N_22  and  C_23
REMARK    7  A    between atoms: C_23  and  C_24
REMARK    8  A    between atoms: C_33  and  O_34
REMARK    9  A    between atoms: O_34  and  C_35
REMARK                            x       y       z     vdW  Elec       q    Type
REMARK                         _______ _______ _______ _____ _____    ______ ____
ROOT
ATOM      1  C   UNL     1      -1.979  12.798  23.108  0.00  0.00    +0.000 A 
ATOM      2  C   UNL     1      -1.380  11.563  22.878  0.00  0.00    +0.000 A 
ATOM      3  C   UNL     1      -0.594  11.358  21.739  0.00  0.00    +0.000 A 
ATOM      4  C   UNL     1       0.035  10.022  21.571  0.00  0.00    +0.000 A 
ATOM      5  O   UNL     1      -0.090   9.181  22.456  0.00  0.00    +0.000 OA
ATOM      6  C   UNL     1       0.821   9.784  20.339  0.00  0.00    +0.000 A 
ATOM      7  C   UNL     1       0.943  10.830  19.504  0.00  0.00    +0.000 A 
ATOM      8  N   UNL     1       0.402  12.102  19.642  0.00  0.00    +0.000 N 
ATOM      9  C   UNL     1      -0.391  12.372  20.781  0.00  0.00    +0.000 A 
ATOM     10  C   UNL     1      -1.011  13.608  21.032  0.00  0.00    +0.000 A 
ATOM     11  C   UNL     1      -1.824  13.819  22.160  0.00  0.00    +0.000 A 
ENDROOT
BRANCH   6  12
ATOM     12  C   UNL     1       1.411   8.508  20.094  0.00  0.00    +0.000 A 
ATOM     13  N   UNL     1       1.399   7.433  20.898  0.00  0.00    +0.000 NA
ATOM     14  O   UNL     1       2.083   6.466  20.164  0.00  0.00    +0.000 OA
ATOM     15  C   UNL     1       2.425   7.045  18.983  0.00  0.00    +0.000 A 
ATOM     16  N   UNL     1       2.029   8.296  18.877  0.00  0.00    +0.000 NA
BRANCH  15  17
ATOM     17  C   UNL     1       3.171   6.214  18.012  0.00  0.00    +0.000 C 
BRANCH  17  18
ATOM     18  C   UNL     1       3.057   4.739  18.315  0.00  0.00    +0.000 A 
ATOM     19  C   UNL     1       4.079   4.073  19.007  0.00  0.00    +0.000 A 
ATOM     20  C   UNL     1       4.000   2.698  19.235  0.00  0.00    +0.000 A 
ATOM     21  C   UNL     1       2.902   1.978  18.770  0.00  0.00    +0.000 A 
ATOM     22  C   UNL     1       1.879   2.629  18.083  0.00  0.00    +0.000 A 
ATOM     23  C   UNL     1       1.956   4.003  17.855  0.00  0.00    +0.000 A 
ENDBRANCH  17  18
ENDBRANCH  15  17
ENDBRANCH   6  12
BRANCH   1  25
ATOM     24  C   UNL     1      -4.041  12.445  24.205  0.00  0.00    +0.000 C 
ATOM     25  O   UNL     1      -2.753  13.057  24.211  0.00  0.00    +0.000 OA
ENDBRANCH   1  25
BRANCH  11  26
ATOM     26  O   UNL     1      -2.447  15.014  22.426  0.00  0.00    +0.000 OA
ATOM     27  C   UNL     1      -1.597  16.108  22.749  0.00  0.00    +0.000 C 
ENDBRANCH  11  26
BRANCH   8  28
ATOM     28  C   UNL     1       0.556  13.108  18.567  0.00  0.00    +0.000 C 
BRANCH  28  29
ATOM     29  C   UNL     1       1.613  14.144  18.893  0.00  0.00    +0.000 A 
ATOM     30  C   UNL     1       1.353  15.513  18.713  0.00  0.00    +0.000 A 
ATOM     31  C   UNL     1       2.341  16.469  18.965  0.00  0.00    +0.000 A 
ATOM     32  C   UNL     1       3.595  16.064  19.412  0.00  0.00    +0.000 A 
ATOM     33 CL   UNL     1       4.828  17.235  19.672  0.00  0.00    +0.000 Cl
ATOM     34  C   UNL     1       3.858  14.716  19.641  0.00  0.00    +0.000 A 
ATOM     35  C   UNL     1       2.869  13.760  19.389  0.00  0.00    +0.000 A 
ENDBRANCH  28  29
ENDBRANCH   8  28
TORSDOF 7
ENDMDL
