MODEL 1
REMARK VINA RESULT:      -8.0      0.000      0.000
REMARK  Name = 
REMARK  8 active torsions:
REMARK  status: ('A' for Active; 'I' for Inactive)
REMARK    1  A    between atoms: C_1  and  O_2
REMARK    2  A    between atoms: O_2  and  C_3
REMARK    3  A    between atoms: C_7  and  C_8
REMARK    4  A    between atoms: C_8  and  C_9
REMARK    5  A    between atoms: C_9  and  C_10
REMARK    6  A    between atoms: C_15  and  O_16
REMARK    7  A    between atoms: O_16  and  C_17
REMARK    8  A    between atoms: C_17  and  C_18
REMARK                            x       y       z     vdW  Elec       q    Type
REMARK                         _______ _______ _______ _____ _____    ______ ____
ROOT
ATOM      1  C   UNL     1       2.407   4.936  19.484  0.00  0.00    +0.000 A 
ATOM      2  C   UNL     1       1.834   4.620  20.734  0.00  0.00    +0.000 A 
ATOM      3  C   UNL     1       1.153   3.424  20.941  0.00  0.00    +0.000 A 
ATOM      4  C   UNL     1       0.995   2.531  19.892  0.00  0.00    +0.000 A 
ATOM      5  C   UNL     1       1.530   2.837  18.639  0.00  0.00    +0.000 A 
ATOM      6  C   UNL     1       2.275   4.014  18.430  0.00  0.00    +0.000 A 
ENDROOT
BRANCH   1   7
ATOM      7  C   UNL     1       3.185   6.232  19.374  0.00  0.00    +0.000 C 
BRANCH   7   8
ATOM      8  C   UNL     1       2.546   7.344  18.525  0.00  0.00    +0.000 C 
BRANCH   8  13
ATOM      9  C   UNL     1       0.760   9.210  21.358  0.00  0.00    +0.000 A 
ATOM     10  C   UNL     1       0.264  10.318  20.666  0.00  0.00    +0.000 A 
ATOM     11  C   UNL     1       0.489  10.454  19.297  0.00  0.00    +0.000 A 
ATOM     12  C   UNL     1       1.226   9.487  18.615  0.00  0.00    +0.000 A 
ATOM     13  C   UNL     1       1.750   8.378  19.293  0.00  0.00    +0.000 A 
ATOM     14  C   UNL     1       1.513   8.248  20.674  0.00  0.00    +0.000 A 
BRANCH   9  16
ATOM     15  C   UNL     1      -0.631  10.004  23.101  0.00  0.00    +0.000 C 
ATOM     16  O   UNL     1       0.463   9.193  22.694  0.00  0.00    +0.000 OA
ENDBRANCH   9  16
ENDBRANCH   8  13
ENDBRANCH   7   8
ENDBRANCH   1   7
BRANCH   6  17
ATOM     17  O   UNL     1       2.910   4.292  17.236  0.00  0.00    +0.000 OA
BRANCH  17  18
ATOM     18  C   UNL     1       4.085   3.503  16.992  0.00  0.00    +0.000 C 
BRANCH  18  19
ATOM     19  C   UNL     1       5.283   4.288  16.510  0.00  0.00    +0.000 A 
ATOM     20  C   UNL     1       5.871   5.316  17.243  0.00  0.00    +0.000 A 
ATOM     21  C   UNL     1       6.983   5.959  16.708  0.00  0.00    +0.000 A 
ATOM     22  N   UNL     1       7.528   5.659  15.510  0.00  0.00    +0.000 NA
ATOM     23  C   UNL     1       6.938   4.669  14.809  0.00  0.00    +0.000 A 
ATOM     24  C   UNL     1       5.831   3.969  15.261  0.00  0.00    +0.000 A 
ENDBRANCH  18  19
ENDBRANCH  17  18
ENDBRANCH   6  17
TORSDOF 7
ENDMDL
MODEL 2
REMARK VINA RESULT:      -8.0      1.304      1.530
REMARK  Name = 
REMARK  8 active torsions:
REMARK  status: ('A' for Active; 'I' for Inactive)
REMARK    1  A    between atoms: C_1  and  O_2
REMARK    2  A    between atoms: O_2  and  C_3
REMARK    3  A    between atoms: C_7  and  C_8
REMARK    4  A    between atoms: C_8  and  C_9
REMARK    5  A    between atoms: C_9  and  C_10
REMARK    6  A    between atoms: C_15  and  O_16
REMARK    7  A    between atoms: O_16  and  C_17
REMARK    8  A    between atoms: C_17  and  C_18
REMARK                            x       y       z     vdW  Elec       q    Type
REMARK                         _______ _______ _______ _____ _____    ______ ____
ROOT
ATOM      1  C   UNL     1       2.250   4.226  19.228  0.00  0.00    +0.000 A 
ATOM      2  C   UNL     1       1.193   4.271  20.161  0.00  0.00    +0.000 A 
ATOM      3  C   UNL     1       1.165   3.433  21.271  0.00  0.00    +0.000 A 
ATOM      4  C   UNL     1       2.175   2.502  21.455  0.00  0.00    +0.000 A 
ATOM      5  C   UNL     1       3.217   2.421  20.529  0.00  0.00    +0.000 A 
ATOM      6  C   UNL     1       3.291   3.304  19.435  0.00  0.00    +0.000 A 
ENDROOT
BRANCH   1   7
ATOM      7  C   UNL     1       2.225   5.224  18.087  0.00  0.00    +0.000 C 
BRANCH   7   8
ATOM      8  C   UNL     1       3.025   6.521  18.294  0.00  0.00    +0.000 C 
BRANCH   8  13
ATOM      9  C   UNL     1       1.022   8.933  20.499  0.00  0.00    +0.000 A 
ATOM     10  C   UNL     1       0.737   9.947  19.582  0.00  0.00    +0.000 A 
ATOM     11  C   UNL     1       1.172   9.847  18.261  0.00  0.00    +0.000 A 
ATOM     12  C   UNL     1       1.909   8.736  17.855  0.00  0.00    +0.000 A 
ATOM     13  C   UNL     1       2.224   7.716  18.764  0.00  0.00    +0.000 A 
ATOM     14  C   UNL     1       1.775   7.825  20.093  0.00  0.00    +0.000 A 
BRANCH   9  16
ATOM     15  C   UNL     1       0.045  10.459  22.022  0.00  0.00    +0.000 C 
ATOM     16  O   UNL     1       0.531   9.150  21.758  0.00  0.00    +0.000 OA
ENDBRANCH   9  16
ENDBRANCH   8  13
ENDBRANCH   7   8
ENDBRANCH   1   7
BRANCH   6  17
ATOM     17  O   UNL     1       4.363   3.324  18.564  0.00  0.00    +0.000 OA
BRANCH  17  18
ATOM     18  C   UNL     1       5.553   3.919  19.104  0.00  0.00    +0.000 C 
BRANCH  18  19
ATOM     19  C   UNL     1       6.276   4.853  18.161  0.00  0.00    +0.000 A 
ATOM     20  C   UNL     1       6.963   5.988  18.582  0.00  0.00    +0.000 A 
ATOM     21  C   UNL     1       7.607   6.767  17.626  0.00  0.00    +0.000 A 
ATOM     22  N   UNL     1       7.600   6.499  16.302  0.00  0.00    +0.000 NA
ATOM     23  C   UNL     1       6.919   5.404  15.911  0.00  0.00    +0.000 A 
ATOM     24  C   UNL     1       6.252   4.566  16.790  0.00  0.00    +0.000 A 
ENDBRANCH  18  19
ENDBRANCH  17  18
ENDBRANCH   6  17
TORSDOF 7
ENDMDL
MODEL 3
REMARK VINA RESULT:      -7.8      2.186      4.405
REMARK  Name = 
REMARK  8 active torsions:
REMARK  status: ('A' for Active; 'I' for Inactive)
REMARK    1  A    between atoms: C_1  and  O_2
REMARK    2  A    between atoms: O_2  and  C_3
REMARK    3  A    between atoms: C_7  and  C_8
REMARK    4  A    between atoms: C_8  and  C_9
REMARK    5  A    between atoms: C_9  and  C_10
REMARK    6  A    between atoms: C_15  and  O_16
REMARK    7  A    between atoms: O_16  and  C_17
REMARK    8  A    between atoms: C_17  and  C_18
REMARK                            x       y       z     vdW  Elec       q    Type
REMARK                         _______ _______ _______ _____ _____    ______ ____
ROOT
ATOM      1  C   UNL     1       3.887   5.668  17.505  0.00  0.00    +0.000 A 
ATOM      2  C   UNL     1       4.837   6.711  17.498  0.00  0.00    +0.000 A 
ATOM      3  C   UNL     1       6.101   6.541  16.941  0.00  0.00    +0.000 A 
ATOM      4  C   UNL     1       6.459   5.311  16.411  0.00  0.00    +0.000 A 
ATOM      5  C   UNL     1       5.544   4.256  16.433  0.00  0.00    +0.000 A 
ATOM      6  C   UNL     1       4.241   4.431  16.937  0.00  0.00    +0.000 A 
ENDROOT
BRANCH   1   7
ATOM      7  C   UNL     1       2.516   5.969  18.076  0.00  0.00    +0.000 C 
BRANCH   7   8
ATOM      8  C   UNL     1       2.478   6.538  19.505  0.00  0.00    +0.000 C 
BRANCH   8  13
ATOM      9  C   UNL     1       0.938   9.726  20.976  0.00  0.00    +0.000 A 
ATOM     10  C   UNL     1       0.845  10.520  19.832  0.00  0.00    +0.000 A 
ATOM     11  C   UNL     1       1.258  10.027  18.594  0.00  0.00    +0.000 A 
ATOM     12  C   UNL     1       1.783   8.740  18.500  0.00  0.00    +0.000 A 
ATOM     13  C   UNL     1       1.905   7.932  19.639  0.00  0.00    +0.000 A 
ATOM     14  C   UNL     1       1.480   8.438  20.881  0.00  0.00    +0.000 A 
BRANCH   9  16
ATOM     15  C   UNL     1      -0.092   9.460  23.091  0.00  0.00    +0.000 C 
ATOM     16  O   UNL     1       0.492  10.323  22.123  0.00  0.00    +0.000 OA
ENDBRANCH   9  16
ENDBRANCH   8  13
ENDBRANCH   7   8
ENDBRANCH   1   7
BRANCH   6  17
ATOM     17  O   UNL     1       3.278   3.444  16.873  0.00  0.00    +0.000 OA
BRANCH  17  18
ATOM     18  C   UNL     1       3.445   2.389  17.833  0.00  0.00    +0.000 C 
BRANCH  18  19
ATOM     19  C   UNL     1       2.681   2.584  19.123  0.00  0.00    +0.000 A 
ATOM     20  C   UNL     1       1.299   2.748  19.179  0.00  0.00    +0.000 A 
ATOM     21  C   UNL     1       0.700   2.903  20.425  0.00  0.00    +0.000 A 
ATOM     22  N   UNL     1       1.376   2.917  21.594  0.00  0.00    +0.000 NA
ATOM     23  C   UNL     1       2.714   2.770  21.520  0.00  0.00    +0.000 A 
ATOM     24  C   UNL     1       3.398   2.605  20.326  0.00  0.00    +0.000 A 
ENDBRANCH  18  19
ENDBRANCH  17  18
ENDBRANCH   6  17
TORSDOF 7
ENDMDL
MODEL 4
REMARK VINA RESULT:      -7.8      2.120      4.417
REMARK  Name = 
REMARK  8 active torsions:
REMARK  status: ('A' for Active; 'I' for Inactive)
REMARK    1  A    between atoms: C_1  and  O_2
REMARK    2  A    between atoms: O_2  and  C_3
REMARK    3  A    between atoms: C_7  and  C_8
REMARK    4  A    between atoms: C_8  and  C_9
REMARK    5  A    between atoms: C_9  and  C_10
REMARK    6  A    between atoms: C_15  and  O_16
REMARK    7  A    between atoms: O_16  and  C_17
REMARK    8  A    between atoms: C_17  and  C_18
REMARK                            x       y       z     vdW  Elec       q    Type
REMARK                         _______ _______ _______ _____ _____    ______ ____
ROOT
ATOM      1  C   UNL     1       4.612   5.757  17.459  0.00  0.00    +0.000 A 
ATOM      2  C   UNL     1       5.757   6.579  17.409  0.00  0.00    +0.000 A 
ATOM      3  C   UNL     1       6.941   6.142  16.823  0.00  0.00    +0.000 A 
ATOM      4  C   UNL     1       7.021   4.858  16.306  0.00  0.00    +0.000 A 
ATOM      5  C   UNL     1       5.907   4.018  16.370  0.00  0.00    +0.000 A 
ATOM      6  C   UNL     1       4.684   4.466  16.904  0.00  0.00    +0.000 A 
ENDROOT
BRANCH   1   7
ATOM      7  C   UNL     1       3.350   6.344  18.059  0.00  0.00    +0.000 C 
BRANCH   7   8
ATOM      8  C   UNL     1       3.032   7.804  17.692  0.00  0.00    +0.000 C 
BRANCH   8  13
ATOM      9  C   UNL     1       0.838   8.779  20.681  0.00  0.00    +0.000 A 
ATOM     10  C   UNL     1       0.039   9.768  20.103  0.00  0.00    +0.000 A 
ATOM     11  C   UNL     1       0.194  10.106  18.759  0.00  0.00    +0.000 A 
ATOM     12  C   UNL     1       1.162   9.465  17.989  0.00  0.00    +0.000 A 
ATOM     13  C   UNL     1       1.990   8.483  18.554  0.00  0.00    +0.000 A 
ATOM     14  C   UNL     1       1.821   8.147  19.909  0.00  0.00    +0.000 A 
BRANCH   9  16
ATOM     15  C   UNL     1       0.126   9.648  22.764  0.00  0.00    +0.000 C 
ATOM     16  O   UNL     1       0.580   8.537  22.002  0.00  0.00    +0.000 OA
ENDBRANCH   9  16
ENDBRANCH   8  13
ENDBRANCH   7   8
ENDBRANCH   1   7
BRANCH   6  17
ATOM     17  O   UNL     1       3.535   3.701  16.882  0.00  0.00    +0.000 OA
BRANCH  17  18
ATOM     18  C   UNL     1       3.572   2.551  17.742  0.00  0.00    +0.000 C 
BRANCH  18  19
ATOM     19  C   UNL     1       2.841   2.722  19.054  0.00  0.00    +0.000 A 
ATOM     20  C   UNL     1       3.448   2.560  20.296  0.00  0.00    +0.000 A 
ATOM     21  C   UNL     1       2.681   2.759  21.439  0.00  0.00    +0.000 A 
ATOM     22  N   UNL     1       1.372   3.091  21.425  0.00  0.00    +0.000 NA
ATOM     23  C   UNL     1       0.797   3.230  20.213  0.00  0.00    +0.000 A 
ATOM     24  C   UNL     1       1.481   3.057  19.021  0.00  0.00    +0.000 A 
ENDBRANCH  18  19
ENDBRANCH  17  18
ENDBRANCH   6  17
TORSDOF 7
ENDMDL
MODEL 5
REMARK VINA RESULT:      -7.8      1.639      2.180
REMARK  Name = 
REMARK  8 active torsions:
REMARK  status: ('A' for Active; 'I' for Inactive)
REMARK    1  A    between atoms: C_1  and  O_2
REMARK    2  A    between atoms: O_2  and  C_3
REMARK    3  A    between atoms: C_7  and  C_8
REMARK    4  A    between atoms: C_8  and  C_9
REMARK    5  A    between atoms: C_9  and  C_10
REMARK    6  A    between atoms: C_15  and  O_16
REMARK    7  A    between atoms: O_16  and  C_17
REMARK    8  A    between atoms: C_17  and  C_18
REMARK                            x       y       z     vdW  Elec       q    Type
REMARK                         _______ _______ _______ _____ _____    ______ ____
ROOT
ATOM      1  C   UNL     1       2.101   4.191  19.200  0.00  0.00    +0.000 A 
ATOM      2  C   UNL     1       1.050   4.193  20.140  0.00  0.00    +0.000 A 
ATOM      3  C   UNL     1       1.077   3.373  21.264  0.00  0.00    +0.000 A 
ATOM      4  C   UNL     1       2.139   2.503  21.455  0.00  0.00    +0.000 A 
ATOM      5  C   UNL     1       3.178   2.464  20.522  0.00  0.00    +0.000 A 
ATOM      6  C   UNL     1       3.194   3.332  19.412  0.00  0.00    +0.000 A 
ENDROOT
BRANCH   1   7
ATOM      7  C   UNL     1       2.012   5.166  18.042  0.00  0.00    +0.000 C 
BRANCH   7   8
ATOM      8  C   UNL     1       2.827   6.464  18.177  0.00  0.00    +0.000 C 
BRANCH   8  13
ATOM      9  C   UNL     1       1.089   9.794  18.946  0.00  0.00    +0.000 A 
ATOM     10  C   UNL     1       0.877   9.663  20.320  0.00  0.00    +0.000 A 
ATOM     11  C   UNL     1       1.304   8.521  20.996  0.00  0.00    +0.000 A 
ATOM     12  C   UNL     1       1.934   7.495  20.295  0.00  0.00    +0.000 A 
ATOM     13  C   UNL     1       2.139   7.595  18.911  0.00  0.00    +0.000 A 
ATOM     14  C   UNL     1       1.708   8.754  18.241  0.00  0.00    +0.000 A 
BRANCH   9  16
ATOM     15  C   UNL     1       0.438  12.039  19.318  0.00  0.00    +0.000 C 
ATOM     16  O   UNL     1       0.630  10.964  18.407  0.00  0.00    +0.000 OA
ENDBRANCH   9  16
ENDBRANCH   8  13
ENDBRANCH   7   8
ENDBRANCH   1   7
BRANCH   6  17
ATOM     17  O   UNL     1       4.257   3.398  18.533  0.00  0.00    +0.000 OA
BRANCH  17  18
ATOM     18  C   UNL     1       5.439   4.006  19.076  0.00  0.00    +0.000 C 
BRANCH  18  19
ATOM     19  C   UNL     1       6.197   4.886  18.109  0.00  0.00    +0.000 A 
ATOM     20  C   UNL     1       6.784   6.095  18.472  0.00  0.00    +0.000 A 
ATOM     21  C   UNL     1       7.473   6.815  17.501  0.00  0.00    +0.000 A 
ATOM     22  N   UNL     1       7.602   6.421  16.216  0.00  0.00    +0.000 NA
ATOM     23  C   UNL     1       7.017   5.254  15.880  0.00  0.00    +0.000 A 
ATOM     24  C   UNL     1       6.314   4.467  16.778  0.00  0.00    +0.000 A 
ENDBRANCH  18  19
ENDBRANCH  17  18
ENDBRANCH   6  17
TORSDOF 7
ENDMDL
MODEL 6
REMARK VINA RESULT:      -7.8      1.127      1.668
REMARK  Name = 
REMARK  8 active torsions:
REMARK  status: ('A' for Active; 'I' for Inactive)
REMARK    1  A    between atoms: C_1  and  O_2
REMARK    2  A    between atoms: O_2  and  C_3
REMARK    3  A    between atoms: C_7  and  C_8
REMARK    4  A    between atoms: C_8  and  C_9
REMARK    5  A    between atoms: C_9  and  C_10
REMARK    6  A    between atoms: C_15  and  O_16
REMARK    7  A    between atoms: O_16  and  C_17
REMARK    8  A    between atoms: C_17  and  C_18
REMARK                            x       y       z     vdW  Elec       q    Type
REMARK                         _______ _______ _______ _____ _____    ______ ____
ROOT
ATOM      1  C   UNL     1       2.321   5.133  19.296  0.00  0.00    +0.000 A 
ATOM      2  C   UNL     1       1.699   4.897  20.540  0.00  0.00    +0.000 A 
ATOM      3  C   UNL     1       0.981   3.731  20.786  0.00  0.00    +0.000 A 
ATOM      4  C   UNL     1       0.835   2.788  19.780  0.00  0.00    +0.000 A 
ATOM      5  C   UNL     1       1.419   3.014  18.531  0.00  0.00    +0.000 A 
ATOM      6  C   UNL     1       2.201   4.160  18.288  0.00  0.00    +0.000 A 
ENDROOT
BRANCH   1   7
ATOM      7  C   UNL     1       3.136   6.402  19.146  0.00  0.00    +0.000 C 
BRANCH   7   8
ATOM      8  C   UNL     1       2.505   7.526  18.307  0.00  0.00    +0.000 C 
BRANCH   8  13
ATOM      9  C   UNL     1       0.406  10.607  19.201  0.00  0.00    +0.000 A 
ATOM     10  C   UNL     1       0.164  10.371  20.556  0.00  0.00    +0.000 A 
ATOM     11  C   UNL     1       0.687   9.239  21.180  0.00  0.00    +0.000 A 
ATOM     12  C   UNL     1       1.442   8.327  20.446  0.00  0.00    +0.000 A 
ATOM     13  C   UNL     1       1.680   8.533  19.079  0.00  0.00    +0.000 A 
ATOM     14  C   UNL     1       1.152   9.681  18.461  0.00  0.00    +0.000 A 
BRANCH   9  16
ATOM     15  C   UNL     1      -0.505  12.739  19.679  0.00  0.00    +0.000 C 
ATOM     16  O   UNL     1      -0.155  11.756  18.713  0.00  0.00    +0.000 OA
ENDBRANCH   9  16
ENDBRANCH   8  13
ENDBRANCH   7   8
ENDBRANCH   1   7
BRANCH   6  17
ATOM     17  O   UNL     1       2.883   4.359  17.104  0.00  0.00    +0.000 OA
BRANCH  17  18
ATOM     18  C   UNL     1       4.059   3.549  16.954  0.00  0.00    +0.000 C 
BRANCH  18  19
ATOM     19  C   UNL     1       5.282   4.296  16.475  0.00  0.00    +0.000 A 
ATOM     20  C   UNL     1       6.037   5.133  17.291  0.00  0.00    +0.000 A 
ATOM     21  C   UNL     1       7.156   5.757  16.747  0.00  0.00    +0.000 A 
ATOM     22  N   UNL     1       7.555   5.612  15.466  0.00  0.00    +0.000 NA
ATOM     23  C   UNL     1       6.805   4.807  14.686  0.00  0.00    +0.000 A 
ATOM     24  C   UNL     1       5.678   4.141  15.140  0.00  0.00    +0.000 A 
ENDBRANCH  18  19
ENDBRANCH  17  18
ENDBRANCH   6  17
TORSDOF 7
ENDMDL
MODEL 7
REMARK VINA RESULT:      -7.8      1.733      2.553
REMARK  Name = 
REMARK  8 active torsions:
REMARK  status: ('A' for Active; 'I' for Inactive)
REMARK    1  A    between atoms: C_1  and  O_2
REMARK    2  A    between atoms: O_2  and  C_3
REMARK    3  A    between atoms: C_7  and  C_8
REMARK    4  A    between atoms: C_8  and  C_9
REMARK    5  A    between atoms: C_9  and  C_10
REMARK    6  A    between atoms: C_15  and  O_16
REMARK    7  A    between atoms: O_16  and  C_17
REMARK    8  A    between atoms: C_17  and  C_18
REMARK                            x       y       z     vdW  Elec       q    Type
REMARK                         _______ _______ _______ _____ _____    ______ ____
ROOT
ATOM      1  C   UNL     1       2.179   3.893  19.107  0.00  0.00    +0.000 A 
ATOM      2  C   UNL     1       1.072   3.877  19.981  0.00  0.00    +0.000 A 
ATOM      3  C   UNL     1       1.091   3.150  21.167  0.00  0.00    +0.000 A 
ATOM      4  C   UNL     1       2.204   2.389  21.490  0.00  0.00    +0.000 A 
ATOM      5  C   UNL     1       3.301   2.369  20.625  0.00  0.00    +0.000 A 
ATOM      6  C   UNL     1       3.321   3.148  19.453  0.00  0.00    +0.000 A 
ENDROOT
BRANCH   1   7
ATOM      7  C   UNL     1       2.088   4.768  17.872  0.00  0.00    +0.000 C 
BRANCH   7   8
ATOM      8  C   UNL     1       2.903   6.072  17.895  0.00  0.00    +0.000 C 
BRANCH   8  13
ATOM      9  C   UNL     1       1.346   9.476  18.725  0.00  0.00    +0.000 A 
ATOM     10  C   UNL     1       1.117   9.328  20.095  0.00  0.00    +0.000 A 
ATOM     11  C   UNL     1       1.476   8.149  20.748  0.00  0.00    +0.000 A 
ATOM     12  C   UNL     1       2.053   7.105  20.029  0.00  0.00    +0.000 A 
ATOM     13  C   UNL     1       2.274   7.223  18.650  0.00  0.00    +0.000 A 
ATOM     14  C   UNL     1       1.912   8.418  18.002  0.00  0.00    +0.000 A 
BRANCH   9  16
ATOM     15  C   UNL     1       1.355  11.832  18.942  0.00  0.00    +0.000 C 
ATOM     16  O   UNL     1       0.957  10.681  18.208  0.00  0.00    +0.000 OA
ENDBRANCH   9  16
ENDBRANCH   8  13
ENDBRANCH   7   8
ENDBRANCH   1   7
BRANCH   6  17
ATOM     17  O   UNL     1       4.430   3.237  18.635  0.00  0.00    +0.000 OA
BRANCH  17  18
ATOM     18  C   UNL     1       5.492   4.047  19.163  0.00  0.00    +0.000 C 
BRANCH  18  19
ATOM     19  C   UNL     1       6.217   4.885  18.135  0.00  0.00    +0.000 A 
ATOM     20  C   UNL     1       6.189   4.615  16.769  0.00  0.00    +0.000 A 
ATOM     21  C   UNL     1       6.881   5.465  15.911  0.00  0.00    +0.000 A 
ATOM     22  N   UNL     1       7.593   6.537  16.320  0.00  0.00    +0.000 NA
ATOM     23  C   UNL     1       7.620   6.775  17.647  0.00  0.00    +0.000 A 
ATOM     24  C   UNL     1       6.959   5.988  18.576  0.00  0.00    +0.000 A 
ENDBRANCH  18  19
ENDBRANCH  17  18
ENDBRANCH   6  17
TORSDOF 7
ENDMDL
MODEL 8
REMARK VINA RESULT:      -7.7      2.260      4.722
REMARK  Name = 
REMARK  8 active torsions:
REMARK  status: ('A' for Active; 'I' for Inactive)
REMARK    1  A    between atoms: C_1  and  O_2
REMARK    2  A    between atoms: O_2  and  C_3
REMARK    3  A    between atoms: C_7  and  C_8
REMARK    4  A    between atoms: C_8  and  C_9
REMARK    5  A    between atoms: C_9  and  C_10
REMARK    6  A    between atoms: C_15  and  O_16
REMARK    7  A    between atoms: O_16  and  C_17
REMARK    8  A    between atoms: C_17  and  C_18
REMARK                            x       y       z     vdW  Elec       q    Type
REMARK                         _______ _______ _______ _____ _____    ______ ____
ROOT
ATOM      1  C   UNL     1       4.943   5.551  17.536  0.00  0.00    +0.000 A 
ATOM      2  C   UNL     1       6.179   6.220  17.420  0.00  0.00    +0.000 A 
ATOM      3  C   UNL     1       7.178   5.759  16.568  0.00  0.00    +0.000 A 
ATOM      4  C   UNL     1       6.979   4.596  15.839  0.00  0.00    +0.000 A 
ATOM      5  C   UNL     1       5.772   3.903  15.961  0.00  0.00    +0.000 A 
ATOM      6  C   UNL     1       4.729   4.391  16.771  0.00  0.00    +0.000 A 
ENDROOT
BRANCH   1   7
ATOM      7  C   UNL     1       3.893   6.166  18.441  0.00  0.00    +0.000 C 
BRANCH   7   8
ATOM      8  C   UNL     1       2.990   7.240  17.811  0.00  0.00    +0.000 C 
BRANCH   8  13
ATOM      9  C   UNL     1       0.711   9.929  19.320  0.00  0.00    +0.000 A 
ATOM     10  C   UNL     1       0.550   9.433  20.615  0.00  0.00    +0.000 A 
ATOM     11  C   UNL     1       1.182   8.253  21.005  0.00  0.00    +0.000 A 
ATOM     12  C   UNL     1       1.969   7.554  20.092  0.00  0.00    +0.000 A 
ATOM     13  C   UNL     1       2.129   8.022  18.780  0.00  0.00    +0.000 A 
ATOM     14  C   UNL     1       1.490   9.215  18.399  0.00  0.00    +0.000 A 
BRANCH   9  16
ATOM     15  C   UNL     1      -1.242  10.968  18.478  0.00  0.00    +0.000 C 
ATOM     16  O   UNL     1       0.045  11.097  19.069  0.00  0.00    +0.000 OA
ENDBRANCH   9  16
ENDBRANCH   8  13
ENDBRANCH   7   8
ENDBRANCH   1   7
BRANCH   6  17
ATOM     17  O   UNL     1       3.487   3.792  16.828  0.00  0.00    +0.000 OA
BRANCH  17  18
ATOM     18  C   UNL     1       3.427   2.627  17.666  0.00  0.00    +0.000 C 
BRANCH  18  19
ATOM     19  C   UNL     1       2.742   2.842  18.996  0.00  0.00    +0.000 A 
ATOM     20  C   UNL     1       3.327   2.527  20.220  0.00  0.00    +0.000 A 
ATOM     21  C   UNL     1       2.609   2.784  21.383  0.00  0.00    +0.000 A 
ATOM     22  N   UNL     1       1.367   3.313  21.405  0.00  0.00    +0.000 NA
ATOM     23  C   UNL     1       0.811   3.600  20.211  0.00  0.00    +0.000 A 
ATOM     24  C   UNL     1       1.450   3.384  19.001  0.00  0.00    +0.000 A 
ENDBRANCH  18  19
ENDBRANCH  17  18
ENDBRANCH   6  17
TORSDOF 7
ENDMDL
MODEL 9
REMARK VINA RESULT:      -7.7      2.282      4.711
REMARK  Name = 
REMARK  8 active torsions:
REMARK  status: ('A' for Active; 'I' for Inactive)
REMARK    1  A    between atoms: C_1  and  O_2
REMARK    2  A    between atoms: O_2  and  C_3
REMARK    3  A    between atoms: C_7  and  C_8
REMARK    4  A    between atoms: C_8  and  C_9
REMARK    5  A    between atoms: C_9  and  C_10
REMARK    6  A    between atoms: C_15  and  O_16
REMARK    7  A    between atoms: O_16  and  C_17
REMARK    8  A    between atoms: C_17  and  C_18
REMARK                            x       y       z     vdW  Elec       q    Type
REMARK                         _______ _______ _______ _____ _____    ______ ____
ROOT
ATOM      1  C   UNL     1       4.933   5.600  17.564  0.00  0.00    +0.000 A 
ATOM      2  C   UNL     1       6.151   6.307  17.478  0.00  0.00    +0.000 A 
ATOM      3  C   UNL     1       7.187   5.875  16.655  0.00  0.00    +0.000 A 
ATOM      4  C   UNL     1       7.044   4.704  15.926  0.00  0.00    +0.000 A 
ATOM      5  C   UNL     1       5.857   3.973  16.018  0.00  0.00    +0.000 A 
ATOM      6  C   UNL     1       4.777   4.431  16.799  0.00  0.00    +0.000 A 
ENDROOT
BRANCH   1   7
ATOM      7  C   UNL     1       3.841   6.185  18.438  0.00  0.00    +0.000 C 
BRANCH   7   8
ATOM      8  C   UNL     1       2.974   7.286  17.804  0.00  0.00    +0.000 C 
BRANCH   8  13
ATOM      9  C   UNL     1       0.664   9.965  19.284  0.00  0.00    +0.000 A 
ATOM     10  C   UNL     1       0.519   9.489  20.589  0.00  0.00    +0.000 A 
ATOM     11  C   UNL     1       1.172   8.325  20.993  0.00  0.00    +0.000 A 
ATOM     12  C   UNL     1       1.964   7.623  20.087  0.00  0.00    +0.000 A 
ATOM     13  C   UNL     1       2.107   8.071  18.766  0.00  0.00    +0.000 A 
ATOM     14  C   UNL     1       1.448   9.248  18.370  0.00  0.00    +0.000 A 
BRANCH   9  16
ATOM     15  C   UNL     1      -1.041  11.467  19.946  0.00  0.00    +0.000 C 
ATOM     16  O   UNL     1      -0.021  11.119  19.018  0.00  0.00    +0.000 OA
ENDBRANCH   9  16
ENDBRANCH   8  13
ENDBRANCH   7   8
ENDBRANCH   1   7
BRANCH   6  17
ATOM     17  O   UNL     1       3.553   3.793  16.824  0.00  0.00    +0.000 OA
BRANCH  17  18
ATOM     18  C   UNL     1       3.501   2.644  17.684  0.00  0.00    +0.000 C 
BRANCH  18  19
ATOM     19  C   UNL     1       2.717   2.845  18.960  0.00  0.00    +0.000 A 
ATOM     20  C   UNL     1       1.399   3.292  18.987  0.00  0.00    +0.000 A 
ATOM     21  C   UNL     1       0.769   3.424  20.221  0.00  0.00    +0.000 A 
ATOM     22  N   UNL     1       1.360   3.158  21.405  0.00  0.00    +0.000 NA
ATOM     23  C   UNL     1       2.640   2.738  21.360  0.00  0.00    +0.000 A 
ATOM     24  C   UNL     1       3.347   2.572  20.181  0.00  0.00    +0.000 A 
ENDBRANCH  18  19
ENDBRANCH  17  18
ENDBRANCH   6  17
TORSDOF 7
ENDMDL
