MODEL 1
REMARK VINA RESULT:      -7.8      0.000      0.000
REMARK  Name = 
REMARK  6 active torsions:
REMARK  status: ('A' for Active; 'I' for Inactive)
REMARK    1  A    between atoms: C_1  and  O_2
REMARK    2  A    between atoms: O_2  and  C_3
REMARK    3  A    between atoms: C_9  and  C_10
REMARK    4  A    between atoms: C_10  and  C_11
REMARK    5  A    between atoms: C_11  and  N_12
REMARK    6  A    between atoms: C_13  and  C_14
REMARK                            x       y       z     vdW  Elec       q    Type
REMARK                         _______ _______ _______ _____ _____    ______ ____
ROOT
ATOM      1  C   UNL     1       5.372   5.937  15.811  0.00  0.00    +0.000 A 
ATOM      2  C   UNL     1       4.934   7.066  16.485  0.00  0.00    +0.000 A 
ATOM      3  C   UNL     1       3.841   6.974  17.341  0.00  0.00    +0.000 A 
ATOM      4  C   UNL     1       3.181   5.748  17.578  0.00  0.00    +0.000 A 
ATOM      5  C   UNL     1       3.626   4.583  16.907  0.00  0.00    +0.000 A 
ATOM      6  C   UNL     1       4.694   4.725  15.986  0.00  0.00    +0.000 A 
ATOM      7  C   UNL     1       3.086   3.153  17.128  0.00  0.00    +0.000 C 
ATOM      8  C   UNL     1       1.687   3.041  17.796  0.00  0.00    +0.000 C 
ATOM      9  C   UNL     1       1.715   3.440  19.253  0.00  0.00    +0.000 A 
ATOM     10  C   UNL     1       1.635   2.490  20.279  0.00  0.00    +0.000 A 
ATOM     11  C   UNL     1       1.833   2.860  21.610  0.00  0.00    +0.000 A 
ATOM     12  C   UNL     1       2.076   4.192  21.927  0.00  0.00    +0.000 A 
ATOM     13  C   UNL     1       2.117   5.156  20.922  0.00  0.00    +0.000 A 
ATOM     14  C   UNL     1       1.935   4.788  19.580  0.00  0.00    +0.000 A 
ATOM     15  C   UNL     1       1.976   5.821  18.491  0.00  0.00    +0.000 C 
ENDROOT
BRANCH   1  17
ATOM     16  C   UNL     1       7.057   4.644  14.808  0.00  0.00    +0.000 C 
ATOM     17  O   UNL     1       6.437   5.923  14.950  0.00  0.00    +0.000 OA
ENDBRANCH   1  17
BRANCH   7  18
ATOM     18  C   UNL     1       4.162   2.275  17.852  0.00  0.00    +0.000 C 
BRANCH  18  19
ATOM     19  C   UNL     1       4.848   2.992  19.020  0.00  0.00    +0.000 C 
BRANCH  19  20
ATOM     20  N   UNL     1       6.067   3.687  18.649  0.00  0.00    +0.000 N 
ATOM     21  C   UNL     1       6.342   4.932  19.191  0.00  0.00    +0.000 C 
ATOM     22  C   UNL     1       7.694   5.490  18.835  0.00  0.00    +0.000 C 
ATOM     23  O   UNL     1       5.568   5.551  19.908  0.00  0.00    +0.000 OA
ATOM     24  H   UNL     1       6.826   3.152  18.249  0.00  0.00    +0.000 HD
ENDBRANCH  19  20
ENDBRANCH  18  19
ENDBRANCH   7  18
TORSDOF 4
ENDMDL
MODEL 2
REMARK VINA RESULT:      -7.7      3.036      6.295
REMARK  Name = 
REMARK  6 active torsions:
REMARK  status: ('A' for Active; 'I' for Inactive)
REMARK    1  A    between atoms: C_1  and  O_2
REMARK    2  A    between atoms: O_2  and  C_3
REMARK    3  A    between atoms: C_9  and  C_10
REMARK    4  A    between atoms: C_10  and  C_11
REMARK    5  A    between atoms: C_11  and  N_12
REMARK    6  A    between atoms: C_13  and  C_14
REMARK                            x       y       z     vdW  Elec       q    Type
REMARK                         _______ _______ _______ _____ _____    ______ ____
ROOT
ATOM      1  C   UNL     1       2.381   3.695  19.754  0.00  0.00    +0.000 A 
ATOM      2  C   UNL     1       3.500   2.957  20.108  0.00  0.00    +0.000 A 
ATOM      3  C   UNL     1       4.722   3.230  19.502  0.00  0.00    +0.000 A 
ATOM      4  C   UNL     1       4.870   4.269  18.557  0.00  0.00    +0.000 A 
ATOM      5  C   UNL     1       3.739   5.041  18.196  0.00  0.00    +0.000 A 
ATOM      6  C   UNL     1       2.494   4.689  18.775  0.00  0.00    +0.000 A 
ATOM      7  C   UNL     1       3.747   6.271  17.262  0.00  0.00    +0.000 C 
ATOM      8  C   UNL     1       4.975   6.413  16.321  0.00  0.00    +0.000 C 
ATOM      9  C   UNL     1       6.236   6.763  17.076  0.00  0.00    +0.000 A 
ATOM     10  C   UNL     1       6.789   8.049  17.031  0.00  0.00    +0.000 A 
ATOM     11  C   UNL     1       7.852   8.398  17.865  0.00  0.00    +0.000 A 
ATOM     12  C   UNL     1       8.394   7.449  18.724  0.00  0.00    +0.000 A 
ATOM     13  C   UNL     1       7.883   6.152  18.751  0.00  0.00    +0.000 A 
ATOM     14  C   UNL     1       6.804   5.801  17.926  0.00  0.00    +0.000 A 
ATOM     15  C   UNL     1       6.248   4.406  17.947  0.00  0.00    +0.000 C 
ENDROOT
BRANCH   1  17
ATOM     16  C   UNL     1       1.132   2.747  21.503  0.00  0.00    +0.000 C 
ATOM     17  O   UNL     1       1.136   3.506  20.292  0.00  0.00    +0.000 OA
ENDBRANCH   1  17
BRANCH   7  18
ATOM     18  C   UNL     1       3.474   7.576  18.085  0.00  0.00    +0.000 C 
BRANCH  18  19
ATOM     19  C   UNL     1       2.112   8.212  17.784  0.00  0.00    +0.000 C 
BRANCH  19  20
ATOM     20  N   UNL     1       2.110   9.661  17.863  0.00  0.00    +0.000 N 
ATOM     21  C   UNL     1       1.226  10.304  18.712  0.00  0.00    +0.000 C 
ATOM     22  C   UNL     1       1.410  11.796  18.805  0.00  0.00    +0.000 C 
ATOM     23  O   UNL     1       0.353   9.731  19.351  0.00  0.00    +0.000 OA
ATOM     24  H   UNL     1       2.926  10.164  17.539  0.00  0.00    +0.000 HD
ENDBRANCH  19  20
ENDBRANCH  18  19
ENDBRANCH   7  18
TORSDOF 4
ENDMDL
MODEL 3
REMARK VINA RESULT:      -7.5      2.881      4.479
REMARK  Name = 
REMARK  6 active torsions:
REMARK  status: ('A' for Active; 'I' for Inactive)
REMARK    1  A    between atoms: C_1  and  O_2
REMARK    2  A    between atoms: O_2  and  C_3
REMARK    3  A    between atoms: C_9  and  C_10
REMARK    4  A    between atoms: C_10  and  C_11
REMARK    5  A    between atoms: C_11  and  N_12
REMARK    6  A    between atoms: C_13  and  C_14
REMARK                            x       y       z     vdW  Elec       q    Type
REMARK                         _______ _______ _______ _____ _____    ______ ____
ROOT
ATOM      1  C   UNL     1       6.747   6.570  17.412  0.00  0.00    +0.000 A 
ATOM      2  C   UNL     1       7.282   5.293  17.464  0.00  0.00    +0.000 A 
ATOM      3  C   UNL     1       6.609   4.295  18.161  0.00  0.00    +0.000 A 
ATOM      4  C   UNL     1       5.368   4.533  18.791  0.00  0.00    +0.000 A 
ATOM      5  C   UNL     1       4.801   5.830  18.735  0.00  0.00    +0.000 A 
ATOM      6  C   UNL     1       5.548   6.842  18.081  0.00  0.00    +0.000 A 
ATOM      7  C   UNL     1       3.413   6.232  19.278  0.00  0.00    +0.000 C 
ATOM      8  C   UNL     1       2.782   5.278  20.329  0.00  0.00    +0.000 C 
ATOM      9  C   UNL     1       2.354   3.962  19.723  0.00  0.00    +0.000 A 
ATOM     10  C   UNL     1       1.005   3.659  19.498  0.00  0.00    +0.000 A 
ATOM     11  C   UNL     1       0.640   2.517  18.785  0.00  0.00    +0.000 A 
ATOM     12  C   UNL     1       1.623   1.648  18.324  0.00  0.00    +0.000 A 
ATOM     13  C   UNL     1       2.969   1.914  18.576  0.00  0.00    +0.000 A 
ATOM     14  C   UNL     1       3.341   3.069  19.278  0.00  0.00    +0.000 A 
ATOM     15  C   UNL     1       4.788   3.362  19.556  0.00  0.00    +0.000 C 
ENDROOT
BRANCH   1  17
ATOM     16  C   UNL     1       7.942   8.583  17.610  0.00  0.00    +0.000 C 
ATOM     17  O   UNL     1       7.330   7.619  16.752  0.00  0.00    +0.000 OA
ENDBRANCH   1  17
BRANCH   7  18
ATOM     18  C   UNL     1       2.437   6.539  18.092  0.00  0.00    +0.000 C 
BRANCH  18  19
ATOM     19  C   UNL     1       2.110   8.029  17.941  0.00  0.00    +0.000 C 
BRANCH  19  20
ATOM     20  N   UNL     1       1.800   8.693  19.194  0.00  0.00    +0.000 N 
ATOM     21  C   UNL     1       0.809   9.659  19.236  0.00  0.00    +0.000 C 
ATOM     22  C   UNL     1       0.489  10.177  20.612  0.00  0.00    +0.000 C 
ATOM     23  O   UNL     1       0.221  10.077  18.247  0.00  0.00    +0.000 OA
ATOM     24  H   UNL     1       2.086   8.252  20.058  0.00  0.00    +0.000 HD
ENDBRANCH  19  20
ENDBRANCH  18  19
ENDBRANCH   7  18
TORSDOF 4
ENDMDL
MODEL 4
REMARK VINA RESULT:      -7.5      1.443      1.966
REMARK  Name = 
REMARK  6 active torsions:
REMARK  status: ('A' for Active; 'I' for Inactive)
REMARK    1  A    between atoms: C_1  and  O_2
REMARK    2  A    between atoms: O_2  and  C_3
REMARK    3  A    between atoms: C_9  and  C_10
REMARK    4  A    between atoms: C_10  and  C_11
REMARK    5  A    between atoms: C_11  and  N_12
REMARK    6  A    between atoms: C_13  and  C_14
REMARK                            x       y       z     vdW  Elec       q    Type
REMARK                         _______ _______ _______ _____ _____    ______ ____
ROOT
ATOM      1  C   UNL     1       6.245   4.994  16.258  0.00  0.00    +0.000 A 
ATOM      2  C   UNL     1       6.498   5.846  17.322  0.00  0.00    +0.000 A 
ATOM      3  C   UNL     1       5.484   6.128  18.231  0.00  0.00    +0.000 A 
ATOM      4  C   UNL     1       4.204   5.539  18.127  0.00  0.00    +0.000 A 
ATOM      5  C   UNL     1       3.935   4.655  17.054  0.00  0.00    +0.000 A 
ATOM      6  C   UNL     1       4.966   4.447  16.103  0.00  0.00    +0.000 A 
ATOM      7  C   UNL     1       2.632   3.852  16.851  0.00  0.00    +0.000 C 
ATOM      8  C   UNL     1       1.382   4.364  17.618  0.00  0.00    +0.000 C 
ATOM      9  C   UNL     1       1.492   4.138  19.108  0.00  0.00    +0.000 A 
ATOM     10  C   UNL     1       0.758   3.137  19.758  0.00  0.00    +0.000 A 
ATOM     11  C   UNL     1       1.000   2.833  21.098  0.00  0.00    +0.000 A 
ATOM     12  C   UNL     1       1.952   3.555  21.809  0.00  0.00    +0.000 A 
ATOM     13  C   UNL     1       2.662   4.582  21.188  0.00  0.00    +0.000 A 
ATOM     14  C   UNL     1       2.434   4.881  19.837  0.00  0.00    +0.000 A 
ATOM     15  C   UNL     1       3.193   5.987  19.160  0.00  0.00    +0.000 C 
ENDROOT
BRANCH   1  17
ATOM     16  C   UNL     1       6.614   4.202  14.077  0.00  0.00    +0.000 C 
ATOM     17  O   UNL     1       7.174   4.653  15.311  0.00  0.00    +0.000 OA
ENDBRANCH   1  17
BRANCH   7  18
ATOM     18  C   UNL     1       2.894   2.327  17.093  0.00  0.00    +0.000 C 
BRANCH  18  19
ATOM     19  C   UNL     1       4.295   2.028  17.641  0.00  0.00    +0.000 C 
BRANCH  19  20
ATOM     20  N   UNL     1       4.292   1.380  18.939  0.00  0.00    +0.000 N 
ATOM     21  C   UNL     1       4.835   2.029  20.035  0.00  0.00    +0.000 C 
ATOM     22  C   UNL     1       4.654   1.313  21.347  0.00  0.00    +0.000 C 
ATOM     23  O   UNL     1       5.420   3.102  19.973  0.00  0.00    +0.000 OA
ATOM     24  H   UNL     1       3.649   0.615  19.096  0.00  0.00    +0.000 HD
ENDBRANCH  19  20
ENDBRANCH  18  19
ENDBRANCH   7  18
TORSDOF 4
ENDMDL
MODEL 5
REMARK VINA RESULT:      -7.4      2.928      6.066
REMARK  Name = 
REMARK  6 active torsions:
REMARK  status: ('A' for Active; 'I' for Inactive)
REMARK    1  A    between atoms: C_1  and  O_2
REMARK    2  A    between atoms: O_2  and  C_3
REMARK    3  A    between atoms: C_9  and  C_10
REMARK    4  A    between atoms: C_10  and  C_11
REMARK    5  A    between atoms: C_11  and  N_12
REMARK    6  A    between atoms: C_13  and  C_14
REMARK                            x       y       z     vdW  Elec       q    Type
REMARK                         _______ _______ _______ _____ _____    ______ ____
ROOT
ATOM      1  C   UNL     1       1.895   2.928  18.347  0.00  0.00    +0.000 A 
ATOM      2  C   UNL     1       2.923   1.999  18.314  0.00  0.00    +0.000 A 
ATOM      3  C   UNL     1       4.168   2.371  17.818  0.00  0.00    +0.000 A 
ATOM      4  C   UNL     1       4.433   3.687  17.378  0.00  0.00    +0.000 A 
ATOM      5  C   UNL     1       3.396   4.651  17.418  0.00  0.00    +0.000 A 
ATOM      6  C   UNL     1       2.119   4.221  17.859  0.00  0.00    +0.000 A 
ATOM      7  C   UNL     1       3.543   6.149  17.073  0.00  0.00    +0.000 C 
ATOM      8  C   UNL     1       4.780   6.540  16.218  0.00  0.00    +0.000 C 
ATOM      9  C   UNL     1       6.073   6.414  16.991  0.00  0.00    +0.000 A 
ATOM     10  C   UNL     1       6.768   7.540  17.453  0.00  0.00    +0.000 A 
ATOM     11  C   UNL     1       7.862   7.401  18.307  0.00  0.00    +0.000 A 
ATOM     12  C   UNL     1       8.294   6.131  18.674  0.00  0.00    +0.000 A 
ATOM     13  C   UNL     1       7.640   5.000  18.188  0.00  0.00    +0.000 A 
ATOM     14  C   UNL     1       6.528   5.134  17.343  0.00  0.00    +0.000 A 
ATOM     15  C   UNL     1       5.818   3.921  16.814  0.00  0.00    +0.000 C 
ENDROOT
BRANCH   1  17
ATOM     16  C   UNL     1       0.418   3.072  20.167  0.00  0.00    +0.000 C 
ATOM     17  O   UNL     1       0.636   2.663  18.817  0.00  0.00    +0.000 OA
ENDBRANCH   1  17
BRANCH   7  18
ATOM     18  C   UNL     1       3.420   7.017  18.371  0.00  0.00    +0.000 C 
BRANCH  18  19
ATOM     19  C   UNL     1       2.439   8.187  18.230  0.00  0.00    +0.000 C 
BRANCH  19  20
ATOM     20  N   UNL     1       1.696   8.480  19.441  0.00  0.00    +0.000 N 
ATOM     21  C   UNL     1       0.791   9.529  19.458  0.00  0.00    +0.000 C 
ATOM     22  C   UNL     1      -0.013   9.649  20.725  0.00  0.00    +0.000 C 
ATOM     23  O   UNL     1       0.635  10.311  18.530  0.00  0.00    +0.000 OA
ATOM     24  H   UNL     1       1.618   7.760  20.147  0.00  0.00    +0.000 HD
ENDBRANCH  19  20
ENDBRANCH  18  19
ENDBRANCH   7  18
TORSDOF 4
ENDMDL
MODEL 6
REMARK VINA RESULT:      -7.4      2.433      5.521
REMARK  Name = 
REMARK  6 active torsions:
REMARK  status: ('A' for Active; 'I' for Inactive)
REMARK    1  A    between atoms: C_1  and  O_2
REMARK    2  A    between atoms: O_2  and  C_3
REMARK    3  A    between atoms: C_9  and  C_10
REMARK    4  A    between atoms: C_10  and  C_11
REMARK    5  A    between atoms: C_11  and  N_12
REMARK    6  A    between atoms: C_13  and  C_14
REMARK                            x       y       z     vdW  Elec       q    Type
REMARK                         _______ _______ _______ _____ _____    ______ ____
ROOT
ATOM      1  C   UNL     1       2.253   6.878  19.729  0.00  0.00    +0.000 A 
ATOM      2  C   UNL     1       2.287   7.874  18.765  0.00  0.00    +0.000 A 
ATOM      3  C   UNL     1       3.300   7.872  17.812  0.00  0.00    +0.000 A 
ATOM      4  C   UNL     1       4.282   6.857  17.769  0.00  0.00    +0.000 A 
ATOM      5  C   UNL     1       4.252   5.825  18.738  0.00  0.00    +0.000 A 
ATOM      6  C   UNL     1       3.252   5.897  19.741  0.00  0.00    +0.000 A 
ATOM      7  C   UNL     1       5.182   4.593  18.774  0.00  0.00    +0.000 C 
ATOM      8  C   UNL     1       6.504   4.705  17.965  0.00  0.00    +0.000 C 
ATOM      9  C   UNL     1       6.264   4.696  16.473  0.00  0.00    +0.000 A 
ATOM     10  C   UNL     1       6.561   3.577  15.685  0.00  0.00    +0.000 A 
ATOM     11  C   UNL     1       6.177   3.525  14.345  0.00  0.00    +0.000 A 
ATOM     12  C   UNL     1       5.525   4.612  13.773  0.00  0.00    +0.000 A 
ATOM     13  C   UNL     1       5.259   5.751  14.531  0.00  0.00    +0.000 A 
ATOM     14  C   UNL     1       5.629   5.801  15.884  0.00  0.00    +0.000 A 
ATOM     15  C   UNL     1       5.349   7.025  16.708  0.00  0.00    +0.000 C 
ENDROOT
BRANCH   1  17
ATOM     16  C   UNL     1       0.941   8.045  21.288  0.00  0.00    +0.000 C 
ATOM     17  O   UNL     1       1.299   6.790  20.707  0.00  0.00    +0.000 OA
ENDBRANCH   1  17
BRANCH   7  18
ATOM     18  C   UNL     1       4.377   3.298  18.419  0.00  0.00    +0.000 C 
BRANCH  18  19
ATOM     19  C   UNL     1       4.327   2.279  19.563  0.00  0.00    +0.000 C 
BRANCH  19  20
ATOM     20  N   UNL     1       3.434   2.652  20.645  0.00  0.00    +0.000 N 
ATOM     21  C   UNL     1       2.069   2.458  20.510  0.00  0.00    +0.000 C 
ATOM     22  C   UNL     1       1.263   2.758  21.745  0.00  0.00    +0.000 C 
ATOM     23  O   UNL     1       1.533   2.071  19.480  0.00  0.00    +0.000 OA
ATOM     24  H   UNL     1       3.820   2.766  21.573  0.00  0.00    +0.000 HD
ENDBRANCH  19  20
ENDBRANCH  18  19
ENDBRANCH   7  18
TORSDOF 4
ENDMDL
MODEL 7
REMARK VINA RESULT:      -7.2      2.670      4.186
REMARK  Name = 
REMARK  6 active torsions:
REMARK  status: ('A' for Active; 'I' for Inactive)
REMARK    1  A    between atoms: C_1  and  O_2
REMARK    2  A    between atoms: O_2  and  C_3
REMARK    3  A    between atoms: C_9  and  C_10
REMARK    4  A    between atoms: C_10  and  C_11
REMARK    5  A    between atoms: C_11  and  N_12
REMARK    6  A    between atoms: C_13  and  C_14
REMARK                            x       y       z     vdW  Elec       q    Type
REMARK                         _______ _______ _______ _____ _____    ______ ____
ROOT
ATOM      1  C   UNL     1       5.940   5.121  15.145  0.00  0.00    +0.000 A 
ATOM      2  C   UNL     1       6.029   3.745  15.280  0.00  0.00    +0.000 A 
ATOM      3  C   UNL     1       5.558   3.137  16.439  0.00  0.00    +0.000 A 
ATOM      4  C   UNL     1       4.951   3.880  17.477  0.00  0.00    +0.000 A 
ATOM      5  C   UNL     1       4.840   5.285  17.346  0.00  0.00    +0.000 A 
ATOM      6  C   UNL     1       5.397   5.882  16.187  0.00  0.00    +0.000 A 
ATOM      7  C   UNL     1       4.118   6.228  18.333  0.00  0.00    +0.000 C 
ATOM      8  C   UNL     1       3.876   5.673  19.764  0.00  0.00    +0.000 C 
ATOM      9  C   UNL     1       2.837   4.576  19.784  0.00  0.00    +0.000 A 
ATOM     10  C   UNL     1       1.546   4.793  20.282  0.00  0.00    +0.000 A 
ATOM     11  C   UNL     1       0.553   3.824  20.136  0.00  0.00    +0.000 A 
ATOM     12  C   UNL     1       0.857   2.612  19.524  0.00  0.00    +0.000 A 
ATOM     13  C   UNL     1       2.148   2.364  19.061  0.00  0.00    +0.000 A 
ATOM     14  C   UNL     1       3.145   3.342  19.190  0.00  0.00    +0.000 A 
ATOM     15  C   UNL     1       4.540   3.083  18.696  0.00  0.00    +0.000 C 
ENDROOT
BRANCH   1  17
ATOM     16  C   UNL     1       7.434   5.176  13.333  0.00  0.00    +0.000 C 
ATOM     17  O   UNL     1       6.372   5.813  14.045  0.00  0.00    +0.000 OA
ENDBRANCH   1  17
BRANCH   7  18
ATOM     18  C   UNL     1       2.807   6.789  17.684  0.00  0.00    +0.000 C 
BRANCH  18  19
ATOM     19  C   UNL     1       2.557   8.269  17.996  0.00  0.00    +0.000 C 
BRANCH  19  20
ATOM     20  N   UNL     1       1.739   8.492  19.174  0.00  0.00    +0.000 N 
ATOM     21  C   UNL     1       0.970   9.639  19.272  0.00  0.00    +0.000 C 
ATOM     22  C   UNL     1       0.066   9.693  20.474  0.00  0.00    +0.000 C 
ATOM     23  O   UNL     1       1.002  10.554  18.459  0.00  0.00    +0.000 OA
ATOM     24  H   UNL     1       1.507   7.699  19.757  0.00  0.00    +0.000 HD
ENDBRANCH  19  20
ENDBRANCH  18  19
ENDBRANCH   7  18
TORSDOF 4
ENDMDL
MODEL 8
REMARK VINA RESULT:      -7.2      2.722      5.809
REMARK  Name = 
REMARK  6 active torsions:
REMARK  status: ('A' for Active; 'I' for Inactive)
REMARK    1  A    between atoms: C_1  and  O_2
REMARK    2  A    between atoms: O_2  and  C_3
REMARK    3  A    between atoms: C_9  and  C_10
REMARK    4  A    between atoms: C_10  and  C_11
REMARK    5  A    between atoms: C_11  and  N_12
REMARK    6  A    between atoms: C_13  and  C_14
REMARK                            x       y       z     vdW  Elec       q    Type
REMARK                         _______ _______ _______ _____ _____    ______ ____
ROOT
ATOM      1  C   UNL     1       1.869   3.082  18.251  0.00  0.00    +0.000 A 
ATOM      2  C   UNL     1       2.886   2.142  18.304  0.00  0.00    +0.000 A 
ATOM      3  C   UNL     1       4.158   2.482  17.856  0.00  0.00    +0.000 A 
ATOM      4  C   UNL     1       4.461   3.777  17.381  0.00  0.00    +0.000 A 
ATOM      5  C   UNL     1       3.435   4.753  17.335  0.00  0.00    +0.000 A 
ATOM      6  C   UNL     1       2.133   4.353  17.728  0.00  0.00    +0.000 A 
ATOM      7  C   UNL     1       3.617   6.235  16.943  0.00  0.00    +0.000 C 
ATOM      8  C   UNL     1       4.899   6.581  16.136  0.00  0.00    +0.000 C 
ATOM      9  C   UNL     1       6.151   6.471  16.975  0.00  0.00    +0.000 A 
ATOM     10  C   UNL     1       6.836   7.606  17.429  0.00  0.00    +0.000 A 
ATOM     11  C   UNL     1       7.885   7.488  18.341  0.00  0.00    +0.000 A 
ATOM     12  C   UNL     1       8.283   6.228  18.775  0.00  0.00    +0.000 A 
ATOM     13  C   UNL     1       7.640   5.086  18.300  0.00  0.00    +0.000 A 
ATOM     14  C   UNL     1       6.572   5.201  17.397  0.00  0.00    +0.000 A 
ATOM     15  C   UNL     1       5.875   3.976  16.878  0.00  0.00    +0.000 C 
ENDROOT
BRANCH   1  17
ATOM     16  C   UNL     1       0.309   3.302  19.993  0.00  0.00    +0.000 C 
ATOM     17  O   UNL     1       0.586   2.847  18.668  0.00  0.00    +0.000 OA
ENDBRANCH   1  17
BRANCH   7  18
ATOM     18  C   UNL     1       3.441   7.152  18.200  0.00  0.00    +0.000 C 
BRANCH  18  19
ATOM     19  C   UNL     1       2.040   7.765  18.316  0.00  0.00    +0.000 C 
BRANCH  19  20
ATOM     20  N   UNL     1       1.845   8.565  19.511  0.00  0.00    +0.000 N 
ATOM     21  C   UNL     1       1.509   7.949  20.705  0.00  0.00    +0.000 C 
ATOM     22  C   UNL     1       1.466   8.866  21.898  0.00  0.00    +0.000 C 
ATOM     23  O   UNL     1       1.263   6.755  20.812  0.00  0.00    +0.000 OA
ATOM     24  H   UNL     1       2.236   9.497  19.537  0.00  0.00    +0.000 HD
ENDBRANCH  19  20
ENDBRANCH  18  19
ENDBRANCH   7  18
TORSDOF 4
ENDMDL
MODEL 9
REMARK VINA RESULT:      -7.1      2.096      3.289
REMARK  Name = 
REMARK  6 active torsions:
REMARK  status: ('A' for Active; 'I' for Inactive)
REMARK    1  A    between atoms: C_1  and  O_2
REMARK    2  A    between atoms: O_2  and  C_3
REMARK    3  A    between atoms: C_9  and  C_10
REMARK    4  A    between atoms: C_10  and  C_11
REMARK    5  A    between atoms: C_11  and  N_12
REMARK    6  A    between atoms: C_13  and  C_14
REMARK                            x       y       z     vdW  Elec       q    Type
REMARK                         _______ _______ _______ _____ _____    ______ ____
ROOT
ATOM      1  C   UNL     1       7.066   4.894  14.714  0.00  0.00    +0.000 A 
ATOM      2  C   UNL     1       5.857   4.737  14.055  0.00  0.00    +0.000 A 
ATOM      3  C   UNL     1       4.734   4.333  14.769  0.00  0.00    +0.000 A 
ATOM      4  C   UNL     1       4.777   4.113  16.164  0.00  0.00    +0.000 A 
ATOM      5  C   UNL     1       6.002   4.283  16.853  0.00  0.00    +0.000 A 
ATOM      6  C   UNL     1       7.144   4.623  16.084  0.00  0.00    +0.000 A 
ATOM      7  C   UNL     1       6.199   4.184  18.381  0.00  0.00    +0.000 C 
ATOM      8  C   UNL     1       5.094   3.429  19.170  0.00  0.00    +0.000 C 
ATOM      9  C   UNL     1       3.794   4.199  19.214  0.00  0.00    +0.000 A 
ATOM     10  C   UNL     1       3.362   4.849  20.378  0.00  0.00    +0.000 A 
ATOM     11  C   UNL     1       2.252   5.693  20.352  0.00  0.00    +0.000 A 
ATOM     12  C   UNL     1       1.542   5.863  19.169  0.00  0.00    +0.000 A 
ATOM     13  C   UNL     1       1.934   5.190  18.012  0.00  0.00    +0.000 A 
ATOM     14  C   UNL     1       3.059   4.353  18.028  0.00  0.00    +0.000 A 
ATOM     15  C   UNL     1       3.487   3.623  16.788  0.00  0.00    +0.000 C 
ENDROOT
BRANCH   1  17
ATOM     16  C   UNL     1       8.123   5.427  12.684  0.00  0.00    +0.000 C 
ATOM     17  O   UNL     1       8.227   5.289  14.102  0.00  0.00    +0.000 OA
ENDBRANCH   1  17
BRANCH   7  18
ATOM     18  C   UNL     1       6.494   5.600  18.981  0.00  0.00    +0.000 C 
BRANCH  18  19
ATOM     19  C   UNL     1       7.991   5.915  19.091  0.00  0.00    +0.000 C 
BRANCH  19  20
ATOM     20  N   UNL     1       8.294   7.334  19.095  0.00  0.00    +0.000 N 
ATOM     21  C   UNL     1       8.110   8.081  17.943  0.00  0.00    +0.000 C 
ATOM     22  C   UNL     1       8.330   9.561  18.108  0.00  0.00    +0.000 C 
ATOM     23  O   UNL     1       7.791   7.603  16.863  0.00  0.00    +0.000 OA
ATOM     24  H   UNL     1       8.348   7.815  19.983  0.00  0.00    +0.000 HD
ENDBRANCH  19  20
ENDBRANCH  18  19
ENDBRANCH   7  18
TORSDOF 4
ENDMDL
