MODEL 1
REMARK VINA RESULT:      -8.8      0.000      0.000
REMARK  Name = 
REMARK  11 active torsions:
REMARK  status: ('A' for Active; 'I' for Inactive)
REMARK    1  A    between atoms: C_1  and  C_2
REMARK    2  A    between atoms: C_2  and  O_3
REMARK    3  A    between atoms: O_3  and  C_4
REMARK    4  A    between atoms: C_4  and  O_5
REMARK    5  A    between atoms: C_7  and  C_8
REMARK    6  A    between atoms: C_15  and  C_16
REMARK    7  A    between atoms: C_19  and  O_20
REMARK    8  A    between atoms: O_20  and  C_21
REMARK    9  A    between atoms: C_22  and  O_23
REMARK   10  A    between atoms: O_23  and  C_24
REMARK   11  A    between atoms: C_27  and  C_28
REMARK                            x       y       z     vdW  Elec       q    Type
REMARK                         _______ _______ _______ _____ _____    ______ ____
ROOT
ATOM      1  C   UNL     1       2.541   3.242  18.015  0.00  0.00    +0.000 C 
ATOM      2  C   UNL     1       2.298   4.353  18.744  0.00  0.00    +0.000 C 
ATOM      3  C   UNL     1       1.823   4.377  20.177  0.00  0.00    +0.000 C 
ATOM      4  C   UNL     1       1.551   3.124  20.993  0.00  0.00    +0.000 C 
ATOM      5  N   UNL     1       1.543   5.460  20.839  0.00  0.00    +0.000 NA
ATOM      6  C   UNL     1       1.605   6.686  20.243  0.00  0.00    +0.000 C 
ATOM      7  C   UNL     1       2.056   6.871  18.994  0.00  0.00    +0.000 C 
ATOM      8  C   UNL     1       2.008   8.229  18.382  0.00  0.00    +0.000 C 
ATOM      9  O   UNL     1       2.449   8.426  17.251  0.00  0.00    +0.000 OA
ATOM     10  C   UNL     1       1.299   9.330  19.126  0.00  0.00    +0.000 C 
ATOM     11  C   UNL     1       1.482   9.198  20.635  0.00  0.00    +0.000 C 
ATOM     12  C   UNL     1       1.112   7.798  21.132  0.00  0.00    +0.000 C 
ATOM     13  C   UNL     1       2.589   5.738  18.157  0.00  0.00    +0.000 C 
ENDROOT
BRANCH  13  14
ATOM     14  C   UNL     1       4.101   5.912  17.931  0.00  0.00    +0.000 A 
ATOM     15  C   UNL     1       4.580   6.318  16.675  0.00  0.00    +0.000 A 
ATOM     16  C   UNL     1       5.950   6.457  16.447  0.00  0.00    +0.000 A 
ATOM     17  C   UNL     1       6.856   6.202  17.475  0.00  0.00    +0.000 A 
ATOM     18  C   UNL     1       6.391   5.809  18.727  0.00  0.00    +0.000 A 
ATOM     19 CL   UNL     1       7.509   5.505  20.000  0.00  0.00    +0.000 Cl
ATOM     20  C   UNL     1       5.024   5.660  18.961  0.00  0.00    +0.000 A 
ENDBRANCH  13  14
BRANCH  11  21
ATOM     21  C   UNL     1       0.687  10.274  21.356  0.00  0.00    +0.000 A 
ATOM     22  C   UNL     1      -0.148   9.957  22.432  0.00  0.00    +0.000 A 
ATOM     23  C   UNL     1      -0.903  10.949  23.049  0.00  0.00    +0.000 A 
ATOM     24  C   UNL     1      -0.860  12.277  22.604  0.00  0.00    +0.000 A 
ATOM     25  C   UNL     1      -0.023  12.616  21.525  0.00  0.00    +0.000 A 
ATOM     26  C   UNL     1       0.750  11.607  20.922  0.00  0.00    +0.000 A 
BRANCH  24  27
ATOM     27  O   UNL     1      -1.691  13.082  23.340  0.00  0.00    +0.000 OA
ATOM     28  C   UNL     1      -3.083  12.817  23.330  0.00  0.00    +0.000 C 
ENDBRANCH  24  27
BRANCH  25  29
ATOM     29  O   UNL     1      -0.006  13.916  21.096  0.00  0.00    +0.000 OA
ATOM     30  C   UNL     1      -0.771  14.259  19.948  0.00  0.00    +0.000 C 
ENDBRANCH  25  29
ENDBRANCH  11  21
BRANCH   1  31
ATOM     31  O   UNL     1       2.910   3.366  16.693  0.00  0.00    +0.000 OA
ATOM     32  H   UNL     1       3.879   3.428  16.697  0.00  0.00    +0.000 HD
ENDBRANCH   1  31
BRANCH   1  33
ATOM     33  O   UNL     1       2.590   1.998  18.578  0.00  0.00    +0.000 OA
BRANCH  33  35
ATOM     34  C   UNL     1       4.618   1.843  19.772  0.00  0.00    +0.000 C 
ATOM     35  C   UNL     1       3.849   1.333  18.565  0.00  0.00    +0.000 C 
ENDBRANCH  33  35
ENDBRANCH   1  33
TORSDOF 7
ENDMDL
MODEL 2
REMARK VINA RESULT:      -8.4      0.987      1.279
REMARK  Name = 
REMARK  11 active torsions:
REMARK  status: ('A' for Active; 'I' for Inactive)
REMARK    1  A    between atoms: C_1  and  C_2
REMARK    2  A    between atoms: C_2  and  O_3
REMARK    3  A    between atoms: O_3  and  C_4
REMARK    4  A    between atoms: C_4  and  O_5
REMARK    5  A    between atoms: C_7  and  C_8
REMARK    6  A    between atoms: C_15  and  C_16
REMARK    7  A    between atoms: C_19  and  O_20
REMARK    8  A    between atoms: O_20  and  C_21
REMARK    9  A    between atoms: C_22  and  O_23
REMARK   10  A    between atoms: O_23  and  C_24
REMARK   11  A    between atoms: C_27  and  C_28
REMARK                            x       y       z     vdW  Elec       q    Type
REMARK                         _______ _______ _______ _____ _____    ______ ____
ROOT
ATOM      1  C   UNL     1       2.538   2.942  18.039  0.00  0.00    +0.000 C 
ATOM      2  C   UNL     1       2.286   4.045  18.778  0.00  0.00    +0.000 C 
ATOM      3  C   UNL     1       1.682   4.056  20.161  0.00  0.00    +0.000 C 
ATOM      4  C   UNL     1       1.272   2.799  20.909  0.00  0.00    +0.000 C 
ATOM      5  N   UNL     1       1.398   5.135  20.828  0.00  0.00    +0.000 NA
ATOM      6  C   UNL     1       1.579   6.371  20.279  0.00  0.00    +0.000 C 
ATOM      7  C   UNL     1       2.152   6.565  19.083  0.00  0.00    +0.000 C 
ATOM      8  C   UNL     1       2.231   7.939  18.512  0.00  0.00    +0.000 C 
ATOM      9  O   UNL     1       2.784   8.142  17.432  0.00  0.00    +0.000 OA
ATOM     10  C   UNL     1       1.514   9.057  19.222  0.00  0.00    +0.000 C 
ATOM     11  C   UNL     1       1.549   8.876  20.736  0.00  0.00    +0.000 C 
ATOM     12  C   UNL     1       1.063   7.485  21.153  0.00  0.00    +0.000 C 
ATOM     13  C   UNL     1       2.701   5.427  18.263  0.00  0.00    +0.000 C 
ENDROOT
BRANCH  13  14
ATOM     14  C   UNL     1       4.235   5.525  18.181  0.00  0.00    +0.000 A 
ATOM     15  C   UNL     1       5.002   5.520  19.358  0.00  0.00    +0.000 A 
ATOM     16  C   UNL     1       6.392   5.632  19.301  0.00  0.00    +0.000 A 
ATOM     17  C   UNL     1       7.031   5.739  18.067  0.00  0.00    +0.000 A 
ATOM     18  C   UNL     1       6.281   5.734  16.894  0.00  0.00    +0.000 A 
ATOM     19 CL   UNL     1       7.072   5.855  15.371  0.00  0.00    +0.000 Cl
ATOM     20  C   UNL     1       4.892   5.631  16.943  0.00  0.00    +0.000 A 
ENDBRANCH  13  14
BRANCH  11  21
ATOM     21  C   UNL     1       0.747   9.974  21.415  0.00  0.00    +0.000 A 
ATOM     22  C   UNL     1      -0.085   9.694  22.504  0.00  0.00    +0.000 A 
ATOM     23  C   UNL     1      -0.847  10.704  23.082  0.00  0.00    +0.000 A 
ATOM     24  C   UNL     1      -0.813  12.014  22.584  0.00  0.00    +0.000 A 
ATOM     25  C   UNL     1       0.021  12.315  21.492  0.00  0.00    +0.000 A 
ATOM     26  C   UNL     1       0.800  11.289  20.929  0.00  0.00    +0.000 A 
BRANCH  24  27
ATOM     27  O   UNL     1      -1.649  12.841  23.289  0.00  0.00    +0.000 OA
ATOM     28  C   UNL     1      -3.014  12.484  23.417  0.00  0.00    +0.000 C 
ENDBRANCH  24  27
BRANCH  25  29
ATOM     29  O   UNL     1       0.029  13.598  21.012  0.00  0.00    +0.000 OA
ATOM     30  C   UNL     1       0.971  14.515  21.550  0.00  0.00    +0.000 C 
ENDBRANCH  25  29
ENDBRANCH  11  21
BRANCH   1  31
ATOM     31  O   UNL     1       3.034   3.080  16.761  0.00  0.00    +0.000 OA
ATOM     32  H   UNL     1       2.266   3.290  16.204  0.00  0.00    +0.000 HD
ENDBRANCH   1  31
BRANCH   1  33
ATOM     33  O   UNL     1       2.471   1.683  18.565  0.00  0.00    +0.000 OA
BRANCH  33  35
ATOM     34  C   UNL     1       4.514   1.758  19.740  0.00  0.00    +0.000 C 
ATOM     35  C   UNL     1       3.700   0.981  18.719  0.00  0.00    +0.000 C 
ENDBRANCH  33  35
ENDBRANCH   1  33
TORSDOF 7
ENDMDL
MODEL 3
REMARK VINA RESULT:      -8.4      2.625      4.319
REMARK  Name = 
REMARK  11 active torsions:
REMARK  status: ('A' for Active; 'I' for Inactive)
REMARK    1  A    between atoms: C_1  and  C_2
REMARK    2  A    between atoms: C_2  and  O_3
REMARK    3  A    between atoms: O_3  and  C_4
REMARK    4  A    between atoms: C_4  and  O_5
REMARK    5  A    between atoms: C_7  and  C_8
REMARK    6  A    between atoms: C_15  and  C_16
REMARK    7  A    between atoms: C_19  and  O_20
REMARK    8  A    between atoms: O_20  and  C_21
REMARK    9  A    between atoms: C_22  and  O_23
REMARK   10  A    between atoms: O_23  and  C_24
REMARK   11  A    between atoms: C_27  and  C_28
REMARK                            x       y       z     vdW  Elec       q    Type
REMARK                         _______ _______ _______ _____ _____    ______ ____
ROOT
ATOM      1  C   UNL     1       5.359   4.825  18.342  0.00  0.00    +0.000 C 
ATOM      2  C   UNL     1       4.455   5.826  18.261  0.00  0.00    +0.000 C 
ATOM      3  C   UNL     1       4.297   6.775  17.098  0.00  0.00    +0.000 C 
ATOM      4  C   UNL     1       5.159   6.723  15.848  0.00  0.00    +0.000 C 
ATOM      5  N   UNL     1       3.456   7.765  17.069  0.00  0.00    +0.000 NA
ATOM      6  C   UNL     1       2.673   8.057  18.148  0.00  0.00    +0.000 C 
ATOM      7  C   UNL     1       2.633   7.296  19.251  0.00  0.00    +0.000 C 
ATOM      8  C   UNL     1       1.821   7.731  20.423  0.00  0.00    +0.000 C 
ATOM      9  O   UNL     1       1.745   7.030  21.431  0.00  0.00    +0.000 OA
ATOM     10  C   UNL     1       1.195   9.100  20.398  0.00  0.00    +0.000 C 
ATOM     11  C   UNL     1       0.744   9.487  18.993  0.00  0.00    +0.000 C 
ATOM     12  C   UNL     1       1.868   9.318  17.968  0.00  0.00    +0.000 C 
ATOM     13  C   UNL     1       3.414   6.014  19.370  0.00  0.00    +0.000 C 
ENDROOT
BRANCH  13  14
ATOM     14  C   UNL     1       2.456   4.811  19.410  0.00  0.00    +0.000 A 
ATOM     15  C   UNL     1       1.774   4.419  18.246  0.00  0.00    +0.000 A 
ATOM     16  C   UNL     1       0.884   3.344  18.271  0.00  0.00    +0.000 A 
ATOM     17  C   UNL     1       0.672   2.644  19.458  0.00  0.00    +0.000 A 
ATOM     18  C   UNL     1       1.351   3.019  20.615  0.00  0.00    +0.000 A 
ATOM     19 CL   UNL     1       1.098   2.146  22.076  0.00  0.00    +0.000 Cl
ATOM     20  C   UNL     1       2.236   4.095  20.599  0.00  0.00    +0.000 A 
ENDBRANCH  13  14
BRANCH  11  21
ATOM     21  C   UNL     1       0.195  10.904  18.990  0.00  0.00    +0.000 A 
ATOM     22  C   UNL     1       1.018  11.998  18.706  0.00  0.00    +0.000 A 
ATOM     23  C   UNL     1       0.507  13.291  18.753  0.00  0.00    +0.000 A 
ATOM     24  C   UNL     1      -0.830  13.531  19.098  0.00  0.00    +0.000 A 
ATOM     25  C   UNL     1      -1.674  12.443  19.384  0.00  0.00    +0.000 A 
ATOM     26  C   UNL     1      -1.150  11.140  19.313  0.00  0.00    +0.000 A 
BRANCH  24  27
ATOM     27  O   UNL     1      -1.116  14.872  19.100  0.00  0.00    +0.000 OA
ATOM     28  C   UNL     1      -0.053  15.797  18.951  0.00  0.00    +0.000 C 
ENDBRANCH  24  27
BRANCH  25  29
ATOM     29  O   UNL     1      -2.974  12.700  19.733  0.00  0.00    +0.000 OA
ATOM     30  C   UNL     1      -3.275  12.914  21.105  0.00  0.00    +0.000 C 
ENDBRANCH  25  29
ENDBRANCH  11  21
BRANCH   1  31
ATOM     31  O   UNL     1       5.436   4.072  19.493  0.00  0.00    +0.000 OA
ATOM     32  H   UNL     1       5.557   3.154  19.198  0.00  0.00    +0.000 HD
ENDBRANCH   1  31
BRANCH   1  33
ATOM     33  O   UNL     1       6.099   4.424  17.266  0.00  0.00    +0.000 OA
BRANCH  33  35
ATOM     34  C   UNL     1       7.798   5.784  18.174  0.00  0.00    +0.000 C 
ATOM     35  C   UNL     1       7.515   4.517  17.384  0.00  0.00    +0.000 C 
ENDBRANCH  33  35
ENDBRANCH   1  33
TORSDOF 7
ENDMDL
MODEL 4
REMARK VINA RESULT:      -8.2      0.675      1.531
REMARK  Name = 
REMARK  11 active torsions:
REMARK  status: ('A' for Active; 'I' for Inactive)
REMARK    1  A    between atoms: C_1  and  C_2
REMARK    2  A    between atoms: C_2  and  O_3
REMARK    3  A    between atoms: O_3  and  C_4
REMARK    4  A    between atoms: C_4  and  O_5
REMARK    5  A    between atoms: C_7  and  C_8
REMARK    6  A    between atoms: C_15  and  C_16
REMARK    7  A    between atoms: C_19  and  O_20
REMARK    8  A    between atoms: O_20  and  C_21
REMARK    9  A    between atoms: C_22  and  O_23
REMARK   10  A    between atoms: O_23  and  C_24
REMARK   11  A    between atoms: C_27  and  C_28
REMARK                            x       y       z     vdW  Elec       q    Type
REMARK                         _______ _______ _______ _____ _____    ______ ____
ROOT
ATOM      1  C   UNL     1       2.513   3.315  18.151  0.00  0.00    +0.000 C 
ATOM      2  C   UNL     1       2.307   4.489  18.786  0.00  0.00    +0.000 C 
ATOM      3  C   UNL     1       1.836   4.646  20.211  0.00  0.00    +0.000 C 
ATOM      4  C   UNL     1       1.526   3.474  21.128  0.00  0.00    +0.000 C 
ATOM      5  N   UNL     1       1.590   5.788  20.781  0.00  0.00    +0.000 NA
ATOM      6  C   UNL     1       1.691   6.958  20.086  0.00  0.00    +0.000 C 
ATOM      7  C   UNL     1       2.145   7.025  18.827  0.00  0.00    +0.000 C 
ATOM      8  C   UNL     1       2.138   8.329  18.104  0.00  0.00    +0.000 C 
ATOM      9  O   UNL     1       2.583   8.418  16.961  0.00  0.00    +0.000 OA
ATOM     10  C   UNL     1       1.466   9.510  18.754  0.00  0.00    +0.000 C 
ATOM     11  C   UNL     1       1.647   9.498  20.269  0.00  0.00    +0.000 C 
ATOM     12  C   UNL     1       1.234   8.156  20.879  0.00  0.00    +0.000 C 
ATOM     13  C   UNL     1       2.641   5.811  18.087  0.00  0.00    +0.000 C 
ENDROOT
BRANCH  13  14
ATOM     14  C   UNL     1       4.157   5.918  17.848  0.00  0.00    +0.000 A 
ATOM     15  C   UNL     1       4.646   6.209  16.564  0.00  0.00    +0.000 A 
ATOM     16  C   UNL     1       6.019   6.286  16.326  0.00  0.00    +0.000 A 
ATOM     17  C   UNL     1       6.918   6.083  17.372  0.00  0.00    +0.000 A 
ATOM     18  C   UNL     1       6.443   5.804  18.651  0.00  0.00    +0.000 A 
ATOM     19 CL   UNL     1       7.554   5.565  19.943  0.00  0.00    +0.000 Cl
ATOM     20  C   UNL     1       5.074   5.718  18.894  0.00  0.00    +0.000 A 
ENDBRANCH  13  14
BRANCH  11  21
ATOM     21  C   UNL     1       0.887  10.654  20.898  0.00  0.00    +0.000 A 
ATOM     22  C   UNL     1       1.196  11.980  20.581  0.00  0.00    +0.000 A 
ATOM     23  C   UNL     1       0.519  13.025  21.202  0.00  0.00    +0.000 A 
ATOM     24  C   UNL     1      -0.469  12.779  22.165  0.00  0.00    +0.000 A 
ATOM     25  C   UNL     1      -0.796  11.451  22.494  0.00  0.00    +0.000 A 
ATOM     26  C   UNL     1      -0.119  10.404  21.844  0.00  0.00    +0.000 A 
BRANCH  24  27
ATOM     27  O   UNL     1      -0.991  13.946  22.658  0.00  0.00    +0.000 OA
ATOM     28  C   UNL     1      -0.775  15.149  21.941  0.00  0.00    +0.000 C 
ENDBRANCH  24  27
BRANCH  25  29
ATOM     29  O   UNL     1      -1.755  11.233  23.447  0.00  0.00    +0.000 OA
ATOM     30  C   UNL     1      -2.942  12.012  23.402  0.00  0.00    +0.000 C 
ENDBRANCH  25  29
ENDBRANCH  11  21
BRANCH   1  31
ATOM     31  O   UNL     1       2.884   3.317  16.823  0.00  0.00    +0.000 OA
ATOM     32  H   UNL     1       2.887   2.384  16.552  0.00  0.00    +0.000 HD
ENDBRANCH   1  31
BRANCH   1  33
ATOM     33  O   UNL     1       2.525   2.120  18.815  0.00  0.00    +0.000 OA
BRANCH  33  35
ATOM     34  C   UNL     1       4.580   1.966  19.962  0.00  0.00    +0.000 C 
ATOM     35  C   UNL     1       3.752   1.397  18.822  0.00  0.00    +0.000 C 
ENDBRANCH  33  35
ENDBRANCH   1  33
TORSDOF 7
ENDMDL
MODEL 5
REMARK VINA RESULT:      -8.1      2.699      4.208
REMARK  Name = 
REMARK  11 active torsions:
REMARK  status: ('A' for Active; 'I' for Inactive)
REMARK    1  A    between atoms: C_1  and  C_2
REMARK    2  A    between atoms: C_2  and  O_3
REMARK    3  A    between atoms: O_3  and  C_4
REMARK    4  A    between atoms: C_4  and  O_5
REMARK    5  A    between atoms: C_7  and  C_8
REMARK    6  A    between atoms: C_15  and  C_16
REMARK    7  A    between atoms: C_19  and  O_20
REMARK    8  A    between atoms: O_20  and  C_21
REMARK    9  A    between atoms: C_22  and  O_23
REMARK   10  A    between atoms: O_23  and  C_24
REMARK   11  A    between atoms: C_27  and  C_28
REMARK                            x       y       z     vdW  Elec       q    Type
REMARK                         _______ _______ _______ _____ _____    ______ ____
ROOT
ATOM      1  C   UNL     1       5.361   5.017  18.149  0.00  0.00    +0.000 C 
ATOM      2  C   UNL     1       4.429   5.994  18.127  0.00  0.00    +0.000 C 
ATOM      3  C   UNL     1       4.207   6.971  16.999  0.00  0.00    +0.000 C 
ATOM      4  C   UNL     1       5.027   6.978  15.719  0.00  0.00    +0.000 C 
ATOM      5  N   UNL     1       3.340   7.939  17.027  0.00  0.00    +0.000 NA
ATOM      6  C   UNL     1       2.587   8.179  18.139  0.00  0.00    +0.000 C 
ATOM      7  C   UNL     1       2.605   7.386  19.220  0.00  0.00    +0.000 C 
ATOM      8  C   UNL     1       1.822   7.766  20.431  0.00  0.00    +0.000 C 
ATOM      9  O   UNL     1       1.798   7.035  21.420  0.00  0.00    +0.000 OA
ATOM     10  C   UNL     1       1.160   9.118  20.467  0.00  0.00    +0.000 C 
ATOM     11  C   UNL     1       0.651   9.532  19.090  0.00  0.00    +0.000 C 
ATOM     12  C   UNL     1       1.744   9.423  18.023  0.00  0.00    +0.000 C 
ATOM     13  C   UNL     1       3.422   6.123  19.276  0.00  0.00    +0.000 C 
ENDROOT
BRANCH  13  14
ATOM     14  C   UNL     1       2.498   4.894  19.312  0.00  0.00    +0.000 A 
ATOM     15  C   UNL     1       1.841   4.475  18.143  0.00  0.00    +0.000 A 
ATOM     16  C   UNL     1       0.980   3.377  18.165  0.00  0.00    +0.000 A 
ATOM     17  C   UNL     1       0.775   2.678  19.354  0.00  0.00    +0.000 A 
ATOM     18  C   UNL     1       1.428   3.079  20.516  0.00  0.00    +0.000 A 
ATOM     19 CL   UNL     1       1.182   2.209  21.980  0.00  0.00    +0.000 Cl
ATOM     20  C   UNL     1       2.283   4.180  20.504  0.00  0.00    +0.000 A 
ENDBRANCH  13  14
BRANCH  11  21
ATOM     21  C   UNL     1       0.066  10.934  19.147  0.00  0.00    +0.000 A 
ATOM     22  C   UNL     1       0.879  12.063  19.007  0.00  0.00    +0.000 A 
ATOM     23  C   UNL     1       0.330  13.338  19.108  0.00  0.00    +0.000 A 
ATOM     24  C   UNL     1      -1.035  13.522  19.365  0.00  0.00    +0.000 A 
ATOM     25  C   UNL     1      -1.869  12.398  19.504  0.00  0.00    +0.000 A 
ATOM     26  C   UNL     1      -1.306  11.115  19.381  0.00  0.00    +0.000 A 
BRANCH  24  27
ATOM     27  O   UNL     1      -1.356  14.853  19.441  0.00  0.00    +0.000 OA
ATOM     28  C   UNL     1      -1.288  15.501  20.699  0.00  0.00    +0.000 C 
ENDBRANCH  24  27
BRANCH  25  29
ATOM     29  O   UNL     1      -3.197  12.600  19.769  0.00  0.00    +0.000 OA
ATOM     30  C   UNL     1      -4.156  11.997  18.912  0.00  0.00    +0.000 C 
ENDBRANCH  25  29
ENDBRANCH  11  21
BRANCH   1  31
ATOM     31  O   UNL     1       5.497   4.233  19.274  0.00  0.00    +0.000 OA
ATOM     32  H   UNL     1       4.974   4.674  19.964  0.00  0.00    +0.000 HD
ENDBRANCH   1  31
BRANCH   1  33
ATOM     33  O   UNL     1       6.074   4.666  17.037  0.00  0.00    +0.000 OA
BRANCH  33  35
ATOM     34  C   UNL     1       6.157   3.787  14.850  0.00  0.00    +0.000 C 
ATOM     35  C   UNL     1       5.537   3.624  16.228  0.00  0.00    +0.000 C 
ENDBRANCH  33  35
ENDBRANCH   1  33
TORSDOF 7
ENDMDL
MODEL 6
REMARK VINA RESULT:      -7.9      1.121      1.954
REMARK  Name = 
REMARK  11 active torsions:
REMARK  status: ('A' for Active; 'I' for Inactive)
REMARK    1  A    between atoms: C_1  and  C_2
REMARK    2  A    between atoms: C_2  and  O_3
REMARK    3  A    between atoms: O_3  and  C_4
REMARK    4  A    between atoms: C_4  and  O_5
REMARK    5  A    between atoms: C_7  and  C_8
REMARK    6  A    between atoms: C_15  and  C_16
REMARK    7  A    between atoms: C_19  and  O_20
REMARK    8  A    between atoms: O_20  and  C_21
REMARK    9  A    between atoms: C_22  and  O_23
REMARK   10  A    between atoms: O_23  and  C_24
REMARK   11  A    between atoms: C_27  and  C_28
REMARK                            x       y       z     vdW  Elec       q    Type
REMARK                         _______ _______ _______ _____ _____    ______ ____
ROOT
ATOM      1  C   UNL     1       2.512   2.999  18.245  0.00  0.00    +0.000 C 
ATOM      2  C   UNL     1       2.311   4.189  18.851  0.00  0.00    +0.000 C 
ATOM      3  C   UNL     1       1.774   4.383  20.249  0.00  0.00    +0.000 C 
ATOM      4  C   UNL     1       1.383   3.237  21.166  0.00  0.00    +0.000 C 
ATOM      5  N   UNL     1       1.537   5.542  20.789  0.00  0.00    +0.000 NA
ATOM      6  C   UNL     1       1.709   6.697  20.083  0.00  0.00    +0.000 C 
ATOM      7  C   UNL     1       2.227   6.730  18.847  0.00  0.00    +0.000 C 
ATOM      8  C   UNL     1       2.298   8.021  18.106  0.00  0.00    +0.000 C 
ATOM      9  O   UNL     1       2.802   8.078  16.986  0.00  0.00    +0.000 OA
ATOM     10  C   UNL     1       1.631   9.232  18.704  0.00  0.00    +0.000 C 
ATOM     11  C   UNL     1       1.735   9.239  20.226  0.00  0.00    +0.000 C 
ATOM     12  C   UNL     1       1.250   7.920  20.834  0.00  0.00    +0.000 C 
ATOM     13  C   UNL     1       2.721   5.489  18.151  0.00  0.00    +0.000 C 
ENDROOT
BRANCH  13  14
ATOM     14  C   UNL     1       4.250   5.545  17.988  0.00  0.00    +0.000 A 
ATOM     15  C   UNL     1       5.072   5.674  19.120  0.00  0.00    +0.000 A 
ATOM     16  C   UNL     1       6.459   5.750  18.986  0.00  0.00    +0.000 A 
ATOM     17  C   UNL     1       7.041   5.689  17.721  0.00  0.00    +0.000 A 
ATOM     18  C   UNL     1       6.235   5.552  16.593  0.00  0.00    +0.000 A 
ATOM     19 CL   UNL     1       6.955   5.465  15.033  0.00  0.00    +0.000 Cl
ATOM     20  C   UNL     1       4.849   5.482  16.717  0.00  0.00    +0.000 A 
ENDBRANCH  13  14
BRANCH  11  21
ATOM     21  C   UNL     1       0.982  10.427  20.799  0.00  0.00    +0.000 A 
ATOM     22  C   UNL     1       1.265  11.732  20.383  0.00  0.00    +0.000 A 
ATOM     23  C   UNL     1       0.596  12.810  20.953  0.00  0.00    +0.000 A 
ATOM     24  C   UNL     1      -0.360  12.621  21.961  0.00  0.00    +0.000 A 
ATOM     25  C   UNL     1      -0.661  11.316  22.389  0.00  0.00    +0.000 A 
ATOM     26  C   UNL     1       0.009  10.233  21.791  0.00  0.00    +0.000 A 
BRANCH  24  27
ATOM     27  O   UNL     1      -0.880  13.814  22.390  0.00  0.00    +0.000 OA
ATOM     28  C   UNL     1      -0.710  14.965  21.581  0.00  0.00    +0.000 C 
ENDBRANCH  24  27
BRANCH  25  29
ATOM     29  O   UNL     1      -1.587  11.153  23.385  0.00  0.00    +0.000 OA
ATOM     30  C   UNL     1      -2.783  11.919  23.326  0.00  0.00    +0.000 C 
ENDBRANCH  25  29
ENDBRANCH  11  21
BRANCH   1  31
ATOM     31  O   UNL     1       2.949   2.968  16.938  0.00  0.00    +0.000 OA
ATOM     32  H   UNL     1       2.828   3.871  16.601  0.00  0.00    +0.000 HD
ENDBRANCH   1  31
BRANCH   1  33
ATOM     33  O   UNL     1       2.453   1.816  18.926  0.00  0.00    +0.000 OA
BRANCH  33  35
ATOM     34  C   UNL     1       4.587   1.851  19.928  0.00  0.00    +0.000 C 
ATOM     35  C   UNL     1       3.659   1.063  19.020  0.00  0.00    +0.000 C 
ENDBRANCH  33  35
ENDBRANCH   1  33
TORSDOF 7
ENDMDL
MODEL 7
REMARK VINA RESULT:      -7.9      2.770      4.207
REMARK  Name = 
REMARK  11 active torsions:
REMARK  status: ('A' for Active; 'I' for Inactive)
REMARK    1  A    between atoms: C_1  and  C_2
REMARK    2  A    between atoms: C_2  and  O_3
REMARK    3  A    between atoms: O_3  and  C_4
REMARK    4  A    between atoms: C_4  and  O_5
REMARK    5  A    between atoms: C_7  and  C_8
REMARK    6  A    between atoms: C_15  and  C_16
REMARK    7  A    between atoms: C_19  and  O_20
REMARK    8  A    between atoms: O_20  and  C_21
REMARK    9  A    between atoms: C_22  and  O_23
REMARK   10  A    between atoms: O_23  and  C_24
REMARK   11  A    between atoms: C_27  and  C_28
REMARK                            x       y       z     vdW  Elec       q    Type
REMARK                         _______ _______ _______ _____ _____    ______ ____
ROOT
ATOM      1  C   UNL     1       5.320   4.806  18.249  0.00  0.00    +0.000 C 
ATOM      2  C   UNL     1       4.434   5.825  18.206  0.00  0.00    +0.000 C 
ATOM      3  C   UNL     1       4.273   6.800  17.065  0.00  0.00    +0.000 C 
ATOM      4  C   UNL     1       5.108   6.755  15.797  0.00  0.00    +0.000 C 
ATOM      5  N   UNL     1       3.451   7.807  17.072  0.00  0.00    +0.000 NA
ATOM      6  C   UNL     1       2.695   8.092  18.172  0.00  0.00    +0.000 C 
ATOM      7  C   UNL     1       2.663   7.311  19.261  0.00  0.00    +0.000 C 
ATOM      8  C   UNL     1       1.884   7.739  20.457  0.00  0.00    +0.000 C 
ATOM      9  O   UNL     1       1.813   7.020  21.453  0.00  0.00    +0.000 OA
ATOM     10  C   UNL     1       1.285   9.121  20.471  0.00  0.00    +0.000 C 
ATOM     11  C   UNL     1       0.813   9.544  19.084  0.00  0.00    +0.000 C 
ATOM     12  C   UNL     1       1.913   9.373  18.033  0.00  0.00    +0.000 C 
ATOM     13  C   UNL     1       3.420   6.012  19.339  0.00  0.00    +0.000 C 
ENDROOT
BRANCH  13  14
ATOM     14  C   UNL     1       2.439   4.828  19.376  0.00  0.00    +0.000 A 
ATOM     15  C   UNL     1       1.739   4.461  18.214  0.00  0.00    +0.000 A 
ATOM     16  C   UNL     1       0.827   3.404  18.237  0.00  0.00    +0.000 A 
ATOM     17  C   UNL     1       0.614   2.695  19.418  0.00  0.00    +0.000 A 
ATOM     18  C   UNL     1       1.311   3.044  20.572  0.00  0.00    +0.000 A 
ATOM     19 CL   UNL     1       1.055   2.160  22.027  0.00  0.00    +0.000 Cl
ATOM     20  C   UNL     1       2.217   4.103  20.560  0.00  0.00    +0.000 A 
ENDBRANCH  13  14
BRANCH  11  21
ATOM     21  C   UNL     1       0.292  10.971  19.119  0.00  0.00    +0.000 A 
ATOM     22  C   UNL     1      -1.077  11.240  19.203  0.00  0.00    +0.000 A 
ATOM     23  C   UNL     1      -1.536  12.553  19.187  0.00  0.00    +0.000 A 
ATOM     24  C   UNL     1      -0.648  13.631  19.072  0.00  0.00    +0.000 A 
ATOM     25  C   UNL     1       0.734  13.381  18.990  0.00  0.00    +0.000 A 
ATOM     26  C   UNL     1       1.186  12.049  19.027  0.00  0.00    +0.000 A 
BRANCH  24  27
ATOM     27  O   UNL     1      -1.312  14.830  19.059  0.00  0.00    +0.000 OA
ATOM     28  C   UNL     1      -1.355  15.600  20.248  0.00  0.00    +0.000 C 
ENDBRANCH  24  27
BRANCH  25  29
ATOM     29  O   UNL     1       1.583  14.447  18.864  0.00  0.00    +0.000 OA
ATOM     30  C   UNL     1       2.791  14.266  18.137  0.00  0.00    +0.000 C 
ENDBRANCH  25  29
ENDBRANCH  11  21
BRANCH   1  31
ATOM     31  O   UNL     1       5.405   4.028  19.384  0.00  0.00    +0.000 OA
ATOM     32  H   UNL     1       5.006   3.175  19.147  0.00  0.00    +0.000 HD
ENDBRANCH   1  31
BRANCH   1  33
ATOM     33  O   UNL     1       6.030   4.410  17.151  0.00  0.00    +0.000 OA
BRANCH  33  35
ATOM     34  C   UNL     1       7.770   5.708  18.073  0.00  0.00    +0.000 C 
ATOM     35  C   UNL     1       7.450   4.478  17.241  0.00  0.00    +0.000 C 
ENDBRANCH  33  35
ENDBRANCH   1  33
TORSDOF 7
ENDMDL
MODEL 8
REMARK VINA RESULT:      -7.7      4.081      9.606
REMARK  Name = 
REMARK  11 active torsions:
REMARK  status: ('A' for Active; 'I' for Inactive)
REMARK    1  A    between atoms: C_1  and  C_2
REMARK    2  A    between atoms: C_2  and  O_3
REMARK    3  A    between atoms: O_3  and  C_4
REMARK    4  A    between atoms: C_4  and  O_5
REMARK    5  A    between atoms: C_7  and  C_8
REMARK    6  A    between atoms: C_15  and  C_16
REMARK    7  A    between atoms: C_19  and  O_20
REMARK    8  A    between atoms: O_20  and  C_21
REMARK    9  A    between atoms: C_22  and  O_23
REMARK   10  A    between atoms: O_23  and  C_24
REMARK   11  A    between atoms: C_27  and  C_28
REMARK                            x       y       z     vdW  Elec       q    Type
REMARK                         _______ _______ _______ _____ _____    ______ ____
ROOT
ATOM      1  C   UNL     1      -4.201  12.126  18.400  0.00  0.00    +0.000 C 
ATOM      2  C   UNL     1      -3.042  11.451  18.237  0.00  0.00    +0.000 C 
ATOM      3  C   UNL     1      -2.627  10.709  16.990  0.00  0.00    +0.000 C 
ATOM      4  C   UNL     1      -3.483  10.626  15.737  0.00  0.00    +0.000 C 
ATOM      5  N   UNL     1      -1.531  10.020  16.877  0.00  0.00    +0.000 NA
ATOM      6  C   UNL     1      -0.682   9.869  17.935  0.00  0.00    +0.000 C 
ATOM      7  C   UNL     1      -0.854  10.496  19.107  0.00  0.00    +0.000 C 
ATOM      8  C   UNL     1       0.066  10.208  20.244  0.00  0.00    +0.000 C 
ATOM      9  O   UNL     1      -0.054  10.798  21.317  0.00  0.00    +0.000 OA
ATOM     10  C   UNL     1       1.069   9.094  20.096  0.00  0.00    +0.000 C 
ATOM     11  C   UNL     1       1.595   8.998  18.667  0.00  0.00    +0.000 C 
ATOM     12  C   UNL     1       0.457   8.926  17.646  0.00  0.00    +0.000 C 
ATOM     13  C   UNL     1      -1.978  11.471  19.338  0.00  0.00    +0.000 C 
ENDROOT
BRANCH  13  14
ATOM     14  C   UNL     1      -1.418  12.894  19.511  0.00  0.00    +0.000 A 
ATOM     15  C   UNL     1      -0.592  13.447  18.518  0.00  0.00    +0.000 A 
ATOM     16  C   UNL     1      -0.057  14.727  18.671  0.00  0.00    +0.000 A 
ATOM     17  C   UNL     1      -0.350  15.472  19.812  0.00  0.00    +0.000 A 
ATOM     18  C   UNL     1      -1.176  14.937  20.797  0.00  0.00    +0.000 A 
ATOM     19 CL   UNL     1      -1.546  15.862  22.200  0.00  0.00    +0.000 Cl
ATOM     20  C   UNL     1      -1.708  13.656  20.656  0.00  0.00    +0.000 A 
ENDBRANCH  13  14
BRANCH  11  21
ATOM     21  C   UNL     1       2.539   7.814  18.534  0.00  0.00    +0.000 A 
ATOM     22  C   UNL     1       3.472   7.745  17.495  0.00  0.00    +0.000 A 
ATOM     23  C   UNL     1       4.295   6.631  17.364  0.00  0.00    +0.000 A 
ATOM     24  C   UNL     1       4.202   5.552  18.253  0.00  0.00    +0.000 A 
ATOM     25  C   UNL     1       3.272   5.604  19.307  0.00  0.00    +0.000 A 
ATOM     26  C   UNL     1       2.459   6.744  19.439  0.00  0.00    +0.000 A 
BRANCH  24  27
ATOM     27  O   UNL     1       5.090   4.558  17.931  0.00  0.00    +0.000 OA
ATOM     28  C   UNL     1       5.233   4.184  16.572  0.00  0.00    +0.000 C 
ENDBRANCH  24  27
BRANCH  25  29
ATOM     29  O   UNL     1       3.187   4.533  20.155  0.00  0.00    +0.000 OA
ATOM     30  C   UNL     1       2.160   4.528  21.137  0.00  0.00    +0.000 C 
ENDBRANCH  25  29
ENDBRANCH  11  21
BRANCH   1  31
ATOM     31  O   UNL     1      -4.482  12.707  19.618  0.00  0.00    +0.000 OA
ATOM     32  H   UNL     1      -3.692  12.564  20.165  0.00  0.00    +0.000 HD
ENDBRANCH   1  31
BRANCH   1  33
ATOM     33  O   UNL     1      -5.042  12.394  17.357  0.00  0.00    +0.000 OA
BRANCH  33  35
ATOM     34  C   UNL     1      -7.123  13.441  16.992  0.00  0.00    +0.000 C 
ATOM     35  C   UNL     1      -6.436  12.225  17.591  0.00  0.00    +0.000 C 
ENDBRANCH  33  35
ENDBRANCH   1  33
TORSDOF 7
ENDMDL
MODEL 9
REMARK VINA RESULT:      -7.6      4.077      9.538
REMARK  Name = 
REMARK  11 active torsions:
REMARK  status: ('A' for Active; 'I' for Inactive)
REMARK    1  A    between atoms: C_1  and  C_2
REMARK    2  A    between atoms: C_2  and  O_3
REMARK    3  A    between atoms: O_3  and  C_4
REMARK    4  A    between atoms: C_4  and  O_5
REMARK    5  A    between atoms: C_7  and  C_8
REMARK    6  A    between atoms: C_15  and  C_16
REMARK    7  A    between atoms: C_19  and  O_20
REMARK    8  A    between atoms: O_20  and  C_21
REMARK    9  A    between atoms: C_22  and  O_23
REMARK   10  A    between atoms: O_23  and  C_24
REMARK   11  A    between atoms: C_27  and  C_28
REMARK                            x       y       z     vdW  Elec       q    Type
REMARK                         _______ _______ _______ _____ _____    ______ ____
ROOT
ATOM      1  C   UNL     1      -4.180  12.101  18.456  0.00  0.00    +0.000 C 
ATOM      2  C   UNL     1      -3.028  11.417  18.283  0.00  0.00    +0.000 C 
ATOM      3  C   UNL     1      -2.644  10.642  17.046  0.00  0.00    +0.000 C 
ATOM      4  C   UNL     1      -3.528  10.531  15.815  0.00  0.00    +0.000 C 
ATOM      5  N   UNL     1      -1.553   9.945  16.927  0.00  0.00    +0.000 NA
ATOM      6  C   UNL     1      -0.681   9.818  17.969  0.00  0.00    +0.000 C 
ATOM      7  C   UNL     1      -0.824  10.474  19.128  0.00  0.00    +0.000 C 
ATOM      8  C   UNL     1       0.120  10.211  20.251  0.00  0.00    +0.000 C 
ATOM      9  O   UNL     1       0.026  10.829  21.311  0.00  0.00    +0.000 OA
ATOM     10  C   UNL     1       1.115   9.090  20.108  0.00  0.00    +0.000 C 
ATOM     11  C   UNL     1       1.609   8.955  18.671  0.00  0.00    +0.000 C 
ATOM     12  C   UNL     1       0.448   8.862  17.678  0.00  0.00    +0.000 C 
ATOM     13  C   UNL     1      -1.939  11.460  19.360  0.00  0.00    +0.000 C 
ENDROOT
BRANCH  13  14
ATOM     14  C   UNL     1      -1.370  12.884  19.483  0.00  0.00    +0.000 A 
ATOM     15  C   UNL     1      -0.582  13.417  18.449  0.00  0.00    +0.000 A 
ATOM     16  C   UNL     1      -0.039  14.698  18.556  0.00  0.00    +0.000 A 
ATOM     17  C   UNL     1      -0.285  15.465  19.694  0.00  0.00    +0.000 A 
ATOM     18  C   UNL     1      -1.073  14.950  20.720  0.00  0.00    +0.000 A 
ATOM     19 CL   UNL     1      -1.386  15.903  22.119  0.00  0.00    +0.000 Cl
ATOM     20  C   UNL     1      -1.613  13.669  20.624  0.00  0.00    +0.000 A 
ENDBRANCH  13  14
BRANCH  11  21
ATOM     21  C   UNL     1       2.545   7.764  18.547  0.00  0.00    +0.000 A 
ATOM     22  C   UNL     1       2.453   6.678  19.424  0.00  0.00    +0.000 A 
ATOM     23  C   UNL     1       3.349   5.618  19.322  0.00  0.00    +0.000 A 
ATOM     24  C   UNL     1       4.367   5.618  18.359  0.00  0.00    +0.000 A 
ATOM     25  C   UNL     1       4.473   6.700  17.467  0.00  0.00    +0.000 A 
ATOM     26  C   UNL     1       3.549   7.756  17.567  0.00  0.00    +0.000 A 
BRANCH  24  27
ATOM     27  O   UNL     1       5.142   4.491  18.448  0.00  0.00    +0.000 OA
ATOM     28  C   UNL     1       4.723   3.438  19.299  0.00  0.00    +0.000 C 
ENDBRANCH  24  27
BRANCH  25  29
ATOM     29  O   UNL     1       5.483   6.687  16.543  0.00  0.00    +0.000 OA
ATOM     30  C   UNL     1       5.352   5.839  15.411  0.00  0.00    +0.000 C 
ENDBRANCH  25  29
ENDBRANCH  11  21
BRANCH   1  31
ATOM     31  O   UNL     1      -4.431  12.714  19.665  0.00  0.00    +0.000 OA
ATOM     32  H   UNL     1      -4.002  13.584  19.611  0.00  0.00    +0.000 HD
ENDBRANCH   1  31
BRANCH   1  33
ATOM     33  O   UNL     1      -5.043  12.347  17.425  0.00  0.00    +0.000 OA
BRANCH  33  35
ATOM     34  C   UNL     1      -7.169  13.305  17.077  0.00  0.00    +0.000 C 
ATOM     35  C   UNL     1      -6.427  12.121  17.674  0.00  0.00    +0.000 C 
ENDBRANCH  33  35
ENDBRANCH   1  33
TORSDOF 7
ENDMDL
