MODEL 1
REMARK VINA RESULT:      -8.1      0.000      0.000
REMARK  Name = 
REMARK  10 active torsions:
REMARK  status: ('A' for Active; 'I' for Inactive)
REMARK    1  A    between atoms: C_1  and  C_2
REMARK    2  A    between atoms: C_2  and  O_3
REMARK    3  A    between atoms: O_3  and  C_4
REMARK    4  A    between atoms: C_4  and  C_6
REMARK    5  A    between atoms: C_15  and  O_16
REMARK    6  A    between atoms: O_16  and  C_17
REMARK    7  A    between atoms: C_19  and  O_20
REMARK    8  A    between atoms: O_20  and  C_21
REMARK    9  A    between atoms: C_23  and  O_24
REMARK   10  A    between atoms: O_24  and  C_25
REMARK                            x       y       z     vdW  Elec       q    Type
REMARK                         _______ _______ _______ _____ _____    ______ ____
ROOT
ATOM      1  C   UNL     1       6.954   5.045  16.578  0.00  0.00    +0.000 A 
ATOM      2  N   UNL     1       7.621   5.284  15.408  0.00  0.00    +0.000 NA
ATOM      3  C   UNL     1       7.094   4.780  14.285  0.00  0.00    +0.000 A 
ATOM      4  C   UNL     1       7.729   5.007  13.072  0.00  0.00    +0.000 A 
ATOM      5  C   UNL     1       7.228   4.470  11.887  0.00  0.00    +0.000 A 
ATOM      6  C   UNL     1       6.071   3.701  11.917  0.00  0.00    +0.000 A 
ATOM      7  C   UNL     1       5.415   3.488  13.130  0.00  0.00    +0.000 A 
ATOM      8  C   UNL     1       5.905   4.017  14.314  0.00  0.00    +0.000 A 
ATOM      9  N   UNL     1       5.241   3.799  15.462  0.00  0.00    +0.000 NA
ATOM     10  C   UNL     1       5.753   4.346  16.599  0.00  0.00    +0.000 A 
ENDROOT
BRANCH   1  11
ATOM     11  C   UNL     1       7.564   5.622  17.810  0.00  0.00    +0.000 C 
ATOM     12  O   UNL     1       7.530   5.130  18.925  0.00  0.00    +0.000 OA
BRANCH  11  13
ATOM     13  O   UNL     1       8.110   6.831  17.497  0.00  0.00    +0.000 OA
BRANCH  13  15
ATOM     14  C   UNL     1       8.149   9.177  17.948  0.00  0.00    +0.000 C 
ATOM     15  C   UNL     1       7.267   7.977  17.652  0.00  0.00    +0.000 C 
ENDBRANCH  13  15
ENDBRANCH  11  13
ENDBRANCH   1  11
BRANCH  10  16
ATOM     16  O   UNL     1       5.057   4.165  17.782  0.00  0.00    +0.000 OA
BRANCH  16  17
ATOM     17  C   UNL     1       4.135   5.119  18.158  0.00  0.00    +0.000 A 
ATOM     18  C   UNL     1       3.418   4.864  19.331  0.00  0.00    +0.000 A 
ATOM     19  C   UNL     1       2.479   5.788  19.799  0.00  0.00    +0.000 A 
ATOM     20  C   UNL     1       2.307   6.997  19.124  0.00  0.00    +0.000 A 
ATOM     21  C   UNL     1       3.037   7.272  17.961  0.00  0.00    +0.000 A 
ATOM     22  C   UNL     1       3.954   6.335  17.484  0.00  0.00    +0.000 A 
BRANCH  19  23
ATOM     23  O   UNL     1       1.815   5.428  20.941  0.00  0.00    +0.000 OA
ATOM     24  C   UNL     1       2.011   4.081  21.364  0.00  0.00    +0.000 C 
ENDBRANCH  19  23
BRANCH  21  25
ATOM     25  O   UNL     1       2.770   8.492  17.399  0.00  0.00    +0.000 OA
ATOM     26  C   UNL     1       1.666   9.217  17.927  0.00  0.00    +0.000 C 
ENDBRANCH  21  25
ENDBRANCH  16  17
ENDBRANCH  10  16
TORSDOF 7
ENDMDL
MODEL 2
REMARK VINA RESULT:      -7.8      1.017      1.114
REMARK  Name = 
REMARK  10 active torsions:
REMARK  status: ('A' for Active; 'I' for Inactive)
REMARK    1  A    between atoms: C_1  and  C_2
REMARK    2  A    between atoms: C_2  and  O_3
REMARK    3  A    between atoms: O_3  and  C_4
REMARK    4  A    between atoms: C_4  and  C_6
REMARK    5  A    between atoms: C_15  and  O_16
REMARK    6  A    between atoms: O_16  and  C_17
REMARK    7  A    between atoms: C_19  and  O_20
REMARK    8  A    between atoms: O_20  and  C_21
REMARK    9  A    between atoms: C_23  and  O_24
REMARK   10  A    between atoms: O_24  and  C_25
REMARK                            x       y       z     vdW  Elec       q    Type
REMARK                         _______ _______ _______ _____ _____    ______ ____
ROOT
ATOM      1  C   UNL     1       7.047   5.140  16.962  0.00  0.00    +0.000 A 
ATOM      2  N   UNL     1       7.587   5.525  15.765  0.00  0.00    +0.000 NA
ATOM      3  C   UNL     1       7.112   4.938  14.659  0.00  0.00    +0.000 A 
ATOM      4  C   UNL     1       7.620   5.306  13.421  0.00  0.00    +0.000 A 
ATOM      5  C   UNL     1       7.174   4.694  12.250  0.00  0.00    +0.000 A 
ATOM      6  C   UNL     1       6.199   3.705  12.321  0.00  0.00    +0.000 A 
ATOM      7  C   UNL     1       5.668   3.348  13.560  0.00  0.00    +0.000 A 
ATOM      8  C   UNL     1       6.104   3.950  14.730  0.00  0.00    +0.000 A 
ATOM      9  N   UNL     1       5.562   3.587  15.905  0.00  0.00    +0.000 NA
ATOM     10  C   UNL     1       6.015   4.212  17.027  0.00  0.00    +0.000 A 
ENDROOT
BRANCH   1  11
ATOM     11  C   UNL     1       7.595   5.813  18.174  0.00  0.00    +0.000 C 
ATOM     12  O   UNL     1       8.130   5.260  19.120  0.00  0.00    +0.000 OA
BRANCH  11  13
ATOM     13  O   UNL     1       7.334   7.147  18.083  0.00  0.00    +0.000 OA
BRANCH  13  15
ATOM     14  C   UNL     1       8.160   9.372  17.800  0.00  0.00    +0.000 C 
ATOM     15  C   UNL     1       8.380   8.036  18.489  0.00  0.00    +0.000 C 
ENDBRANCH  13  15
ENDBRANCH  11  13
ENDBRANCH   1  11
BRANCH  10  16
ATOM     16  O   UNL     1       5.435   3.877  18.239  0.00  0.00    +0.000 OA
BRANCH  16  17
ATOM     17  C   UNL     1       4.213   4.430  18.561  0.00  0.00    +0.000 A 
ATOM     18  C   UNL     1       3.257   3.560  19.095  0.00  0.00    +0.000 A 
ATOM     19  C   UNL     1       1.999   4.039  19.471  0.00  0.00    +0.000 A 
ATOM     20  C   UNL     1       1.723   5.403  19.368  0.00  0.00    +0.000 A 
ATOM     21  C   UNL     1       2.680   6.286  18.856  0.00  0.00    +0.000 A 
ATOM     22  C   UNL     1       3.926   5.798  18.459  0.00  0.00    +0.000 A 
BRANCH  19  23
ATOM     23  O   UNL     1       1.131   3.098  19.958  0.00  0.00    +0.000 OA
ATOM     24  C   UNL     1       1.328   2.730  21.320  0.00  0.00    +0.000 C 
ENDBRANCH  19  23
BRANCH  21  25
ATOM     25  O   UNL     1       2.279   7.595  18.810  0.00  0.00    +0.000 OA
ATOM     26  C   UNL     1       2.719   8.362  17.696  0.00  0.00    +0.000 C 
ENDBRANCH  21  25
ENDBRANCH  16  17
ENDBRANCH  10  16
TORSDOF 7
ENDMDL
MODEL 3
REMARK VINA RESULT:      -7.8      2.298      6.882
REMARK  Name = 
REMARK  10 active torsions:
REMARK  status: ('A' for Active; 'I' for Inactive)
REMARK    1  A    between atoms: C_1  and  C_2
REMARK    2  A    between atoms: C_2  and  O_3
REMARK    3  A    between atoms: O_3  and  C_4
REMARK    4  A    between atoms: C_4  and  C_6
REMARK    5  A    between atoms: C_15  and  O_16
REMARK    6  A    between atoms: O_16  and  C_17
REMARK    7  A    between atoms: C_19  and  O_20
REMARK    8  A    between atoms: O_20  and  C_21
REMARK    9  A    between atoms: C_23  and  O_24
REMARK   10  A    between atoms: O_24  and  C_25
REMARK                            x       y       z     vdW  Elec       q    Type
REMARK                         _______ _______ _______ _____ _____    ______ ____
ROOT
ATOM      1  C   UNL     1       2.593   5.178  19.577  0.00  0.00    +0.000 A 
ATOM      2  N   UNL     1       2.041   6.176  20.333  0.00  0.00    +0.000 NA
ATOM      3  C   UNL     1       1.875   7.370  19.749  0.00  0.00    +0.000 A 
ATOM      4  C   UNL     1       1.307   8.409  20.472  0.00  0.00    +0.000 A 
ATOM      5  C   UNL     1       1.149   9.675  19.909  0.00  0.00    +0.000 A 
ATOM      6  C   UNL     1       1.560   9.900  18.600  0.00  0.00    +0.000 A 
ATOM      7  C   UNL     1       2.110   8.853  17.860  0.00  0.00    +0.000 A 
ATOM      8  C   UNL     1       2.272   7.591  18.411  0.00  0.00    +0.000 A 
ATOM      9  N   UNL     1       2.797   6.604  17.664  0.00  0.00    +0.000 NA
ATOM     10  C   UNL     1       2.928   5.379  18.244  0.00  0.00    +0.000 A 
ENDROOT
BRANCH   1  11
ATOM     11  C   UNL     1       2.761   3.860  20.254  0.00  0.00    +0.000 C 
ATOM     12  O   UNL     1       3.809   3.250  20.384  0.00  0.00    +0.000 OA
BRANCH  11  13
ATOM     13  O   UNL     1       1.534   3.415  20.645  0.00  0.00    +0.000 OA
BRANCH  13  15
ATOM     14  C   UNL     1       1.317   1.923  18.791  0.00  0.00    +0.000 C 
ATOM     15  C   UNL     1       0.637   3.009  19.607  0.00  0.00    +0.000 C 
ENDBRANCH  13  15
ENDBRANCH  11  13
ENDBRANCH   1  11
BRANCH  10  16
ATOM     16  O   UNL     1       3.428   4.343  17.473  0.00  0.00    +0.000 OA
BRANCH  16  17
ATOM     17  C   UNL     1       4.709   4.452  16.972  0.00  0.00    +0.000 A 
ATOM     18  C   UNL     1       5.739   4.549  17.913  0.00  0.00    +0.000 A 
ATOM     19  C   UNL     1       7.070   4.641  17.495  0.00  0.00    +0.000 A 
ATOM     20  C   UNL     1       7.370   4.570  16.134  0.00  0.00    +0.000 A 
ATOM     21  C   UNL     1       6.349   4.449  15.185  0.00  0.00    +0.000 A 
ATOM     22  C   UNL     1       5.020   4.384  15.607  0.00  0.00    +0.000 A 
BRANCH  19  23
ATOM     23  O   UNL     1       7.996   4.759  18.497  0.00  0.00    +0.000 OA
ATOM     24  C   UNL     1       7.726   5.769  19.464  0.00  0.00    +0.000 C 
ENDBRANCH  19  23
BRANCH  21  25
ATOM     25  O   UNL     1       6.782   4.391  13.887  0.00  0.00    +0.000 OA
ATOM     26  C   UNL     1       6.033   3.574  12.996  0.00  0.00    +0.000 C 
ENDBRANCH  21  25
ENDBRANCH  16  17
ENDBRANCH  10  16
TORSDOF 7
ENDMDL
MODEL 4
REMARK VINA RESULT:      -7.7      1.412      2.458
REMARK  Name = 
REMARK  10 active torsions:
REMARK  status: ('A' for Active; 'I' for Inactive)
REMARK    1  A    between atoms: C_1  and  C_2
REMARK    2  A    between atoms: C_2  and  O_3
REMARK    3  A    between atoms: O_3  and  C_4
REMARK    4  A    between atoms: C_4  and  C_6
REMARK    5  A    between atoms: C_15  and  O_16
REMARK    6  A    between atoms: O_16  and  C_17
REMARK    7  A    between atoms: C_19  and  O_20
REMARK    8  A    between atoms: O_20  and  C_21
REMARK    9  A    between atoms: C_23  and  O_24
REMARK   10  A    between atoms: O_24  and  C_25
REMARK                            x       y       z     vdW  Elec       q    Type
REMARK                         _______ _______ _______ _____ _____    ______ ____
ROOT
ATOM      1  C   UNL     1       7.164   5.465  16.510  0.00  0.00    +0.000 A 
ATOM      2  N   UNL     1       7.701   5.813  15.301  0.00  0.00    +0.000 NA
ATOM      3  C   UNL     1       7.312   5.108  14.230  0.00  0.00    +0.000 A 
ATOM      4  C   UNL     1       7.820   5.432  12.980  0.00  0.00    +0.000 A 
ATOM      5  C   UNL     1       7.465   4.701  11.847  0.00  0.00    +0.000 A 
ATOM      6  C   UNL     1       6.582   3.634  11.969  0.00  0.00    +0.000 A 
ATOM      7  C   UNL     1       6.050   3.318  13.219  0.00  0.00    +0.000 A 
ATOM      8  C   UNL     1       6.397   4.038  14.352  0.00  0.00    +0.000 A 
ATOM      9  N   UNL     1       5.856   3.711  15.538  0.00  0.00    +0.000 NA
ATOM     10  C   UNL     1       6.219   4.453  16.620  0.00  0.00    +0.000 A 
ENDROOT
BRANCH   1  11
ATOM     11  C   UNL     1       7.614   6.270  17.682  0.00  0.00    +0.000 C 
ATOM     12  O   UNL     1       7.825   5.844  18.805  0.00  0.00    +0.000 OA
BRANCH  11  13
ATOM     13  O   UNL     1       7.683   7.578  17.308  0.00  0.00    +0.000 OA
BRANCH  13  15
ATOM     14  C   UNL     1       8.207   9.882  17.665  0.00  0.00    +0.000 C 
ATOM     15  C   UNL     1       8.353   8.470  18.205  0.00  0.00    +0.000 C 
ENDBRANCH  13  15
ENDBRANCH  11  13
ENDBRANCH   1  11
BRANCH  10  16
ATOM     16  O   UNL     1       5.638   4.153  17.841  0.00  0.00    +0.000 OA
BRANCH  16  17
ATOM     17  C   UNL     1       4.285   4.372  17.999  0.00  0.00    +0.000 A 
ATOM     18  C   UNL     1       3.881   5.704  18.133  0.00  0.00    +0.000 A 
ATOM     19  C   UNL     1       2.528   6.020  18.275  0.00  0.00    +0.000 A 
ATOM     20  C   UNL     1       1.574   5.003  18.220  0.00  0.00    +0.000 A 
ATOM     21  C   UNL     1       1.965   3.669  18.063  0.00  0.00    +0.000 A 
ATOM     22  C   UNL     1       3.320   3.357  17.947  0.00  0.00    +0.000 A 
BRANCH  19  23
ATOM     23  O   UNL     1       2.245   7.352  18.425  0.00  0.00    +0.000 OA
ATOM     24  C   UNL     1       2.063   7.791  19.768  0.00  0.00    +0.000 C 
ENDBRANCH  19  23
BRANCH  21  25
ATOM     25  O   UNL     1       0.929   2.773  18.025  0.00  0.00    +0.000 OA
ATOM     26  C   UNL     1       0.561   2.164  19.257  0.00  0.00    +0.000 C 
ENDBRANCH  21  25
ENDBRANCH  16  17
ENDBRANCH  10  16
TORSDOF 7
ENDMDL
MODEL 5
REMARK VINA RESULT:      -7.6      2.336      7.087
REMARK  Name = 
REMARK  10 active torsions:
REMARK  status: ('A' for Active; 'I' for Inactive)
REMARK    1  A    between atoms: C_1  and  C_2
REMARK    2  A    between atoms: C_2  and  O_3
REMARK    3  A    between atoms: O_3  and  C_4
REMARK    4  A    between atoms: C_4  and  C_6
REMARK    5  A    between atoms: C_15  and  O_16
REMARK    6  A    between atoms: O_16  and  C_17
REMARK    7  A    between atoms: C_19  and  O_20
REMARK    8  A    between atoms: O_20  and  C_21
REMARK    9  A    between atoms: C_23  and  O_24
REMARK   10  A    between atoms: O_24  and  C_25
REMARK                            x       y       z     vdW  Elec       q    Type
REMARK                         _______ _______ _______ _____ _____    ______ ____
ROOT
ATOM      1  C   UNL     1       2.423   5.932  19.638  0.00  0.00    +0.000 A 
ATOM      2  N   UNL     1       1.849   6.924  20.385  0.00  0.00    +0.000 NA
ATOM      3  C   UNL     1       1.659   8.110  19.791  0.00  0.00    +0.000 A 
ATOM      4  C   UNL     1       1.069   9.143  20.506  0.00  0.00    +0.000 A 
ATOM      5  C   UNL     1       0.885  10.401  19.933  0.00  0.00    +0.000 A 
ATOM      6  C   UNL     1       1.293  10.624  18.623  0.00  0.00    +0.000 A 
ATOM      7  C   UNL     1       1.866   9.583  17.892  0.00  0.00    +0.000 A 
ATOM      8  C   UNL     1       2.053   8.329  18.452  0.00  0.00    +0.000 A 
ATOM      9  N   UNL     1       2.599   7.347  17.714  0.00  0.00    +0.000 NA
ATOM     10  C   UNL     1       2.755   6.130  18.303  0.00  0.00    +0.000 A 
ENDROOT
BRANCH   1  11
ATOM     11  C   UNL     1       2.617   4.624  20.325  0.00  0.00    +0.000 C 
ATOM     12  O   UNL     1       3.680   4.046  20.479  0.00  0.00    +0.000 OA
BRANCH  11  13
ATOM     13  O   UNL     1       1.397   4.143  20.693  0.00  0.00    +0.000 OA
BRANCH  13  15
ATOM     14  C   UNL     1       0.811   2.610  18.956  0.00  0.00    +0.000 C 
ATOM     15  C   UNL     1       1.144   2.759  20.431  0.00  0.00    +0.000 C 
ENDBRANCH  13  15
ENDBRANCH  11  13
ENDBRANCH   1  11
BRANCH  10  16
ATOM     16  O   UNL     1       3.278   5.099  17.541  0.00  0.00    +0.000 OA
BRANCH  16  17
ATOM     17  C   UNL     1       4.558   5.228  17.044  0.00  0.00    +0.000 A 
ATOM     18  C   UNL     1       5.452   5.979  17.815  0.00  0.00    +0.000 A 
ATOM     19  C   UNL     1       6.776   6.144  17.400  0.00  0.00    +0.000 A 
ATOM     20  C   UNL     1       7.219   5.501  16.243  0.00  0.00    +0.000 A 
ATOM     21  C   UNL     1       6.339   4.729  15.477  0.00  0.00    +0.000 A 
ATOM     22  C   UNL     1       5.011   4.589  15.883  0.00  0.00    +0.000 A 
BRANCH  19  23
ATOM     23  O   UNL     1       7.558   6.919  18.214  0.00  0.00    +0.000 OA
ATOM     24  C   UNL     1       7.881   8.209  17.705  0.00  0.00    +0.000 C 
ENDBRANCH  19  23
BRANCH  21  25
ATOM     25  O   UNL     1       6.904   4.156  14.368  0.00  0.00    +0.000 OA
ATOM     26  C   UNL     1       6.018   3.760  13.327  0.00  0.00    +0.000 C 
ENDBRANCH  21  25
ENDBRANCH  16  17
ENDBRANCH  10  16
TORSDOF 7
ENDMDL
MODEL 6
REMARK VINA RESULT:      -7.6      2.895      4.930
REMARK  Name = 
REMARK  10 active torsions:
REMARK  status: ('A' for Active; 'I' for Inactive)
REMARK    1  A    between atoms: C_1  and  C_2
REMARK    2  A    between atoms: C_2  and  O_3
REMARK    3  A    between atoms: O_3  and  C_4
REMARK    4  A    between atoms: C_4  and  C_6
REMARK    5  A    between atoms: C_15  and  O_16
REMARK    6  A    between atoms: O_16  and  C_17
REMARK    7  A    between atoms: C_19  and  O_20
REMARK    8  A    between atoms: O_20  and  C_21
REMARK    9  A    between atoms: C_23  and  O_24
REMARK   10  A    between atoms: O_24  and  C_25
REMARK                            x       y       z     vdW  Elec       q    Type
REMARK                         _______ _______ _______ _____ _____    ______ ____
ROOT
ATOM      1  C   UNL     1       4.102   5.899  17.271  0.00  0.00    +0.000 A 
ATOM      2  N   UNL     1       4.124   4.533  17.198  0.00  0.00    +0.000 NA
ATOM      3  C   UNL     1       3.181   3.865  17.875  0.00  0.00    +0.000 A 
ATOM      4  C   UNL     1       3.156   2.479  17.822  0.00  0.00    +0.000 A 
ATOM      5  C   UNL     1       2.210   1.748  18.539  0.00  0.00    +0.000 A 
ATOM      6  C   UNL     1       1.272   2.417  19.317  0.00  0.00    +0.000 A 
ATOM      7  C   UNL     1       1.278   3.811  19.357  0.00  0.00    +0.000 A 
ATOM      8  C   UNL     1       2.214   4.548  18.647  0.00  0.00    +0.000 A 
ATOM      9  N   UNL     1       2.182   5.890  18.702  0.00  0.00    +0.000 NA
ATOM     10  C   UNL     1       3.115   6.571  17.981  0.00  0.00    +0.000 A 
ENDROOT
BRANCH   1  11
ATOM     11  C   UNL     1       5.162   6.613  16.504  0.00  0.00    +0.000 C 
ATOM     12  O   UNL     1       5.178   6.789  15.297  0.00  0.00    +0.000 OA
BRANCH  11  13
ATOM     13  O   UNL     1       6.150   6.978  17.368  0.00  0.00    +0.000 OA
BRANCH  13  15
ATOM     14  C   UNL     1       7.821   6.150  18.862  0.00  0.00    +0.000 C 
ATOM     15  C   UNL     1       7.294   6.122  17.437  0.00  0.00    +0.000 C 
ENDBRANCH  13  15
ENDBRANCH  11  13
ENDBRANCH   1  11
BRANCH  10  16
ATOM     16  O   UNL     1       3.067   7.955  17.995  0.00  0.00    +0.000 OA
BRANCH  16  17
ATOM     17  C   UNL     1       1.992   8.572  18.599  0.00  0.00    +0.000 A 
ATOM     18  C   UNL     1       1.888   8.427  19.986  0.00  0.00    +0.000 A 
ATOM     19  C   UNL     1       0.842   9.037  20.683  0.00  0.00    +0.000 A 
ATOM     20  C   UNL     1      -0.064   9.846  19.996  0.00  0.00    +0.000 A 
ATOM     21  C   UNL     1       0.044  10.017  18.611  0.00  0.00    +0.000 A 
ATOM     22  C   UNL     1       1.076   9.384  17.916  0.00  0.00    +0.000 A 
BRANCH  19  23
ATOM     23  O   UNL     1       0.820   8.809  22.033  0.00  0.00    +0.000 OA
ATOM     24  C   UNL     1      -0.294   9.361  22.729  0.00  0.00    +0.000 C 
ENDBRANCH  19  23
BRANCH  21  25
ATOM     25  O   UNL     1      -0.908  10.835  18.063  0.00  0.00    +0.000 OA
ATOM     26  C   UNL     1      -2.123  10.219  17.650  0.00  0.00    +0.000 C 
ENDBRANCH  21  25
ENDBRANCH  16  17
ENDBRANCH  10  16
TORSDOF 7
ENDMDL
MODEL 7
REMARK VINA RESULT:      -7.5      2.402      7.179
REMARK  Name = 
REMARK  10 active torsions:
REMARK  status: ('A' for Active; 'I' for Inactive)
REMARK    1  A    between atoms: C_1  and  C_2
REMARK    2  A    between atoms: C_2  and  O_3
REMARK    3  A    between atoms: O_3  and  C_4
REMARK    4  A    between atoms: C_4  and  C_6
REMARK    5  A    between atoms: C_15  and  O_16
REMARK    6  A    between atoms: O_16  and  C_17
REMARK    7  A    between atoms: C_19  and  O_20
REMARK    8  A    between atoms: O_20  and  C_21
REMARK    9  A    between atoms: C_23  and  O_24
REMARK   10  A    between atoms: O_24  and  C_25
REMARK                            x       y       z     vdW  Elec       q    Type
REMARK                         _______ _______ _______ _____ _____    ______ ____
ROOT
ATOM      1  C   UNL     1       2.351   6.094  19.735  0.00  0.00    +0.000 A 
ATOM      2  N   UNL     1       1.820   7.050  20.557  0.00  0.00    +0.000 NA
ATOM      3  C   UNL     1       1.563   8.250  20.021  0.00  0.00    +0.000 A 
ATOM      4  C   UNL     1       1.012   9.247  20.814  0.00  0.00    +0.000 A 
ATOM      5  C   UNL     1       0.762  10.519  20.300  0.00  0.00    +0.000 A 
ATOM      6  C   UNL     1       1.062  10.792  18.970  0.00  0.00    +0.000 A 
ATOM      7  C   UNL     1       1.594   9.788  18.162  0.00  0.00    +0.000 A 
ATOM      8  C   UNL     1       1.847   8.520  18.663  0.00  0.00    +0.000 A 
ATOM      9  N   UNL     1       2.351   7.574  17.852  0.00  0.00    +0.000 NA
ATOM     10  C   UNL     1       2.574   6.342  18.385  0.00  0.00    +0.000 A 
ENDROOT
BRANCH   1  11
ATOM     11  C   UNL     1       2.622   4.769  20.360  0.00  0.00    +0.000 C 
ATOM     12  O   UNL     1       3.697   4.194  20.384  0.00  0.00    +0.000 OA
BRANCH  11  13
ATOM     13  O   UNL     1       1.450   4.270  20.842  0.00  0.00    +0.000 OA
BRANCH  13  15
ATOM     14  C   UNL     1       0.809   2.683  19.174  0.00  0.00    +0.000 C 
ATOM     15  C   UNL     1       1.207   2.876  20.627  0.00  0.00    +0.000 C 
ENDBRANCH  13  15
ENDBRANCH  11  13
ENDBRANCH   1  11
BRANCH  10  16
ATOM     16  O   UNL     1       3.054   5.347  17.550  0.00  0.00    +0.000 OA
BRANCH  16  17
ATOM     17  C   UNL     1       4.355   5.433  17.101  0.00  0.00    +0.000 A 
ATOM     18  C   UNL     1       4.753   4.478  16.159  0.00  0.00    +0.000 A 
ATOM     19  C   UNL     1       6.047   4.503  15.633  0.00  0.00    +0.000 A 
ATOM     20  C   UNL     1       6.921   5.526  16.004  0.00  0.00    +0.000 A 
ATOM     21  C   UNL     1       6.526   6.500  16.928  0.00  0.00    +0.000 A 
ATOM     22  C   UNL     1       5.240   6.454  17.470  0.00  0.00    +0.000 A 
BRANCH  19  23
ATOM     23  O   UNL     1       6.340   3.508  14.739  0.00  0.00    +0.000 OA
ATOM     24  C   UNL     1       5.977   3.773  13.387  0.00  0.00    +0.000 C 
ENDBRANCH  19  23
BRANCH  21  25
ATOM     25  O   UNL     1       7.479   7.443  17.203  0.00  0.00    +0.000 OA
ATOM     26  C   UNL     1       8.138   7.343  18.460  0.00  0.00    +0.000 C 
ENDBRANCH  21  25
ENDBRANCH  16  17
ENDBRANCH  10  16
TORSDOF 7
ENDMDL
MODEL 8
REMARK VINA RESULT:      -7.5      2.360      7.138
REMARK  Name = 
REMARK  10 active torsions:
REMARK  status: ('A' for Active; 'I' for Inactive)
REMARK    1  A    between atoms: C_1  and  C_2
REMARK    2  A    between atoms: C_2  and  O_3
REMARK    3  A    between atoms: O_3  and  C_4
REMARK    4  A    between atoms: C_4  and  C_6
REMARK    5  A    between atoms: C_15  and  O_16
REMARK    6  A    between atoms: O_16  and  C_17
REMARK    7  A    between atoms: C_19  and  O_20
REMARK    8  A    between atoms: O_20  and  C_21
REMARK    9  A    between atoms: C_23  and  O_24
REMARK   10  A    between atoms: O_24  and  C_25
REMARK                            x       y       z     vdW  Elec       q    Type
REMARK                         _______ _______ _______ _____ _____    ______ ____
ROOT
ATOM      1  C   UNL     1       2.489   5.273  19.662  0.00  0.00    +0.000 A 
ATOM      2  N   UNL     1       1.920   6.233  20.453  0.00  0.00    +0.000 NA
ATOM      3  C   UNL     1       1.754   7.450  19.919  0.00  0.00    +0.000 A 
ATOM      4  C   UNL     1       1.170   8.454  20.680  0.00  0.00    +0.000 A 
ATOM      5  C   UNL     1       1.010   9.742  20.171  0.00  0.00    +0.000 A 
ATOM      6  C   UNL     1       1.435  10.026  18.878  0.00  0.00    +0.000 A 
ATOM      7  C   UNL     1       2.002   9.016  18.101  0.00  0.00    +0.000 A 
ATOM      8  C   UNL     1       2.166   7.732  18.597  0.00  0.00    +0.000 A 
ATOM      9  N   UNL     1       2.707   6.782  17.816  0.00  0.00    +0.000 NA
ATOM     10  C   UNL     1       2.839   5.534  18.343  0.00  0.00    +0.000 A 
ENDROOT
BRANCH   1  11
ATOM     11  C   UNL     1       2.658   3.928  20.283  0.00  0.00    +0.000 C 
ATOM     12  O   UNL     1       3.709   3.323  20.406  0.00  0.00    +0.000 OA
BRANCH  11  13
ATOM     13  O   UNL     1       1.429   3.454  20.630  0.00  0.00    +0.000 OA
BRANCH  13  15
ATOM     14  C   UNL     1       1.239   1.968  18.768  0.00  0.00    +0.000 C 
ATOM     15  C   UNL     1       0.560   3.073  19.558  0.00  0.00    +0.000 C 
ENDBRANCH  13  15
ENDBRANCH  11  13
ENDBRANCH   1  11
BRANCH  10  16
ATOM     16  O   UNL     1       3.356   4.536  17.534  0.00  0.00    +0.000 OA
BRANCH  16  17
ATOM     17  C   UNL     1       4.702   4.563  17.231  0.00  0.00    +0.000 A 
ATOM     18  C   UNL     1       5.033   4.635  15.874  0.00  0.00    +0.000 A 
ATOM     19  C   UNL     1       6.372   4.690  15.476  0.00  0.00    +0.000 A 
ATOM     20  C   UNL     1       7.376   4.735  16.444  0.00  0.00    +0.000 A 
ATOM     21  C   UNL     1       7.054   4.686  17.806  0.00  0.00    +0.000 A 
ATOM     22  C   UNL     1       5.717   4.606  18.196  0.00  0.00    +0.000 A 
BRANCH  19  23
ATOM     23  O   UNL     1       6.584   4.733  14.124  0.00  0.00    +0.000 OA
ATOM     24  C   UNL     1       5.969   3.689  13.375  0.00  0.00    +0.000 C 
ENDBRANCH  19  23
BRANCH  21  25
ATOM     25  O   UNL     1       8.134   4.738  18.647  0.00  0.00    +0.000 OA
ATOM     26  C   UNL     1       8.057   5.651  19.735  0.00  0.00    +0.000 C 
ENDBRANCH  21  25
ENDBRANCH  16  17
ENDBRANCH  10  16
TORSDOF 7
ENDMDL
MODEL 9
REMARK VINA RESULT:      -7.5      0.809      2.473
REMARK  Name = 
REMARK  10 active torsions:
REMARK  status: ('A' for Active; 'I' for Inactive)
REMARK    1  A    between atoms: C_1  and  C_2
REMARK    2  A    between atoms: C_2  and  O_3
REMARK    3  A    between atoms: O_3  and  C_4
REMARK    4  A    between atoms: C_4  and  C_6
REMARK    5  A    between atoms: C_15  and  O_16
REMARK    6  A    between atoms: O_16  and  C_17
REMARK    7  A    between atoms: C_19  and  O_20
REMARK    8  A    between atoms: O_20  and  C_21
REMARK    9  A    between atoms: C_23  and  O_24
REMARK   10  A    between atoms: O_24  and  C_25
REMARK                            x       y       z     vdW  Elec       q    Type
REMARK                         _______ _______ _______ _____ _____    ______ ____
ROOT
ATOM      1  C   UNL     1       7.026   5.170  16.889  0.00  0.00    +0.000 A 
ATOM      2  N   UNL     1       7.592   5.541  15.700  0.00  0.00    +0.000 NA
ATOM      3  C   UNL     1       7.142   4.941  14.590  0.00  0.00    +0.000 A 
ATOM      4  C   UNL     1       7.678   5.294  13.360  0.00  0.00    +0.000 A 
ATOM      5  C   UNL     1       7.260   4.667  12.187  0.00  0.00    +0.000 A 
ATOM      6  C   UNL     1       6.285   3.678  12.247  0.00  0.00    +0.000 A 
ATOM      7  C   UNL     1       5.726   3.334  13.478  0.00  0.00    +0.000 A 
ATOM      8  C   UNL     1       6.135   3.951  14.651  0.00  0.00    +0.000 A 
ATOM      9  N   UNL     1       5.567   3.602  15.818  0.00  0.00    +0.000 NA
ATOM     10  C   UNL     1       5.994   4.241  16.942  0.00  0.00    +0.000 A 
ENDROOT
BRANCH   1  11
ATOM     11  C   UNL     1       7.544   5.859  18.105  0.00  0.00    +0.000 C 
ATOM     12  O   UNL     1       8.218   5.349  18.984  0.00  0.00    +0.000 OA
BRANCH  11  13
ATOM     13  O   UNL     1       7.081   7.140  18.107  0.00  0.00    +0.000 OA
BRANCH  13  15
ATOM     14  C   UNL     1       8.519   9.006  18.507  0.00  0.00    +0.000 C 
ATOM     15  C   UNL     1       7.890   8.118  17.447  0.00  0.00    +0.000 C 
ENDBRANCH  13  15
ENDBRANCH  11  13
ENDBRANCH   1  11
BRANCH  10  16
ATOM     16  O   UNL     1       5.387   3.920  18.144  0.00  0.00    +0.000 OA
BRANCH  16  17
ATOM     17  C   UNL     1       4.196   4.536  18.468  0.00  0.00    +0.000 A 
ATOM     18  C   UNL     1       3.995   5.817  17.942  0.00  0.00    +0.000 A 
ATOM     19  C   UNL     1       2.807   6.506  18.200  0.00  0.00    +0.000 A 
ATOM     20  C   UNL     1       1.796   5.885  18.934  0.00  0.00    +0.000 A 
ATOM     21  C   UNL     1       1.978   4.595  19.445  0.00  0.00    +0.000 A 
ATOM     22  C   UNL     1       3.176   3.921  19.206  0.00  0.00    +0.000 A 
BRANCH  19  23
ATOM     23  O   UNL     1       2.724   7.762  17.660  0.00  0.00    +0.000 OA
ATOM     24  C   UNL     1       1.918   8.687  18.383  0.00  0.00    +0.000 C 
ENDBRANCH  19  23
BRANCH  21  25
ATOM     25  O   UNL     1       0.908   4.104  20.146  0.00  0.00    +0.000 OA
ATOM     26  C   UNL     1       1.166   3.034  21.046  0.00  0.00    +0.000 C 
ENDBRANCH  21  25
ENDBRANCH  16  17
ENDBRANCH  10  16
TORSDOF 7
ENDMDL
