MODEL 1
REMARK VINA RESULT:      -8.5      0.000      0.000
REMARK  Name = 
REMARK  3 active torsions:
REMARK  status: ('A' for Active; 'I' for Inactive)
REMARK    1  A    between atoms: C_1  and  C_2
REMARK    2  A    between atoms: C_7  and  C_8
REMARK    3  A    between atoms: C_12  and  C_13
REMARK                            x       y       z     vdW  Elec       q    Type
REMARK                         _______ _______ _______ _____ _____    ______ ____
ROOT
ATOM      1  C   UNL     1       4.396   5.888  17.381  0.00  0.00    +0.000 A 
ATOM      2  N   UNL     1       3.833   7.150  17.294  0.00  0.00    +0.000 NA
ATOM      3  C   UNL     1       3.062   7.211  18.344  0.00  0.00    +0.000 A 
ATOM      4  N   UNL     1       2.259   8.193  18.806  0.00  0.00    +0.000 N 
ATOM      5  C   UNL     1       1.533   8.031  19.968  0.00  0.00    +0.000 A 
ATOM      6  C   UNL     1       1.573   6.896  20.690  0.00  0.00    +0.000 A 
ATOM      7  C   UNL     1       2.439   5.773  20.231  0.00  0.00    +0.000 A 
ATOM      8  O   UNL     1       2.547   4.714  20.835  0.00  0.00    +0.000 OA
ATOM      9  N   UNL     1       3.140   6.035  19.051  0.00  0.00    +0.000 N 
ATOM     10  N   UNL     1       3.989   5.175  18.446  0.00  0.00    +0.000 NA
ATOM     11  H   UNL     1       2.182   9.074  18.307  0.00  0.00    +0.000 HD
ENDROOT
BRANCH   5  12
ATOM     12  C   UNL     1       0.740   9.172  20.446  0.00  0.00    +0.000 A 
ATOM     13  C   UNL     1       0.339  10.158  19.527  0.00  0.00    +0.000 A 
ATOM     14  C   UNL     1      -0.408  11.277  19.920  0.00  0.00    +0.000 A 
ATOM     15  C   UNL     1      -0.734  11.355  21.273  0.00  0.00    +0.000 A 
ATOM     16  N   UNL     1      -1.436  12.263  22.017  0.00  0.00    +0.000 N 
ATOM     17  N   UNL     1      -1.490  11.910  23.312  0.00  0.00    +0.000 NA
ATOM     18  N   UNL     1      -0.826  10.768  23.443  0.00  0.00    +0.000 NA
ATOM     19  C   UNL     1      -0.354  10.403  22.209  0.00  0.00    +0.000 A 
ATOM     20  C   UNL     1       0.398   9.290  21.804  0.00  0.00    +0.000 A 
ATOM     21  H   UNL     1      -1.892  13.118  21.724  0.00  0.00    +0.000 HD
ENDBRANCH   5  12
BRANCH   1  28
ATOM     22  C   UNL     1       7.336   6.524  17.442  0.00  0.00    +0.000 C 
ATOM     23  C   UNL     1       6.702   5.670  16.377  0.00  0.00    +0.000 A 
ATOM     24  C   UNL     1       7.522   5.151  15.357  0.00  0.00    +0.000 A 
ATOM     25  C   UNL     1       6.992   4.343  14.350  0.00  0.00    +0.000 A 
ATOM     26  C   UNL     1       5.637   4.035  14.349  0.00  0.00    +0.000 A 
ATOM     27  C   UNL     1       4.811   4.538  15.355  0.00  0.00    +0.000 A 
ATOM     28  C   UNL     1       5.323   5.366  16.373  0.00  0.00    +0.000 A 
ENDBRANCH   1  28
TORSDOF 2
ENDMDL
MODEL 2
REMARK VINA RESULT:      -8.4      0.617      1.351
REMARK  Name = 
REMARK  3 active torsions:
REMARK  status: ('A' for Active; 'I' for Inactive)
REMARK    1  A    between atoms: C_1  and  C_2
REMARK    2  A    between atoms: C_7  and  C_8
REMARK    3  A    between atoms: C_12  and  C_13
REMARK                            x       y       z     vdW  Elec       q    Type
REMARK                         _______ _______ _______ _____ _____    ______ ____
ROOT
ATOM      1  C   UNL     1       4.300   5.767  17.636  0.00  0.00    +0.000 A 
ATOM      2  N   UNL     1       3.760   7.041  17.655  0.00  0.00    +0.000 NA
ATOM      3  C   UNL     1       2.984   7.025  18.704  0.00  0.00    +0.000 A 
ATOM      4  N   UNL     1       2.197   7.979  19.246  0.00  0.00    +0.000 N 
ATOM      5  C   UNL     1       1.463   7.730  20.388  0.00  0.00    +0.000 A 
ATOM      6  C   UNL     1       1.480   6.536  21.010  0.00  0.00    +0.000 A 
ATOM      7  C   UNL     1       2.328   5.442  20.459  0.00  0.00    +0.000 A 
ATOM      8  O   UNL     1       2.416   4.333  20.970  0.00  0.00    +0.000 OA
ATOM      9  N   UNL     1       3.039   5.792  19.308  0.00  0.00    +0.000 N 
ATOM     10  N   UNL     1       3.876   4.973  18.634  0.00  0.00    +0.000 NA
ATOM     11  H   UNL     1       2.137   8.900  18.825  0.00  0.00    +0.000 HD
ENDROOT
BRANCH   5  12
ATOM     12  C   UNL     1       0.687   8.840  20.959  0.00  0.00    +0.000 A 
ATOM     13  C   UNL     1       0.463   8.874  22.347  0.00  0.00    +0.000 A 
ATOM     14  C   UNL     1      -0.279   9.897  22.952  0.00  0.00    +0.000 A 
ATOM     15  C   UNL     1      -0.779  10.881  22.102  0.00  0.00    +0.000 A 
ATOM     16  N   UNL     1      -1.522  12.011  22.309  0.00  0.00    +0.000 N 
ATOM     17  N   UNL     1      -1.770  12.662  21.161  0.00  0.00    +0.000 NA
ATOM     18  N   UNL     1      -1.197  11.974  20.180  0.00  0.00    +0.000 NA
ATOM     19  C   UNL     1      -0.581  10.880  20.728  0.00  0.00    +0.000 A 
ATOM     20  C   UNL     1       0.159   9.847  20.132  0.00  0.00    +0.000 A 
ATOM     21  H   UNL     1      -1.885  12.391  23.174  0.00  0.00    +0.000 HD
ENDBRANCH   5  12
BRANCH   1  28
ATOM     22  C   UNL     1       7.232   6.441  17.702  0.00  0.00    +0.000 C 
ATOM     23  C   UNL     1       6.598   5.640  16.596  0.00  0.00    +0.000 A 
ATOM     24  C   UNL     1       7.412   5.193  15.539  0.00  0.00    +0.000 A 
ATOM     25  C   UNL     1       6.882   4.436  14.493  0.00  0.00    +0.000 A 
ATOM     26  C   UNL     1       5.532   4.109  14.488  0.00  0.00    +0.000 A 
ATOM     27  C   UNL     1       4.711   4.542  15.530  0.00  0.00    +0.000 A 
ATOM     28  C   UNL     1       5.222   5.318  16.590  0.00  0.00    +0.000 A 
ENDBRANCH   1  28
TORSDOF 2
ENDMDL
MODEL 3
REMARK VINA RESULT:      -8.3      3.160      8.939
REMARK  Name = 
REMARK  3 active torsions:
REMARK  status: ('A' for Active; 'I' for Inactive)
REMARK    1  A    between atoms: C_1  and  C_2
REMARK    2  A    between atoms: C_7  and  C_8
REMARK    3  A    between atoms: C_12  and  C_13
REMARK                            x       y       z     vdW  Elec       q    Type
REMARK                         _______ _______ _______ _____ _____    ______ ____
ROOT
ATOM      1  C   UNL     1       0.398  10.542  21.003  0.00  0.00    +0.000 A 
ATOM      2  N   UNL     1       0.702   9.286  21.500  0.00  0.00    +0.000 NA
ATOM      3  C   UNL     1       1.288   8.697  20.495  0.00  0.00    +0.000 A 
ATOM      4  N   UNL     1       1.816   7.460  20.370  0.00  0.00    +0.000 N 
ATOM      5  C   UNL     1       2.406   7.054  19.191  0.00  0.00    +0.000 A 
ATOM      6  C   UNL     1       2.477   7.852  18.109  0.00  0.00    +0.000 A 
ATOM      7  C   UNL     1       1.910   9.229  18.183  0.00  0.00    +0.000 A 
ATOM      8  O   UNL     1       1.946  10.024  17.254  0.00  0.00    +0.000 OA
ATOM      9  N   UNL     1       1.343   9.549  19.419  0.00  0.00    +0.000 N 
ATOM     10  N   UNL     1       0.774  10.736  19.727  0.00  0.00    +0.000 NA
ATOM     11  H   UNL     1       1.793   6.808  21.148  0.00  0.00    +0.000 HD
ENDROOT
BRANCH   5  12
ATOM     12  C   UNL     1       3.023   5.721  19.156  0.00  0.00    +0.000 A 
ATOM     13  C   UNL     1       4.402   5.599  19.403  0.00  0.00    +0.000 A 
ATOM     14  C   UNL     1       5.052   4.359  19.372  0.00  0.00    +0.000 A 
ATOM     15  C   UNL     1       4.255   3.252  19.087  0.00  0.00    +0.000 A 
ATOM     16  N   UNL     1       4.514   1.913  18.978  0.00  0.00    +0.000 N 
ATOM     17  N   UNL     1       3.406   1.214  18.680  0.00  0.00    +0.000 NA
ATOM     18  N   UNL     1       2.401   2.077  18.588  0.00  0.00    +0.000 NA
ATOM     19  C   UNL     1       2.892   3.333  18.835  0.00  0.00    +0.000 A 
ATOM     20  C   UNL     1       2.252   4.581  18.864  0.00  0.00    +0.000 A 
ATOM     21  H   UNL     1       5.389   1.417  19.087  0.00  0.00    +0.000 HD
ENDBRANCH   5  12
BRANCH   1  28
ATOM     22  C   UNL     1       1.191  13.444  20.950  0.00  0.00    +0.000 C 
ATOM     23  C   UNL     1       0.061  12.916  21.793  0.00  0.00    +0.000 A 
ATOM     24  C   UNL     1      -0.653  13.821  22.601  0.00  0.00    +0.000 A 
ATOM     25  C   UNL     1      -1.717  13.391  23.395  0.00  0.00    +0.000 A 
ATOM     26  C   UNL     1      -2.090  12.053  23.390  0.00  0.00    +0.000 A 
ATOM     27  C   UNL     1      -1.395  11.143  22.592  0.00  0.00    +0.000 A 
ATOM     28  C   UNL     1      -0.309  11.553  21.793  0.00  0.00    +0.000 A 
ENDBRANCH   1  28
TORSDOF 2
ENDMDL
MODEL 4
REMARK VINA RESULT:      -8.3      2.100      8.773
REMARK  Name = 
REMARK  3 active torsions:
REMARK  status: ('A' for Active; 'I' for Inactive)
REMARK    1  A    between atoms: C_1  and  C_2
REMARK    2  A    between atoms: C_7  and  C_8
REMARK    3  A    between atoms: C_12  and  C_13
REMARK                            x       y       z     vdW  Elec       q    Type
REMARK                         _______ _______ _______ _____ _____    ______ ____
ROOT
ATOM      1  C   UNL     1       0.925   8.344  20.770  0.00  0.00    +0.000 A 
ATOM      2  N   UNL     1       1.690   8.532  19.632  0.00  0.00    +0.000 NA
ATOM      3  C   UNL     1       2.264   7.374  19.459  0.00  0.00    +0.000 A 
ATOM      4  N   UNL     1       3.121   6.935  18.511  0.00  0.00    +0.000 N 
ATOM      5  C   UNL     1       3.596   5.640  18.527  0.00  0.00    +0.000 A 
ATOM      6  C   UNL     1       3.247   4.756  19.480  0.00  0.00    +0.000 A 
ATOM      7  C   UNL     1       2.306   5.180  20.556  0.00  0.00    +0.000 A 
ATOM      8  O   UNL     1       1.924   4.437  21.450  0.00  0.00    +0.000 OA
ATOM      9  N   UNL     1       1.875   6.505  20.450  0.00  0.00    +0.000 N 
ATOM     10  N   UNL     1       1.018   7.112  21.301  0.00  0.00    +0.000 NA
ATOM     11  H   UNL     1       3.425   7.552  17.766  0.00  0.00    +0.000 HD
ENDROOT
BRANCH   5  12
ATOM     12  C   UNL     1       4.466   5.215  17.421  0.00  0.00    +0.000 A 
ATOM     13  C   UNL     1       4.182   4.013  16.751  0.00  0.00    +0.000 A 
ATOM     14  C   UNL     1       4.979   3.547  15.697  0.00  0.00    +0.000 A 
ATOM     15  C   UNL     1       6.068   4.344  15.350  0.00  0.00    +0.000 A 
ATOM     16  N   UNL     1       7.046   4.233  14.398  0.00  0.00    +0.000 N 
ATOM     17  N   UNL     1       7.901   5.268  14.441  0.00  0.00    +0.000 NA
ATOM     18  N   UNL     1       7.504   6.075  15.418  0.00  0.00    +0.000 NA
ATOM     19  C   UNL     1       6.382   5.534  15.990  0.00  0.00    +0.000 A 
ATOM     20  C   UNL     1       5.579   5.989  17.047  0.00  0.00    +0.000 A 
ATOM     21  H   UNL     1       7.192   3.507  13.709  0.00  0.00    +0.000 HD
ENDBRANCH   5  12
BRANCH   1  28
ATOM     22  C   UNL     1      -0.306  10.522  19.099  0.00  0.00    +0.000 C 
ATOM     23  C   UNL     1      -0.452  10.454  20.596  0.00  0.00    +0.000 A 
ATOM     24  C   UNL     1      -1.191  11.460  21.246  0.00  0.00    +0.000 A 
ATOM     25  C   UNL     1      -1.370  11.441  22.629  0.00  0.00    +0.000 A 
ATOM     26  C   UNL     1      -0.819  10.414  23.386  0.00  0.00    +0.000 A 
ATOM     27  C   UNL     1      -0.086   9.407  22.758  0.00  0.00    +0.000 A 
ATOM     28  C   UNL     1       0.118   9.413  21.364  0.00  0.00    +0.000 A 
ENDBRANCH   1  28
TORSDOF 2
ENDMDL
MODEL 5
REMARK VINA RESULT:      -8.2      2.267      8.828
REMARK  Name = 
REMARK  3 active torsions:
REMARK  status: ('A' for Active; 'I' for Inactive)
REMARK    1  A    between atoms: C_1  and  C_2
REMARK    2  A    between atoms: C_7  and  C_8
REMARK    3  A    between atoms: C_12  and  C_13
REMARK                            x       y       z     vdW  Elec       q    Type
REMARK                         _______ _______ _______ _____ _____    ______ ____
ROOT
ATOM      1  C   UNL     1       1.056  10.324  19.154  0.00  0.00    +0.000 A 
ATOM      2  N   UNL     1       1.834  10.003  18.055  0.00  0.00    +0.000 NA
ATOM      3  C   UNL     1       2.231   8.787  18.310  0.00  0.00    +0.000 A 
ATOM      4  N   UNL     1       3.009   7.936  17.606  0.00  0.00    +0.000 N 
ATOM      5  C   UNL     1       3.287   6.670  18.080  0.00  0.00    +0.000 A 
ATOM      6  C   UNL     1       2.817   6.223  19.259  0.00  0.00    +0.000 A 
ATOM      7  C   UNL     1       1.954   7.116  20.084  0.00  0.00    +0.000 A 
ATOM      8  O   UNL     1       1.472   6.784  21.159  0.00  0.00    +0.000 OA
ATOM      9  N   UNL     1       1.723   8.372  19.517  0.00  0.00    +0.000 N 
ATOM     10  N   UNL     1       0.970   9.347  20.073  0.00  0.00    +0.000 NA
ATOM     11  H   UNL     1       3.397   8.213  16.711  0.00  0.00    +0.000 HD
ENDROOT
BRANCH   5  12
ATOM     12  C   UNL     1       4.080   5.777  17.223  0.00  0.00    +0.000 A 
ATOM     13  C   UNL     1       3.936   4.386  17.369  0.00  0.00    +0.000 A 
ATOM     14  C   UNL     1       4.671   3.481  16.592  0.00  0.00    +0.000 A 
ATOM     15  C   UNL     1       5.550   4.037  15.665  0.00  0.00    +0.000 A 
ATOM     16  N   UNL     1       6.410   3.498  14.747  0.00  0.00    +0.000 N 
ATOM     17  N   UNL     1       7.066   4.448  14.061  0.00  0.00    +0.000 NA
ATOM     18  N   UNL     1       6.651   5.626  14.513  0.00  0.00    +0.000 NA
ATOM     19  C   UNL     1       5.721   5.404  15.495  0.00  0.00    +0.000 A 
ATOM     20  C   UNL     1       4.983   6.301  16.282  0.00  0.00    +0.000 A 
ATOM     21  H   UNL     1       6.598   2.526  14.538  0.00  0.00    +0.000 HD
ENDBRANCH   5  12
BRANCH   1  28
ATOM     22  C   UNL     1      -1.791  10.821  18.317  0.00  0.00    +0.000 C 
ATOM     23  C   UNL     1      -0.910  11.889  18.910  0.00  0.00    +0.000 A 
ATOM     24  C   UNL     1      -1.441  13.182  19.073  0.00  0.00    +0.000 A 
ATOM     25  C   UNL     1      -0.676  14.209  19.628  0.00  0.00    +0.000 A 
ATOM     26  C   UNL     1       0.629  13.959  20.035  0.00  0.00    +0.000 A 
ATOM     27  C   UNL     1       1.169  12.681  19.884  0.00  0.00    +0.000 A 
ATOM     28  C   UNL     1       0.419  11.634  19.314  0.00  0.00    +0.000 A 
ENDBRANCH   1  28
TORSDOF 2
ENDMDL
MODEL 6
REMARK VINA RESULT:      -8.2      2.421      8.701
REMARK  Name = 
REMARK  3 active torsions:
REMARK  status: ('A' for Active; 'I' for Inactive)
REMARK    1  A    between atoms: C_1  and  C_2
REMARK    2  A    between atoms: C_7  and  C_8
REMARK    3  A    between atoms: C_12  and  C_13
REMARK                            x       y       z     vdW  Elec       q    Type
REMARK                         _______ _______ _______ _____ _____    ______ ____
ROOT
ATOM      1  C   UNL     1       1.063  10.658  19.062  0.00  0.00    +0.000 A 
ATOM      2  N   UNL     1       1.848  10.271  17.990  0.00  0.00    +0.000 NA
ATOM      3  C   UNL     1       2.196   9.052  18.294  0.00  0.00    +0.000 A 
ATOM      4  N   UNL     1       2.955   8.150  17.635  0.00  0.00    +0.000 N 
ATOM      5  C   UNL     1       3.179   6.892  18.158  0.00  0.00    +0.000 A 
ATOM      6  C   UNL     1       2.673   6.504  19.344  0.00  0.00    +0.000 A 
ATOM      7  C   UNL     1       1.829   7.456  20.121  0.00  0.00    +0.000 A 
ATOM      8  O   UNL     1       1.316   7.180  21.197  0.00  0.00    +0.000 OA
ATOM      9  N   UNL     1       1.653   8.698  19.506  0.00  0.00    +0.000 N 
ATOM     10  N   UNL     1       0.925   9.718  20.013  0.00  0.00    +0.000 NA
ATOM     11  H   UNL     1       3.368   8.380  16.738  0.00  0.00    +0.000 HD
ENDROOT
BRANCH   5  12
ATOM     12  C   UNL     1       3.954   5.942  17.349  0.00  0.00    +0.000 A 
ATOM     13  C   UNL     1       3.751   4.563  17.533  0.00  0.00    +0.000 A 
ATOM     14  C   UNL     1       4.466   3.605  16.802  0.00  0.00    +0.000 A 
ATOM     15  C   UNL     1       5.387   4.096  15.879  0.00  0.00    +0.000 A 
ATOM     16  N   UNL     1       6.245   3.494  14.999  0.00  0.00    +0.000 N 
ATOM     17  N   UNL     1       6.954   4.396  14.299  0.00  0.00    +0.000 NA
ATOM     18  N   UNL     1       6.577   5.603  14.706  0.00  0.00    +0.000 NA
ATOM     19  C   UNL     1       5.617   5.449  15.671  0.00  0.00    +0.000 A 
ATOM     20  C   UNL     1       4.898   6.399  16.413  0.00  0.00    +0.000 A 
ATOM     21  H   UNL     1       6.399   2.509  14.824  0.00  0.00    +0.000 HD
ENDBRANCH   5  12
BRANCH   1  28
ATOM     22  C   UNL     1       2.586  13.137  18.296  0.00  0.00    +0.000 C 
ATOM     23  C   UNL     1       1.178  13.170  18.826  0.00  0.00    +0.000 A 
ATOM     24  C   UNL     1       0.547  14.419  18.979  0.00  0.00    +0.000 A 
ATOM     25  C   UNL     1      -0.762  14.509  19.454  0.00  0.00    +0.000 A 
ATOM     26  C   UNL     1      -1.464  13.355  19.779  0.00  0.00    +0.000 A 
ATOM     27  C   UNL     1      -0.855  12.109  19.630  0.00  0.00    +0.000 A 
ATOM     28  C   UNL     1       0.470  11.995  19.164  0.00  0.00    +0.000 A 
ENDBRANCH   1  28
TORSDOF 2
ENDMDL
MODEL 7
REMARK VINA RESULT:      -8.0      2.884      4.099
REMARK  Name = 
REMARK  3 active torsions:
REMARK  status: ('A' for Active; 'I' for Inactive)
REMARK    1  A    between atoms: C_1  and  C_2
REMARK    2  A    between atoms: C_7  and  C_8
REMARK    3  A    between atoms: C_12  and  C_13
REMARK                            x       y       z     vdW  Elec       q    Type
REMARK                         _______ _______ _______ _____ _____    ______ ____
ROOT
ATOM      1  C   UNL     1       2.428   6.470  19.721  0.00  0.00    +0.000 A 
ATOM      2  N   UNL     1       1.841   6.980  20.866  0.00  0.00    +0.000 NA
ATOM      3  C   UNL     1       1.489   8.186  20.513  0.00  0.00    +0.000 A 
ATOM      4  N   UNL     1       0.864   9.169  21.197  0.00  0.00    +0.000 N 
ATOM      5  C   UNL     1       0.580  10.380  20.599  0.00  0.00    +0.000 A 
ATOM      6  C   UNL     1       0.916  10.652  19.325  0.00  0.00    +0.000 A 
ATOM      7  C   UNL     1       1.609   9.607  18.518  0.00  0.00    +0.000 A 
ATOM      8  O   UNL     1       1.935   9.764  17.349  0.00  0.00    +0.000 OA
ATOM      9  N   UNL     1       1.845   8.415  19.206  0.00  0.00    +0.000 N 
ATOM     10  N   UNL     1       2.452   7.325  18.684  0.00  0.00    +0.000 NA
ATOM     11  H   UNL     1       0.586   9.029  22.162  0.00  0.00    +0.000 HD
ENDROOT
BRANCH   5  12
ATOM     12  C   UNL     1      -0.167  11.373  21.385  0.00  0.00    +0.000 A 
ATOM     13  C   UNL     1       0.280  12.706  21.404  0.00  0.00    +0.000 A 
ATOM     14  C   UNL     1      -0.380  13.697  22.142  0.00  0.00    +0.000 A 
ATOM     15  C   UNL     1      -1.507  13.288  22.853  0.00  0.00    +0.000 A 
ATOM     16  N   UNL     1      -2.395  13.944  23.661  0.00  0.00    +0.000 N 
ATOM     17  N   UNL     1      -3.341  13.117  24.136  0.00  0.00    +0.000 NA
ATOM     18  N   UNL     1      -3.093  11.906  23.651  0.00  0.00    +0.000 NA
ATOM     19  C   UNL     1      -1.977  11.982  22.861  0.00  0.00    +0.000 A 
ATOM     20  C   UNL     1      -1.305  10.997  22.121  0.00  0.00    +0.000 A 
ATOM     21  H   UNL     1      -2.421  14.920  23.927  0.00  0.00    +0.000 HD
ENDBRANCH   5  12
BRANCH   1  28
ATOM     22  C   UNL     1       0.815   4.010  20.353  0.00  0.00    +0.000 C 
ATOM     23  C   UNL     1       2.272   3.963  19.977  0.00  0.00    +0.000 A 
ATOM     24  C   UNL     1       2.912   2.710  19.926  0.00  0.00    +0.000 A 
ATOM     25  C   UNL     1       4.257   2.604  19.571  0.00  0.00    +0.000 A 
ATOM     26  C   UNL     1       4.984   3.745  19.255  0.00  0.00    +0.000 A 
ATOM     27  C   UNL     1       4.364   4.994  19.297  0.00  0.00    +0.000 A 
ATOM     28  C   UNL     1       3.010   5.126  19.665  0.00  0.00    +0.000 A 
ENDBRANCH   1  28
TORSDOF 2
ENDMDL
MODEL 8
REMARK VINA RESULT:      -7.9      2.781      3.655
REMARK  Name = 
REMARK  3 active torsions:
REMARK  status: ('A' for Active; 'I' for Inactive)
REMARK    1  A    between atoms: C_1  and  C_2
REMARK    2  A    between atoms: C_7  and  C_8
REMARK    3  A    between atoms: C_12  and  C_13
REMARK                            x       y       z     vdW  Elec       q    Type
REMARK                         _______ _______ _______ _____ _____    ______ ____
ROOT
ATOM      1  C   UNL     1       2.340   5.911  19.212  0.00  0.00    +0.000 A 
ATOM      2  N   UNL     1       1.777   6.360  20.393  0.00  0.00    +0.000 NA
ATOM      3  C   UNL     1       1.552   7.623  20.160  0.00  0.00    +0.000 A 
ATOM      4  N   UNL     1       1.008   8.590  20.931  0.00  0.00    +0.000 N 
ATOM      5  C   UNL     1       0.857   9.877  20.456  0.00  0.00    +0.000 A 
ATOM      6  C   UNL     1       1.249  10.240  19.221  0.00  0.00    +0.000 A 
ATOM      7  C   UNL     1       1.858   9.219  18.322  0.00  0.00    +0.000 A 
ATOM      8  O   UNL     1       2.227   9.458  17.180  0.00  0.00    +0.000 OA
ATOM      9  N   UNL     1       1.961   7.946  18.889  0.00  0.00    +0.000 N 
ATOM     10  N   UNL     1       2.472   6.859  18.268  0.00  0.00    +0.000 NA
ATOM     11  H   UNL     1       0.694   8.383  21.873  0.00  0.00    +0.000 HD
ENDROOT
BRANCH   5  12
ATOM     12  C   UNL     1       0.190  10.855  21.327  0.00  0.00    +0.000 A 
ATOM     13  C   UNL     1      -0.690  10.395  22.323  0.00  0.00    +0.000 A 
ATOM     14  C   UNL     1      -1.366  11.276  23.177  0.00  0.00    +0.000 A 
ATOM     15  C   UNL     1      -1.115  12.633  22.987  0.00  0.00    +0.000 A 
ATOM     16  N   UNL     1      -1.565  13.767  23.607  0.00  0.00    +0.000 N 
ATOM     17  N   UNL     1      -1.033  14.875  23.066  0.00  0.00    +0.000 NA
ATOM     18  N   UNL     1      -0.227  14.493  22.083  0.00  0.00    +0.000 NA
ATOM     19  C   UNL     1      -0.256  13.125  22.014  0.00  0.00    +0.000 A 
ATOM     20  C   UNL     1       0.413  12.233  21.161  0.00  0.00    +0.000 A 
ATOM     21  H   UNL     1      -2.213  13.862  24.379  0.00  0.00    +0.000 HD
ENDBRANCH   5  12
BRANCH   1  28
ATOM     22  C   UNL     1       5.244   5.146  19.400  0.00  0.00    +0.000 C 
ATOM     23  C   UNL     1       4.152   4.156  19.095  0.00  0.00    +0.000 A 
ATOM     24  C   UNL     1       4.506   2.811  18.879  0.00  0.00    +0.000 A 
ATOM     25  C   UNL     1       3.536   1.847  18.605  0.00  0.00    +0.000 A 
ATOM     26  C   UNL     1       2.195   2.208  18.547  0.00  0.00    +0.000 A 
ATOM     27  C   UNL     1       1.826   3.537  18.762  0.00  0.00    +0.000 A 
ATOM     28  C   UNL     1       2.791   4.529  19.028  0.00  0.00    +0.000 A 
ENDBRANCH   1  28
TORSDOF 2
ENDMDL
MODEL 9
REMARK VINA RESULT:      -7.9      2.921      4.215
REMARK  Name = 
REMARK  3 active torsions:
REMARK  status: ('A' for Active; 'I' for Inactive)
REMARK    1  A    between atoms: C_1  and  C_2
REMARK    2  A    between atoms: C_7  and  C_8
REMARK    3  A    between atoms: C_12  and  C_13
REMARK                            x       y       z     vdW  Elec       q    Type
REMARK                         _______ _______ _______ _____ _____    ______ ____
ROOT
ATOM      1  C   UNL     1       2.437   6.334  19.705  0.00  0.00    +0.000 A 
ATOM      2  N   UNL     1       1.914   6.848  20.879  0.00  0.00    +0.000 NA
ATOM      3  C   UNL     1       1.566   8.061  20.550  0.00  0.00    +0.000 A 
ATOM      4  N   UNL     1       0.991   9.050  21.268  0.00  0.00    +0.000 N 
ATOM      5  C   UNL     1       0.699  10.269  20.691  0.00  0.00    +0.000 A 
ATOM      6  C   UNL     1       0.977  10.543  19.402  0.00  0.00    +0.000 A 
ATOM      7  C   UNL     1       1.614   9.492  18.558  0.00  0.00    +0.000 A 
ATOM      8  O   UNL     1       1.886   9.649  17.375  0.00  0.00    +0.000 OA
ATOM      9  N   UNL     1       1.863   8.291  19.228  0.00  0.00    +0.000 N 
ATOM     10  N   UNL     1       2.425   7.194  18.673  0.00  0.00    +0.000 NA
ATOM     11  H   UNL     1       0.758   8.910  22.245  0.00  0.00    +0.000 HD
ENDROOT
BRANCH   5  12
ATOM     12  C   UNL     1       0.007  11.270  21.516  0.00  0.00    +0.000 A 
ATOM     13  C   UNL     1      -0.939  10.839  22.462  0.00  0.00    +0.000 A 
ATOM     14  C   UNL     1      -1.641  11.742  23.271  0.00  0.00    +0.000 A 
ATOM     15  C   UNL     1      -1.346  13.092  23.086  0.00  0.00    +0.000 A 
ATOM     16  N   UNL     1      -1.803  14.241  23.673  0.00  0.00    +0.000 N 
ATOM     17  N   UNL     1      -1.215  15.332  23.156  0.00  0.00    +0.000 NA
ATOM     18  N   UNL     1      -0.363  14.923  22.223  0.00  0.00    +0.000 NA
ATOM     19  C   UNL     1      -0.421  13.555  22.161  0.00  0.00    +0.000 A 
ATOM     20  C   UNL     1       0.273  12.641  21.353  0.00  0.00    +0.000 A 
ATOM     21  H   UNL     1      -2.492  14.357  24.405  0.00  0.00    +0.000 HD
ENDBRANCH   5  12
BRANCH   1  28
ATOM     22  C   UNL     1       0.768   3.889  20.243  0.00  0.00    +0.000 C 
ATOM     23  C   UNL     1       2.228   3.824  19.882  0.00  0.00    +0.000 A 
ATOM     24  C   UNL     1       2.844   2.561  19.800  0.00  0.00    +0.000 A 
ATOM     25  C   UNL     1       4.191   2.438  19.458  0.00  0.00    +0.000 A 
ATOM     26  C   UNL     1       4.944   3.574  19.185  0.00  0.00    +0.000 A 
ATOM     27  C   UNL     1       4.348   4.834  19.258  0.00  0.00    +0.000 A 
ATOM     28  C   UNL     1       2.993   4.981  19.615  0.00  0.00    +0.000 A 
ENDBRANCH   1  28
TORSDOF 2
ENDMDL
