MODEL 1
REMARK VINA RESULT:      -7.9      0.000      0.000
REMARK  Name = 
REMARK  13 active torsions:
REMARK  status: ('A' for Active; 'I' for Inactive)
REMARK    1  A    between atoms: C_1  and  N_2
REMARK    2  A    between atoms: C_3  and  C_4
REMARK    3  A    between atoms: C_4  and  C_5
REMARK    4  A    between atoms: C_5  and  C_6
REMARK    5  A    between atoms: C_6  and  C_7
REMARK    6  A    between atoms: C_7  and  C_8
REMARK    7  A    between atoms: C_8  and  C_9
REMARK    8  A    between atoms: C_9  and  C_10
REMARK    9  A    between atoms: C_10  and  C_11
REMARK   10  A    between atoms: C_11  and  C_12
REMARK   11  A    between atoms: C_12  and  C_13
REMARK   12  A    between atoms: C_13  and  C_14
REMARK   13  A    between atoms: N_23  and  C_24
REMARK                            x       y       z     vdW  Elec       q    Type
REMARK                         _______ _______ _______ _____ _____    ______ ____
ROOT
ATOM      1  C   UNL     1       2.026   6.241  20.138  0.00  0.00    +0.000 C 
ENDROOT
BRANCH   1   2
ATOM      2  C   UNL     1       1.533   4.819  20.310  0.00  0.00    +0.000 C 
BRANCH   2   3
ATOM      3  C   UNL     1       1.325   4.123  18.969  0.00  0.00    +0.000 C 
BRANCH   3   4
ATOM      4  C   UNL     1       1.740   2.654  19.043  0.00  0.00    +0.000 C 
BRANCH   4   5
ATOM      5  C   UNL     1       2.676   2.226  17.905  0.00  0.00    +0.000 C 
BRANCH   5   8
ATOM      6  C   UNL     1       4.758   2.872  19.959  0.00  0.00    +0.000 C 
ATOM      7  N   UNL     1       4.720   3.559  18.647  0.00  0.00    +0.000 N 
ATOM      8  C   UNL     1       3.805   3.216  17.689  0.00  0.00    +0.000 A 
ATOM      9  C   UNL     1       3.869   3.808  16.417  0.00  0.00    +0.000 A 
ATOM     10  C   UNL     1       4.818   4.770  16.135  0.00  0.00    +0.000 A 
ATOM     11  C   UNL     1       5.702   5.159  17.127  0.00  0.00    +0.000 A 
ATOM     12  C   UNL     1       6.647   6.166  16.867  0.00  0.00    +0.000 A 
ATOM     13  C   UNL     1       7.532   6.579  17.856  0.00  0.00    +0.000 A 
ATOM     14  C   UNL     1       7.488   5.996  19.108  0.00  0.00    +0.000 A 
ATOM     15  C   UNL     1       6.564   4.989  19.387  0.00  0.00    +0.000 A 
ATOM     16  C   UNL     1       5.651   4.547  18.408  0.00  0.00    +0.000 A 
ENDBRANCH   5   8
ENDBRANCH   4   5
ENDBRANCH   3   4
ENDBRANCH   2   3
ENDBRANCH   1   2
BRANCH   1  17
ATOM     17  C   UNL     1       2.512   6.436  18.706  0.00  0.00    +0.000 C 
BRANCH  17  18
ATOM     18  C   UNL     1       2.872   7.883  18.432  0.00  0.00    +0.000 C 
BRANCH  18  19
ATOM     19  C   UNL     1       1.926   8.585  17.453  0.00  0.00    +0.000 C 
BRANCH  19  20
ATOM     20  C   UNL     1       1.591   9.952  18.037  0.00  0.00    +0.000 C 
BRANCH  20  21
ATOM     21  C   UNL     1       0.578   9.914  19.175  0.00  0.00    +0.000 C 
BRANCH  21  22
ATOM     22  C   UNL     1      -0.785  10.405  18.708  0.00  0.00    +0.000 A 
ATOM     23  C   UNL     1      -1.250   9.912  17.482  0.00  0.00    +0.000 A 
ATOM     24  C   UNL     1      -2.496  10.268  17.007  0.00  0.00    +0.000 A 
ATOM     25  C   UNL     1      -3.304  11.094  17.776  0.00  0.00    +0.000 A 
ATOM     26  C   UNL     1      -4.591  11.408  17.319  0.00  0.00    +0.000 A 
ATOM     27  C   UNL     1      -5.437  12.211  18.079  0.00  0.00    +0.000 A 
ATOM     28  C   UNL     1      -5.010  12.690  19.308  0.00  0.00    +0.000 A 
ATOM     29  C   UNL     1      -3.728  12.382  19.775  0.00  0.00    +0.000 A 
ATOM     30  C   UNL     1      -2.832  11.602  19.017  0.00  0.00    +0.000 A 
ATOM     31  N   UNL     1      -1.547  11.301  19.417  0.00  0.00    +0.000 N 
ATOM     32  C   UNL     1      -0.950  11.983  20.591  0.00  0.00    +0.000 C 
ENDBRANCH  21  22
ENDBRANCH  20  21
ENDBRANCH  19  20
ENDBRANCH  18  19
ENDBRANCH  17  18
ENDBRANCH   1  17
TORSDOF 11
ENDMDL
MODEL 2
REMARK VINA RESULT:      -7.8      1.051      9.699
REMARK  Name = 
REMARK  13 active torsions:
REMARK  status: ('A' for Active; 'I' for Inactive)
REMARK    1  A    between atoms: C_1  and  N_2
REMARK    2  A    between atoms: C_3  and  C_4
REMARK    3  A    between atoms: C_4  and  C_5
REMARK    4  A    between atoms: C_5  and  C_6
REMARK    5  A    between atoms: C_6  and  C_7
REMARK    6  A    between atoms: C_7  and  C_8
REMARK    7  A    between atoms: C_8  and  C_9
REMARK    8  A    between atoms: C_9  and  C_10
REMARK    9  A    between atoms: C_10  and  C_11
REMARK   10  A    between atoms: C_11  and  C_12
REMARK   11  A    between atoms: C_12  and  C_13
REMARK   12  A    between atoms: C_13  and  C_14
REMARK   13  A    between atoms: N_23  and  C_24
REMARK                            x       y       z     vdW  Elec       q    Type
REMARK                         _______ _______ _______ _____ _____    ______ ____
ROOT
ATOM      1  C   UNL     1       2.434   5.447  20.764  0.00  0.00    +0.000 C 
ENDROOT
BRANCH   1   2
ATOM      2  C   UNL     1       1.300   6.422  20.526  0.00  0.00    +0.000 C 
BRANCH   2   3
ATOM      3  C   UNL     1       1.786   7.868  20.505  0.00  0.00    +0.000 C 
BRANCH   3   4
ATOM      4  C   UNL     1       0.653   8.833  20.854  0.00  0.00    +0.000 C 
BRANCH   4   5
ATOM      5  C   UNL     1       0.749  10.177  20.121  0.00  0.00    +0.000 C 
BRANCH   5   8
ATOM      6  C   UNL     1      -1.511  12.008  20.833  0.00  0.00    +0.000 C 
ATOM      7  N   UNL     1      -1.514  11.218  19.579  0.00  0.00    +0.000 N 
ATOM      8  C   UNL     1      -0.451  10.431  19.229  0.00  0.00    +0.000 A 
ATOM      9  C   UNL     1      -0.439   9.786  17.982  0.00  0.00    +0.000 A 
ATOM     10  C   UNL     1      -1.513   9.897  17.121  0.00  0.00    +0.000 A 
ATOM     11  C   UNL     1      -2.614  10.644  17.507  0.00  0.00    +0.000 A 
ATOM     12  C   UNL     1      -3.729  10.734  16.658  0.00  0.00    +0.000 A 
ATOM     13  C   UNL     1      -4.848  11.466  17.035  0.00  0.00    +0.000 A 
ATOM     14  C   UNL     1      -4.869  12.117  18.254  0.00  0.00    +0.000 A 
ATOM     15  C   UNL     1      -3.769  12.049  19.109  0.00  0.00    +0.000 A 
ATOM     16  C   UNL     1      -2.618  11.313  18.759  0.00  0.00    +0.000 A 
ENDBRANCH   5   8
ENDBRANCH   4   5
ENDBRANCH   3   4
ENDBRANCH   2   3
ENDBRANCH   1   2
BRANCH   1  17
ATOM     17  C   UNL     1       1.857   4.083  21.126  0.00  0.00    +0.000 C 
BRANCH  17  18
ATOM     18  C   UNL     1       0.715   3.700  20.206  0.00  0.00    +0.000 C 
BRANCH  18  19
ATOM     19  C   UNL     1       1.086   2.646  19.158  0.00  0.00    +0.000 C 
BRANCH  19  20
ATOM     20  C   UNL     1       1.643   3.379  17.945  0.00  0.00    +0.000 C 
BRANCH  20  21
ATOM     21  C   UNL     1       2.852   2.705  17.308  0.00  0.00    +0.000 C 
BRANCH  21  22
ATOM     22  C   UNL     1       4.046   3.649  17.271  0.00  0.00    +0.000 A 
ATOM     23  C   UNL     1       4.282   4.324  16.067  0.00  0.00    +0.000 A 
ATOM     24  C   UNL     1       5.314   5.234  15.960  0.00  0.00    +0.000 A 
ATOM     25  C   UNL     1       6.097   5.504  17.074  0.00  0.00    +0.000 A 
ATOM     26  C   UNL     1       7.108   6.470  16.981  0.00  0.00    +0.000 A 
ATOM     27  C   UNL     1       7.892   6.785  18.087  0.00  0.00    +0.000 A 
ATOM     28  C   UNL     1       7.662   6.150  19.298  0.00  0.00    +0.000 A 
ATOM     29  C   UNL     1       6.654   5.184  19.403  0.00  0.00    +0.000 A 
ATOM     30  C   UNL     1       5.865   4.815  18.296  0.00  0.00    +0.000 A 
ATOM     31  N   UNL     1       4.885   3.846  18.340  0.00  0.00    +0.000 N 
ATOM     32  C   UNL     1       4.759   2.962  19.525  0.00  0.00    +0.000 C 
ENDBRANCH  21  22
ENDBRANCH  20  21
ENDBRANCH  19  20
ENDBRANCH  18  19
ENDBRANCH  17  18
ENDBRANCH   1  17
TORSDOF 11
ENDMDL
MODEL 3
REMARK VINA RESULT:      -7.5      6.764     10.107
REMARK  Name = 
REMARK  13 active torsions:
REMARK  status: ('A' for Active; 'I' for Inactive)
REMARK    1  A    between atoms: C_1  and  N_2
REMARK    2  A    between atoms: C_3  and  C_4
REMARK    3  A    between atoms: C_4  and  C_5
REMARK    4  A    between atoms: C_5  and  C_6
REMARK    5  A    between atoms: C_6  and  C_7
REMARK    6  A    between atoms: C_7  and  C_8
REMARK    7  A    between atoms: C_8  and  C_9
REMARK    8  A    between atoms: C_9  and  C_10
REMARK    9  A    between atoms: C_10  and  C_11
REMARK   10  A    between atoms: C_11  and  C_12
REMARK   11  A    between atoms: C_12  and  C_13
REMARK   12  A    between atoms: C_13  and  C_14
REMARK   13  A    between atoms: N_23  and  C_24
REMARK                            x       y       z     vdW  Elec       q    Type
REMARK                         _______ _______ _______ _____ _____    ______ ____
ROOT
ATOM      1  C   UNL     1       7.943   8.664  17.859  0.00  0.00    +0.000 C 
ENDROOT
BRANCH   1   2
ATOM      2  C   UNL     1       8.099   7.235  18.335  0.00  0.00    +0.000 C 
BRANCH   2   3
ATOM      3  C   UNL     1       6.827   6.421  18.118  0.00  0.00    +0.000 C 
BRANCH   3   4
ATOM      4  C   UNL     1       6.602   6.142  16.632  0.00  0.00    +0.000 C 
BRANCH   4   5
ATOM      5  C   UNL     1       5.124   6.187  16.220  0.00  0.00    +0.000 C 
BRANCH   5   8
ATOM      6  C   UNL     1       3.024   7.073  18.162  0.00  0.00    +0.000 C 
ATOM      7  N   UNL     1       3.355   5.641  17.973  0.00  0.00    +0.000 N 
ATOM      8  C   UNL     1       4.272   5.238  17.039  0.00  0.00    +0.000 A 
ATOM      9  C   UNL     1       4.478   3.869  16.809  0.00  0.00    +0.000 A 
ATOM     10  C   UNL     1       3.800   2.920  17.548  0.00  0.00    +0.000 A 
ATOM     11  C   UNL     1       2.920   3.333  18.534  0.00  0.00    +0.000 A 
ATOM     12  C   UNL     1       2.254   2.379  19.321  0.00  0.00    +0.000 A 
ATOM     13  C   UNL     1       1.379   2.776  20.325  0.00  0.00    +0.000 A 
ATOM     14  C   UNL     1       1.157   4.120  20.555  0.00  0.00    +0.000 A 
ATOM     15  C   UNL     1       1.801   5.085  19.781  0.00  0.00    +0.000 A 
ATOM     16  C   UNL     1       2.696   4.718  18.755  0.00  0.00    +0.000 A 
ENDBRANCH   5   8
ENDBRANCH   4   5
ENDBRANCH   3   4
ENDBRANCH   2   3
ENDBRANCH   1   2
BRANCH   1  17
ATOM     17  C   UNL     1       8.815   9.577  18.715  0.00  0.00    +0.000 C 
BRANCH  17  18
ATOM     18  C   UNL     1       9.221  10.827  17.960  0.00  0.00    +0.000 C 
BRANCH  18  19
ATOM     19  C   UNL     1      10.653  11.291  18.248  0.00  0.00    +0.000 C 
BRANCH  19  20
ATOM     20  C   UNL     1      10.845  12.641  17.570  0.00  0.00    +0.000 C 
BRANCH  20  21
ATOM     21  C   UNL     1       9.737  13.647  17.855  0.00  0.00    +0.000 C 
BRANCH  21  22
ATOM     22  C   UNL     1       9.983  14.373  19.170  0.00  0.00    +0.000 A 
ATOM     23  C   UNL     1       9.288  13.904  20.291  0.00  0.00    +0.000 A 
ATOM     24  C   UNL     1       9.489  14.472  21.533  0.00  0.00    +0.000 A 
ATOM     25  C   UNL     1      10.418  15.494  21.668  0.00  0.00    +0.000 A 
ATOM     26  C   UNL     1      10.663  16.032  22.939  0.00  0.00    +0.000 A 
ATOM     27  C   UNL     1      11.608  17.038  23.113  0.00  0.00    +0.000 A 
ATOM     28  C   UNL     1      12.329  17.502  22.023  0.00  0.00    +0.000 A 
ATOM     29  C   UNL     1      12.095  16.972  20.749  0.00  0.00    +0.000 A 
ATOM     30  C   UNL     1      11.120  15.977  20.530  0.00  0.00    +0.000 A 
ATOM     31  N   UNL     1      10.828  15.449  19.290  0.00  0.00    +0.000 N 
ATOM     32  C   UNL     1      11.378  16.073  18.062  0.00  0.00    +0.000 C 
ENDBRANCH  21  22
ENDBRANCH  20  21
ENDBRANCH  19  20
ENDBRANCH  18  19
ENDBRANCH  17  18
ENDBRANCH   1  17
TORSDOF 11
ENDMDL
MODEL 4
REMARK VINA RESULT:      -7.4      5.364      9.401
REMARK  Name = 
REMARK  13 active torsions:
REMARK  status: ('A' for Active; 'I' for Inactive)
REMARK    1  A    between atoms: C_1  and  N_2
REMARK    2  A    between atoms: C_3  and  C_4
REMARK    3  A    between atoms: C_4  and  C_5
REMARK    4  A    between atoms: C_5  and  C_6
REMARK    5  A    between atoms: C_6  and  C_7
REMARK    6  A    between atoms: C_7  and  C_8
REMARK    7  A    between atoms: C_8  and  C_9
REMARK    8  A    between atoms: C_9  and  C_10
REMARK    9  A    between atoms: C_10  and  C_11
REMARK   10  A    between atoms: C_11  and  C_12
REMARK   11  A    between atoms: C_12  and  C_13
REMARK   12  A    between atoms: C_13  and  C_14
REMARK   13  A    between atoms: N_23  and  C_24
REMARK                            x       y       z     vdW  Elec       q    Type
REMARK                         _______ _______ _______ _____ _____    ______ ____
ROOT
ATOM      1  C   UNL     1       7.929   6.894  18.747  0.00  0.00    +0.000 C 
ENDROOT
BRANCH   1   2
ATOM      2  C   UNL     1       7.257   7.919  17.857  0.00  0.00    +0.000 C 
BRANCH   2   3
ATOM      3  C   UNL     1       8.256   8.917  17.282  0.00  0.00    +0.000 C 
BRANCH   3   4
ATOM      4  C   UNL     1       8.929   9.721  18.394  0.00  0.00    +0.000 C 
BRANCH   4   5
ATOM      5  C   UNL     1       8.346  11.131  18.566  0.00  0.00    +0.000 C 
BRANCH   5   8
ATOM      6  C   UNL     1       7.728  14.060  18.567  0.00  0.00    +0.000 C 
ATOM      7  N   UNL     1       9.069  13.548  18.200  0.00  0.00    +0.000 N 
ATOM      8  C   UNL     1       9.364  12.213  18.262  0.00  0.00    +0.000 A 
ATOM      9  C   UNL     1      10.675  11.775  18.016  0.00  0.00    +0.000 A 
ATOM     10  C   UNL     1      11.664  12.672  17.666  0.00  0.00    +0.000 A 
ATOM     11  C   UNL     1      11.346  14.015  17.544  0.00  0.00    +0.000 A 
ATOM     12  C   UNL     1      12.333  14.933  17.149  0.00  0.00    +0.000 A 
ATOM     13  C   UNL     1      12.028  16.282  17.007  0.00  0.00    +0.000 A 
ATOM     14  C   UNL     1      10.745  16.729  17.257  0.00  0.00    +0.000 A 
ATOM     15  C   UNL     1       9.751  15.837  17.658  0.00  0.00    +0.000 A 
ATOM     16  C   UNL     1      10.025  14.461  17.811  0.00  0.00    +0.000 A 
ENDBRANCH   5   8
ENDBRANCH   4   5
ENDBRANCH   3   4
ENDBRANCH   2   3
ENDBRANCH   1   2
BRANCH   1  17
ATOM     17  C   UNL     1       7.054   5.648  18.830  0.00  0.00    +0.000 C 
BRANCH  17  18
ATOM     18  C   UNL     1       7.485   4.597  17.826  0.00  0.00    +0.000 C 
BRANCH  18  19
ATOM     19  C   UNL     1       7.543   5.103  16.382  0.00  0.00    +0.000 C 
BRANCH  19  20
ATOM     20  C   UNL     1       6.335   4.537  15.647  0.00  0.00    +0.000 C 
BRANCH  20  21
ATOM     21  C   UNL     1       5.064   5.363  15.805  0.00  0.00    +0.000 C 
BRANCH  21  22
ATOM     22  C   UNL     1       4.147   4.757  16.858  0.00  0.00    +0.000 A 
ATOM     23  C   UNL     1       3.967   3.369  16.818  0.00  0.00    +0.000 A 
ATOM     24  C   UNL     1       3.191   2.732  17.765  0.00  0.00    +0.000 A 
ATOM     25  C   UNL     1       2.617   3.478  18.784  0.00  0.00    +0.000 A 
ATOM     26  C   UNL     1       1.877   2.823  19.777  0.00  0.00    +0.000 A 
ATOM     27  C   UNL     1       1.311   3.538  20.829  0.00  0.00    +0.000 A 
ATOM     28  C   UNL     1       1.496   4.911  20.906  0.00  0.00    +0.000 A 
ATOM     29  C   UNL     1       2.235   5.576  19.921  0.00  0.00    +0.000 A 
ATOM     30  C   UNL     1       2.791   4.888  18.823  0.00  0.00    +0.000 A 
ATOM     31  N   UNL     1       3.496   5.503  17.810  0.00  0.00    +0.000 N 
ATOM     32  C   UNL     1       3.515   6.983  17.702  0.00  0.00    +0.000 C 
ENDBRANCH  21  22
ENDBRANCH  20  21
ENDBRANCH  19  20
ENDBRANCH  18  19
ENDBRANCH  17  18
ENDBRANCH   1  17
TORSDOF 11
ENDMDL
MODEL 5
REMARK VINA RESULT:      -7.4      5.209     10.578
REMARK  Name = 
REMARK  13 active torsions:
REMARK  status: ('A' for Active; 'I' for Inactive)
REMARK    1  A    between atoms: C_1  and  N_2
REMARK    2  A    between atoms: C_3  and  C_4
REMARK    3  A    between atoms: C_4  and  C_5
REMARK    4  A    between atoms: C_5  and  C_6
REMARK    5  A    between atoms: C_6  and  C_7
REMARK    6  A    between atoms: C_7  and  C_8
REMARK    7  A    between atoms: C_8  and  C_9
REMARK    8  A    between atoms: C_9  and  C_10
REMARK    9  A    between atoms: C_10  and  C_11
REMARK   10  A    between atoms: C_11  and  C_12
REMARK   11  A    between atoms: C_12  and  C_13
REMARK   12  A    between atoms: C_13  and  C_14
REMARK   13  A    between atoms: N_23  and  C_24
REMARK                            x       y       z     vdW  Elec       q    Type
REMARK                         _______ _______ _______ _____ _____    ______ ____
ROOT
ATOM      1  C   UNL     1       5.245   6.143  16.623  0.00  0.00    +0.000 C 
ENDROOT
BRANCH   1   2
ATOM      2  C   UNL     1       3.948   6.284  17.392  0.00  0.00    +0.000 C 
BRANCH   2   3
ATOM      3  C   UNL     1       3.542   7.744  17.560  0.00  0.00    +0.000 C 
BRANCH   3   4
ATOM      4  C   UNL     1       2.088   7.859  18.018  0.00  0.00    +0.000 C 
BRANCH   4   5
ATOM      5  C   UNL     1       1.582   9.307  18.084  0.00  0.00    +0.000 C 
BRANCH   5   8
ATOM      6  C   UNL     1      -0.389  11.537  18.416  0.00  0.00    +0.000 C 
ATOM      7  N   UNL     1      -0.018  10.651  19.545  0.00  0.00    +0.000 N 
ATOM      8  C   UNL     1       0.836   9.596  19.371  0.00  0.00    +0.000 A 
ATOM      9  C   UNL     1       1.077   8.711  20.435  0.00  0.00    +0.000 A 
ATOM     10  C   UNL     1       0.499   8.921  21.671  0.00  0.00    +0.000 A 
ATOM     11  C   UNL     1      -0.315  10.026  21.858  0.00  0.00    +0.000 A 
ATOM     12  C   UNL     1      -0.877  10.274  23.121  0.00  0.00    +0.000 A 
ATOM     13  C   UNL     1      -1.684  11.386  23.331  0.00  0.00    +0.000 A 
ATOM     14  C   UNL     1      -1.940  12.258  22.290  0.00  0.00    +0.000 A 
ATOM     15  C   UNL     1      -1.399  12.028  21.025  0.00  0.00    +0.000 A 
ATOM     16  C   UNL     1      -0.575  10.910  20.778  0.00  0.00    +0.000 A 
ENDBRANCH   5   8
ENDBRANCH   4   5
ENDBRANCH   3   4
ENDBRANCH   2   3
ENDBRANCH   1   2
BRANCH   1  17
ATOM     17  C   UNL     1       6.419   6.368  17.571  0.00  0.00    +0.000 C 
BRANCH  17  18
ATOM     18  C   UNL     1       7.101   7.696  17.306  0.00  0.00    +0.000 C 
BRANCH  18  19
ATOM     19  C   UNL     1       8.245   8.012  18.276  0.00  0.00    +0.000 C 
BRANCH  19  20
ATOM     20  C   UNL     1       8.570   9.493  18.136  0.00  0.00    +0.000 C 
BRANCH  20  21
ATOM     21  C   UNL     1       9.161  10.124  19.392  0.00  0.00    +0.000 C 
BRANCH  21  22
ATOM     22  C   UNL     1       9.954  11.378  19.051  0.00  0.00    +0.000 A 
ATOM     23  C   UNL     1      10.470  11.467  17.752  0.00  0.00    +0.000 A 
ATOM     24  C   UNL     1      11.160  12.590  17.344  0.00  0.00    +0.000 A 
ATOM     25  C   UNL     1      11.306  13.653  18.225  0.00  0.00    +0.000 A 
ATOM     26  C   UNL     1      11.957  14.816  17.791  0.00  0.00    +0.000 A 
ATOM     27  C   UNL     1      12.095  15.910  18.640  0.00  0.00    +0.000 A 
ATOM     28  C   UNL     1      11.569  15.857  19.922  0.00  0.00    +0.000 A 
ATOM     29  C   UNL     1      10.917  14.702  20.366  0.00  0.00    +0.000 A 
ATOM     30  C   UNL     1      10.789  13.563  19.546  0.00  0.00    +0.000 A 
ATOM     31  N   UNL     1      10.187  12.390  19.949  0.00  0.00    +0.000 N 
ATOM     32  C   UNL     1       9.831  12.182  21.375  0.00  0.00    +0.000 C 
ENDBRANCH  21  22
ENDBRANCH  20  21
ENDBRANCH  19  20
ENDBRANCH  18  19
ENDBRANCH  17  18
ENDBRANCH   1  17
TORSDOF 11
ENDMDL
MODEL 6
REMARK VINA RESULT:      -7.4      1.297      2.441
REMARK  Name = 
REMARK  13 active torsions:
REMARK  status: ('A' for Active; 'I' for Inactive)
REMARK    1  A    between atoms: C_1  and  N_2
REMARK    2  A    between atoms: C_3  and  C_4
REMARK    3  A    between atoms: C_4  and  C_5
REMARK    4  A    between atoms: C_5  and  C_6
REMARK    5  A    between atoms: C_6  and  C_7
REMARK    6  A    between atoms: C_7  and  C_8
REMARK    7  A    between atoms: C_8  and  C_9
REMARK    8  A    between atoms: C_9  and  C_10
REMARK    9  A    between atoms: C_10  and  C_11
REMARK   10  A    between atoms: C_11  and  C_12
REMARK   11  A    between atoms: C_12  and  C_13
REMARK   12  A    between atoms: C_13  and  C_14
REMARK   13  A    between atoms: N_23  and  C_24
REMARK                            x       y       z     vdW  Elec       q    Type
REMARK                         _______ _______ _______ _____ _____    ______ ____
ROOT
ATOM      1  C   UNL     1       2.719   6.282  20.069  0.00  0.00    +0.000 C 
ENDROOT
BRANCH   1   2
ATOM      2  C   UNL     1       1.952   5.125  20.674  0.00  0.00    +0.000 C 
BRANCH   2   3
ATOM      3  C   UNL     1       1.146   4.365  19.626  0.00  0.00    +0.000 C 
BRANCH   3   4
ATOM      4  C   UNL     1       1.034   2.884  19.988  0.00  0.00    +0.000 C 
BRANCH   4   5
ATOM      5  C   UNL     1       2.038   1.996  19.241  0.00  0.00    +0.000 C 
BRANCH   5   8
ATOM      6  C   UNL     1       4.757   2.705  20.274  0.00  0.00    +0.000 C 
ATOM      7  N   UNL     1       4.275   3.187  18.959  0.00  0.00    +0.000 N 
ATOM      8  C   UNL     1       3.056   2.808  18.465  0.00  0.00    +0.000 A 
ATOM      9  C   UNL     1       2.679   3.191  17.167  0.00  0.00    +0.000 A 
ATOM     10  C   UNL     1       3.505   3.987  16.399  0.00  0.00    +0.000 A 
ATOM     11  C   UNL     1       4.710   4.419  16.928  0.00  0.00    +0.000 A 
ATOM     12  C   UNL     1       5.542   5.262  16.173  0.00  0.00    +0.000 A 
ATOM     13  C   UNL     1       6.747   5.718  16.694  0.00  0.00    +0.000 A 
ATOM     14  C   UNL     1       7.137   5.339  17.964  0.00  0.00    +0.000 A 
ATOM     15  C   UNL     1       6.331   4.496  18.729  0.00  0.00    +0.000 A 
ATOM     16  C   UNL     1       5.101   4.016  18.233  0.00  0.00    +0.000 A 
ENDBRANCH   5   8
ENDBRANCH   4   5
ENDBRANCH   3   4
ENDBRANCH   2   3
ENDBRANCH   1   2
BRANCH   1  17
ATOM     17  C   UNL     1       2.198   6.549  18.661  0.00  0.00    +0.000 C 
BRANCH  17  18
ATOM     18  C   UNL     1       3.064   7.553  17.927  0.00  0.00    +0.000 C 
BRANCH  18  19
ATOM     19  C   UNL     1       2.374   8.895  17.664  0.00  0.00    +0.000 C 
BRANCH  19  20
ATOM     20  C   UNL     1       1.363   9.121  18.780  0.00  0.00    +0.000 C 
BRANCH  20  21
ATOM     21  C   UNL     1       0.196  10.022  18.395  0.00  0.00    +0.000 C 
BRANCH  21  22
ATOM     22  C   UNL     1      -0.434  10.655  19.626  0.00  0.00    +0.000 A 
ATOM     23  C   UNL     1       0.121  10.317  20.867  0.00  0.00    +0.000 A 
ATOM     24  C   UNL     1      -0.358  10.883  22.031  0.00  0.00    +0.000 A 
ATOM     25  C   UNL     1      -1.375  11.824  21.958  0.00  0.00    +0.000 A 
ATOM     26  C   UNL     1      -1.822  12.440  23.135  0.00  0.00    +0.000 A 
ATOM     27  C   UNL     1      -2.821  13.408  23.093  0.00  0.00    +0.000 A 
ATOM     28  C   UNL     1      -3.369  13.780  21.875  0.00  0.00    +0.000 A 
ATOM     29  C   UNL     1      -2.931  13.173  20.693  0.00  0.00    +0.000 A 
ATOM     30  C   UNL     1      -1.946  12.164  20.701  0.00  0.00    +0.000 A 
ATOM     31  N   UNL     1      -1.506  11.512  19.569  0.00  0.00    +0.000 N 
ATOM     32  C   UNL     1      -2.222  11.683  18.280  0.00  0.00    +0.000 C 
ENDBRANCH  21  22
ENDBRANCH  20  21
ENDBRANCH  19  20
ENDBRANCH  18  19
ENDBRANCH  17  18
ENDBRANCH   1  17
TORSDOF 11
ENDMDL
MODEL 7
REMARK VINA RESULT:      -7.4      4.926      9.952
REMARK  Name = 
REMARK  13 active torsions:
REMARK  status: ('A' for Active; 'I' for Inactive)
REMARK    1  A    between atoms: C_1  and  N_2
REMARK    2  A    between atoms: C_3  and  C_4
REMARK    3  A    between atoms: C_4  and  C_5
REMARK    4  A    between atoms: C_5  and  C_6
REMARK    5  A    between atoms: C_6  and  C_7
REMARK    6  A    between atoms: C_7  and  C_8
REMARK    7  A    between atoms: C_8  and  C_9
REMARK    8  A    between atoms: C_9  and  C_10
REMARK    9  A    between atoms: C_10  and  C_11
REMARK   10  A    between atoms: C_11  and  C_12
REMARK   11  A    between atoms: C_12  and  C_13
REMARK   12  A    between atoms: C_13  and  C_14
REMARK   13  A    between atoms: N_23  and  C_24
REMARK                            x       y       z     vdW  Elec       q    Type
REMARK                         _______ _______ _______ _____ _____    ______ ____
ROOT
ATOM      1  C   UNL     1       6.236   5.764  17.753  0.00  0.00    +0.000 C 
ENDROOT
BRANCH   1   2
ATOM      2  C   UNL     1       4.936   6.320  18.296  0.00  0.00    +0.000 C 
BRANCH   2   3
ATOM      3  C   UNL     1       3.741   5.912  17.440  0.00  0.00    +0.000 C 
BRANCH   3   4
ATOM      4  C   UNL     1       2.434   6.421  18.045  0.00  0.00    +0.000 C 
BRANCH   4   5
ATOM      5  C   UNL     1       2.358   7.952  18.133  0.00  0.00    +0.000 C 
BRANCH   5   8
ATOM      6  C   UNL     1       0.632  10.398  18.196  0.00  0.00    +0.000 C 
ATOM      7  N   UNL     1       0.852   9.569  19.405  0.00  0.00    +0.000 N 
ATOM      8  C   UNL     1       1.591   8.418  19.355  0.00  0.00    +0.000 A 
ATOM      9  C   UNL     1       1.684   7.599  20.491  0.00  0.00    +0.000 A 
ATOM     10  C   UNL     1       1.077   7.965  21.676  0.00  0.00    +0.000 A 
ATOM     11  C   UNL     1       0.383   9.162  21.739  0.00  0.00    +0.000 A 
ATOM     12  C   UNL     1      -0.206   9.566  22.948  0.00  0.00    +0.000 A 
ATOM     13  C   UNL     1      -0.893  10.771  23.032  0.00  0.00    +0.000 A 
ATOM     14  C   UNL     1      -1.004  11.581  21.919  0.00  0.00    +0.000 A 
ATOM     15  C   UNL     1      -0.435  11.197  20.705  0.00  0.00    +0.000 A 
ATOM     16  C   UNL     1       0.271   9.981  20.584  0.00  0.00    +0.000 A 
ENDBRANCH   5   8
ENDBRANCH   4   5
ENDBRANCH   3   4
ENDBRANCH   2   3
ENDBRANCH   1   2
BRANCH   1  17
ATOM     17  C   UNL     1       7.316   5.873  18.825  0.00  0.00    +0.000 C 
BRANCH  17  18
ATOM     18  C   UNL     1       8.193   7.090  18.610  0.00  0.00    +0.000 C 
BRANCH  18  19
ATOM     19  C   UNL     1       7.775   7.956  17.417  0.00  0.00    +0.000 C 
BRANCH  19  20
ATOM     20  C   UNL     1       8.102   9.403  17.761  0.00  0.00    +0.000 C 
BRANCH  20  21
ATOM     21  C   UNL     1       8.975   9.569  18.999  0.00  0.00    +0.000 C 
BRANCH  21  22
ATOM     22  C   UNL     1       9.693  10.911  18.984  0.00  0.00    +0.000 A 
ATOM     23  C   UNL     1      10.391  11.242  17.816  0.00  0.00    +0.000 A 
ATOM     24  C   UNL     1      11.030  12.460  17.699  0.00  0.00    +0.000 A 
ATOM     25  C   UNL     1      10.944  13.373  18.741  0.00  0.00    +0.000 A 
ATOM     26  C   UNL     1      11.545  14.631  18.598  0.00  0.00    +0.000 A 
ATOM     27  C   UNL     1      11.453  15.580  19.612  0.00  0.00    +0.000 A 
ATOM     28  C   UNL     1      10.746  15.286  20.769  0.00  0.00    +0.000 A 
ATOM     29  C   UNL     1      10.141  14.034  20.922  0.00  0.00    +0.000 A 
ATOM     30  C   UNL     1      10.243  13.037  19.931  0.00  0.00    +0.000 A 
ATOM     31  N   UNL     1       9.695  11.777  20.050  0.00  0.00    +0.000 N 
ATOM     32  C   UNL     1       9.148  11.319  21.351  0.00  0.00    +0.000 C 
ENDBRANCH  21  22
ENDBRANCH  20  21
ENDBRANCH  19  20
ENDBRANCH  18  19
ENDBRANCH  17  18
ENDBRANCH   1  17
TORSDOF 11
ENDMDL
MODEL 8
REMARK VINA RESULT:      -7.4      1.555      9.586
REMARK  Name = 
REMARK  13 active torsions:
REMARK  status: ('A' for Active; 'I' for Inactive)
REMARK    1  A    between atoms: C_1  and  N_2
REMARK    2  A    between atoms: C_3  and  C_4
REMARK    3  A    between atoms: C_4  and  C_5
REMARK    4  A    between atoms: C_5  and  C_6
REMARK    5  A    between atoms: C_6  and  C_7
REMARK    6  A    between atoms: C_7  and  C_8
REMARK    7  A    between atoms: C_8  and  C_9
REMARK    8  A    between atoms: C_9  and  C_10
REMARK    9  A    between atoms: C_10  and  C_11
REMARK   10  A    between atoms: C_11  and  C_12
REMARK   11  A    between atoms: C_12  and  C_13
REMARK   12  A    between atoms: C_13  and  C_14
REMARK   13  A    between atoms: N_23  and  C_24
REMARK                            x       y       z     vdW  Elec       q    Type
REMARK                         _______ _______ _______ _____ _____    ______ ____
ROOT
ATOM      1  C   UNL     1       1.869   6.843  19.702  0.00  0.00    +0.000 C 
ENDROOT
BRANCH   1   2
ATOM      2  C   UNL     1       2.637   7.236  18.457  0.00  0.00    +0.000 C 
BRANCH   2   3
ATOM      3  C   UNL     1       1.963   8.382  17.711  0.00  0.00    +0.000 C 
BRANCH   3   4
ATOM      4  C   UNL     1       2.283   9.726  18.365  0.00  0.00    +0.000 C 
BRANCH   4   5
ATOM      5  C   UNL     1       1.164  10.764  18.205  0.00  0.00    +0.000 C 
BRANCH   5   8
ATOM      6  C   UNL     1      -1.448  12.222  18.332  0.00  0.00    +0.000 C 
ATOM      7  N   UNL     1      -0.827  11.632  19.541  0.00  0.00    +0.000 N 
ATOM      8  C   UNL     1       0.336  10.913  19.466  0.00  0.00    +0.000 A 
ATOM      9  C   UNL     1       0.836  10.273  20.611  0.00  0.00    +0.000 A 
ATOM     10  C   UNL     1       0.193  10.399  21.827  0.00  0.00    +0.000 A 
ATOM     11  C   UNL     1      -0.948  11.179  21.910  0.00  0.00    +0.000 A 
ATOM     12  C   UNL     1      -1.590  11.348  23.148  0.00  0.00    +0.000 A 
ATOM     13  C   UNL     1      -2.728  12.139  23.253  0.00  0.00    +0.000 A 
ATOM     14  C   UNL     1      -3.239  12.765  22.132  0.00  0.00    +0.000 A 
ATOM     15  C   UNL     1      -2.623  12.604  20.891  0.00  0.00    +0.000 A 
ATOM     16  C   UNL     1      -1.466  11.810  20.748  0.00  0.00    +0.000 A 
ENDBRANCH   5   8
ENDBRANCH   4   5
ENDBRANCH   3   4
ENDBRANCH   2   3
ENDBRANCH   1   2
BRANCH   1  17
ATOM     17  C   UNL     1       2.722   5.896  20.541  0.00  0.00    +0.000 C 
BRANCH  17  18
ATOM     18  C   UNL     1       1.919   4.704  21.022  0.00  0.00    +0.000 C 
BRANCH  18  19
ATOM     19  C   UNL     1       1.058   4.053  19.935  0.00  0.00    +0.000 C 
BRANCH  19  20
ATOM     20  C   UNL     1       1.097   2.547  20.156  0.00  0.00    +0.000 C 
BRANCH  20  21
ATOM     21  C   UNL     1       2.002   1.796  19.186  0.00  0.00    +0.000 C 
BRANCH  21  22
ATOM     22  C   UNL     1       2.989   2.742  18.518  0.00  0.00    +0.000 A 
ATOM     23  C   UNL     1       2.622   3.262  17.270  0.00  0.00    +0.000 A 
ATOM     24  C   UNL     1       3.437   4.165  16.617  0.00  0.00    +0.000 A 
ATOM     25  C   UNL     1       4.611   4.583  17.226  0.00  0.00    +0.000 A 
ATOM     26  C   UNL     1       5.409   5.542  16.588  0.00  0.00    +0.000 A 
ATOM     27  C   UNL     1       6.578   6.004  17.185  0.00  0.00    +0.000 A 
ATOM     28  C   UNL     1       6.950   5.524  18.432  0.00  0.00    +0.000 A 
ATOM     29  C   UNL     1       6.161   4.567  19.080  0.00  0.00    +0.000 A 
ATOM     30  C   UNL     1       4.990   4.051  18.489  0.00  0.00    +0.000 A 
ATOM     31  N   UNL     1       4.199   3.083  19.071  0.00  0.00    +0.000 N 
ATOM     32  C   UNL     1       4.671   2.354  20.275  0.00  0.00    +0.000 C 
ENDBRANCH  21  22
ENDBRANCH  20  21
ENDBRANCH  19  20
ENDBRANCH  18  19
ENDBRANCH  17  18
ENDBRANCH   1  17
TORSDOF 11
ENDMDL
MODEL 9
REMARK VINA RESULT:      -7.4      0.975      1.888
REMARK  Name = 
REMARK  13 active torsions:
REMARK  status: ('A' for Active; 'I' for Inactive)
REMARK    1  A    between atoms: C_1  and  N_2
REMARK    2  A    between atoms: C_3  and  C_4
REMARK    3  A    between atoms: C_4  and  C_5
REMARK    4  A    between atoms: C_5  and  C_6
REMARK    5  A    between atoms: C_6  and  C_7
REMARK    6  A    between atoms: C_7  and  C_8
REMARK    7  A    between atoms: C_8  and  C_9
REMARK    8  A    between atoms: C_9  and  C_10
REMARK    9  A    between atoms: C_10  and  C_11
REMARK   10  A    between atoms: C_11  and  C_12
REMARK   11  A    between atoms: C_12  and  C_13
REMARK   12  A    between atoms: C_13  and  C_14
REMARK   13  A    between atoms: N_23  and  C_24
REMARK                            x       y       z     vdW  Elec       q    Type
REMARK                         _______ _______ _______ _____ _____    ______ ____
ROOT
ATOM      1  C   UNL     1       1.643   5.607  19.358  0.00  0.00    +0.000 C 
ENDROOT
BRANCH   1   2
ATOM      2  C   UNL     1       1.322   4.883  20.649  0.00  0.00    +0.000 C 
BRANCH   2   3
ATOM      3  C   UNL     1       1.457   3.371  20.502  0.00  0.00    +0.000 C 
BRANCH   3   4
ATOM      4  C   UNL     1       2.650   2.846  21.301  0.00  0.00    +0.000 C 
BRANCH   4   5
ATOM      5  C   UNL     1       3.735   2.204  20.427  0.00  0.00    +0.000 C 
BRANCH   5   8
ATOM      6  C   UNL     1       3.240   2.108  17.476  0.00  0.00    +0.000 C 
ATOM      7  N   UNL     1       4.153   3.106  18.079  0.00  0.00    +0.000 N 
ATOM      8  C   UNL     1       4.327   3.185  19.435  0.00  0.00    +0.000 A 
ATOM      9  C   UNL     1       5.111   4.215  19.979  0.00  0.00    +0.000 A 
ATOM     10  C   UNL     1       5.750   5.123  19.159  0.00  0.00    +0.000 A 
ATOM     11  C   UNL     1       5.621   5.001  17.785  0.00  0.00    +0.000 A 
ATOM     12  C   UNL     1       6.298   5.894  16.938  0.00  0.00    +0.000 A 
ATOM     13  C   UNL     1       6.192   5.777  15.557  0.00  0.00    +0.000 A 
ATOM     14  C   UNL     1       5.413   4.776  15.007  0.00  0.00    +0.000 A 
ATOM     15  C   UNL     1       4.726   3.883  15.829  0.00  0.00    +0.000 A 
ATOM     16  C   UNL     1       4.812   3.972  17.234  0.00  0.00    +0.000 A 
ENDBRANCH   5   8
ENDBRANCH   4   5
ENDBRANCH   3   4
ENDBRANCH   2   3
ENDBRANCH   1   2
BRANCH   1  17
ATOM     17  C   UNL     1       2.624   6.738  19.647  0.00  0.00    +0.000 C 
BRANCH  17  18
ATOM     18  C   UNL     1       1.970   8.097  19.487  0.00  0.00    +0.000 C 
BRANCH  18  19
ATOM     19  C   UNL     1       2.204   8.743  18.118  0.00  0.00    +0.000 C 
BRANCH  19  20
ATOM     20  C   UNL     1       0.910   9.435  17.708  0.00  0.00    +0.000 C 
BRANCH  20  21
ATOM     21  C   UNL     1       0.140  10.058  18.866  0.00  0.00    +0.000 C 
BRANCH  21  22
ATOM     22  C   UNL     1      -1.240  10.519  18.419  0.00  0.00    +0.000 A 
ATOM     23  C   UNL     1      -1.703  10.031  17.191  0.00  0.00    +0.000 A 
ATOM     24  C   UNL     1      -2.963  10.359  16.733  0.00  0.00    +0.000 A 
ATOM     25  C   UNL     1      -3.785  11.152  17.520  0.00  0.00    +0.000 A 
ATOM     26  C   UNL     1      -5.084  11.438  17.080  0.00  0.00    +0.000 A 
ATOM     27  C   UNL     1      -5.944  12.207  17.859  0.00  0.00    +0.000 A 
ATOM     28  C   UNL     1      -5.519  12.681  19.091  0.00  0.00    +0.000 A 
ATOM     29  C   UNL     1      -4.224  12.401  19.542  0.00  0.00    +0.000 A 
ATOM     30  C   UNL     1      -3.315  11.656  18.764  0.00  0.00    +0.000 A 
ATOM     31  N   UNL     1      -2.019  11.383  19.148  0.00  0.00    +0.000 N 
ATOM     32  C   UNL     1      -1.428  12.066  20.326  0.00  0.00    +0.000 C 
ENDBRANCH  21  22
ENDBRANCH  20  21
ENDBRANCH  19  20
ENDBRANCH  18  19
ENDBRANCH  17  18
ENDBRANCH   1  17
TORSDOF 11
ENDMDL
