MODEL 1
REMARK VINA RESULT:      -7.8      0.000      0.000
REMARK  Name = 
REMARK  5 active torsions:
REMARK  status: ('A' for Active; 'I' for Inactive)
REMARK    1  A    between atoms: C_1  and  C_2
REMARK    2  A    between atoms: C_6  and  N_7
REMARK    3  A    between atoms: C_8  and  C_9
REMARK    4  A    between atoms: N_11  and  C_12
REMARK    5  A    between atoms: C_16  and  C_17
REMARK                            x       y       z     vdW  Elec       q    Type
REMARK                         _______ _______ _______ _____ _____    ______ ____
ROOT
ATOM      1  C   UNL     1       2.159   7.751  19.282  0.00  0.00    +0.000 C 
ATOM      2  O   UNL     1       2.489   7.850  18.100  0.00  0.00    +0.000 OA
ATOM      3  N   UNL     1       2.466   6.628  20.047  0.00  0.00    +0.000 N 
ATOM      4  H   UNL     1       1.988   6.534  20.934  0.00  0.00    +0.000 HD
ENDROOT
BRANCH   1  11
ATOM      5  C   UNL     1      -1.660  12.857  23.339  0.00  0.00    +0.000 C 
ATOM      6  C   UNL     1      -1.082  12.103  22.175  0.00  0.00    +0.000 A 
ATOM      7  C   UNL     1      -1.389  12.509  20.881  0.00  0.00    +0.000 A 
ATOM      8  C   UNL     1      -0.862  11.803  19.807  0.00  0.00    +0.000 A 
ATOM      9  C   UNL     1      -0.031  10.696  20.072  0.00  0.00    +0.000 A 
ATOM     10  C   UNL     1       0.650   9.778  19.220  0.00  0.00    +0.000 A 
ATOM     11  C   UNL     1       1.373   8.814  19.904  0.00  0.00    +0.000 A 
ATOM     12  S   UNL     1       1.232   9.032  21.595  0.00  0.00    +0.000 S 
ATOM     13  C   UNL     1       0.208  10.390  21.405  0.00  0.00    +0.000 A 
ATOM     14  N   UNL     1      -0.284  11.049  22.478  0.00  0.00    +0.000 NA
BRANCH  10  15
ATOM     15  N   UNL     1       0.594   9.842  17.871  0.00  0.00    +0.000 N 
ATOM     16  H   UNL     1       1.395  10.016  17.275  0.00  0.00    +0.000 HD
ATOM     17  H   UNL     1      -0.312   9.938  17.400  0.00  0.00    +0.000 HD
ENDBRANCH  10  15
ENDBRANCH   1  11
BRANCH   3  18
ATOM     18  C   UNL     1       3.272   5.549  19.601  0.00  0.00    +0.000 A 
ATOM     19  C   UNL     1       4.655   5.671  19.415  0.00  0.00    +0.000 A 
ATOM     20  C   UNL     1       5.422   4.612  18.935  0.00  0.00    +0.000 A 
ATOM     21  C   UNL     1       4.816   3.400  18.637  0.00  0.00    +0.000 A 
ATOM     22  C   UNL     1       3.437   3.234  18.832  0.00  0.00    +0.000 A 
ATOM     23  C   UNL     1       2.674   4.312  19.333  0.00  0.00    +0.000 A 
BRANCH  22  24
ATOM     24  C   UNL     1       2.780   1.921  18.485  0.00  0.00    +0.000 C 
ATOM     25  F   UNL     1       3.637   0.860  18.515  0.00  0.00    +0.000 F 
ATOM     26  F   UNL     1       1.766   1.602  19.334  0.00  0.00    +0.000 F 
ATOM     27  F   UNL     1       2.239   1.924  17.236  0.00  0.00    +0.000 F 
ENDBRANCH  22  24
ENDBRANCH   3  18
TORSDOF 4
ENDMDL
MODEL 2
REMARK VINA RESULT:      -7.8      3.097      3.841
REMARK  Name = 
REMARK  5 active torsions:
REMARK  status: ('A' for Active; 'I' for Inactive)
REMARK    1  A    between atoms: C_1  and  C_2
REMARK    2  A    between atoms: C_6  and  N_7
REMARK    3  A    between atoms: C_8  and  C_9
REMARK    4  A    between atoms: N_11  and  C_12
REMARK    5  A    between atoms: C_16  and  C_17
REMARK                            x       y       z     vdW  Elec       q    Type
REMARK                         _______ _______ _______ _____ _____    ______ ____
ROOT
ATOM      1  C   UNL     1       3.154   6.811  18.470  0.00  0.00    +0.000 C 
ATOM      2  O   UNL     1       2.836   5.649  18.717  0.00  0.00    +0.000 OA
ATOM      3  N   UNL     1       4.379   7.141  17.896  0.00  0.00    +0.000 N 
ATOM      4  H   UNL     1       4.647   8.117  17.917  0.00  0.00    +0.000 HD
ENDROOT
BRANCH   1  11
ATOM      5  C   UNL     1      -1.372  12.781  19.473  0.00  0.00    +0.000 C 
ATOM      6  C   UNL     1      -0.604  11.514  19.727  0.00  0.00    +0.000 A 
ATOM      7  C   UNL     1      -0.667  10.920  20.983  0.00  0.00    +0.000 A 
ATOM      8  C   UNL     1       0.054   9.756  21.217  0.00  0.00    +0.000 A 
ATOM      9  C   UNL     1       0.824   9.218  20.167  0.00  0.00    +0.000 A 
ATOM     10  C   UNL     1       1.662   8.068  20.079  0.00  0.00    +0.000 A 
ATOM     11  C   UNL     1       2.250   7.900  18.835  0.00  0.00    +0.000 A 
ATOM     12  S   UNL     1       1.772   9.145  17.762  0.00  0.00    +0.000 S 
ATOM     13  C   UNL     1       0.803   9.898  18.956  0.00  0.00    +0.000 A 
ATOM     14  N   UNL     1       0.118  11.031  18.686  0.00  0.00    +0.000 NA
BRANCH  10  15
ATOM     15  N   UNL     1       1.864   7.221  21.113  0.00  0.00    +0.000 N 
ATOM     16  H   UNL     1       2.765   6.832  21.362  0.00  0.00    +0.000 HD
ATOM     17  H   UNL     1       1.065   6.758  21.559  0.00  0.00    +0.000 HD
ENDBRANCH  10  15
ENDBRANCH   1  11
BRANCH   3  18
ATOM     18  C   UNL     1       5.329   6.194  17.434  0.00  0.00    +0.000 A 
ATOM     19  C   UNL     1       6.358   5.704  18.248  0.00  0.00    +0.000 A 
ATOM     20  C   UNL     1       7.308   4.808  17.762  0.00  0.00    +0.000 A 
ATOM     21  C   UNL     1       7.238   4.376  16.445  0.00  0.00    +0.000 A 
ATOM     22  C   UNL     1       6.208   4.828  15.608  0.00  0.00    +0.000 A 
ATOM     23  C   UNL     1       5.245   5.725  16.118  0.00  0.00    +0.000 A 
BRANCH  22  24
ATOM     24  C   UNL     1       6.152   4.371  14.170  0.00  0.00    +0.000 C 
ATOM     25  F   UNL     1       7.029   5.026  13.357  0.00  0.00    +0.000 F 
ATOM     26  F   UNL     1       6.434   3.047  14.031  0.00  0.00    +0.000 F 
ATOM     27  F   UNL     1       4.923   4.556  13.614  0.00  0.00    +0.000 F 
ENDBRANCH  22  24
ENDBRANCH   3  18
TORSDOF 4
ENDMDL
MODEL 3
REMARK VINA RESULT:      -7.6      2.767      3.414
REMARK  Name = 
REMARK  5 active torsions:
REMARK  status: ('A' for Active; 'I' for Inactive)
REMARK    1  A    between atoms: C_1  and  C_2
REMARK    2  A    between atoms: C_6  and  N_7
REMARK    3  A    between atoms: C_8  and  C_9
REMARK    4  A    between atoms: N_11  and  C_12
REMARK    5  A    between atoms: C_16  and  C_17
REMARK                            x       y       z     vdW  Elec       q    Type
REMARK                         _______ _______ _______ _____ _____    ______ ____
ROOT
ATOM      1  C   UNL     1       2.276   7.941  18.545  0.00  0.00    +0.000 C 
ATOM      2  O   UNL     1       2.549   8.357  17.419  0.00  0.00    +0.000 OA
ATOM      3  N   UNL     1       2.681   6.686  18.992  0.00  0.00    +0.000 N 
ATOM      4  H   UNL     1       2.247   6.339  19.838  0.00  0.00    +0.000 HD
ENDROOT
BRANCH   1  11
ATOM      5  C   UNL     1      -2.073  12.760  22.417  0.00  0.00    +0.000 C 
ATOM      6  C   UNL     1      -1.212  11.577  22.069  0.00  0.00    +0.000 A 
ATOM      7  C   UNL     1      -0.917  10.639  23.052  0.00  0.00    +0.000 A 
ATOM      8  C   UNL     1      -0.112   9.553  22.731  0.00  0.00    +0.000 A 
ATOM      9  C   UNL     1       0.376   9.444  21.414  0.00  0.00    +0.000 A 
ATOM     10  C   UNL     1       1.209   8.481  20.773  0.00  0.00    +0.000 A 
ATOM     11  C   UNL     1       1.455   8.757  19.437  0.00  0.00    +0.000 A 
ATOM     12  S   UNL     1       0.660  10.194  18.955  0.00  0.00    +0.000 S 
ATOM     13  C   UNL     1       0.009  10.441  20.519  0.00  0.00    +0.000 A 
ATOM     14  N   UNL     1      -0.770  11.511  20.790  0.00  0.00    +0.000 NA
BRANCH  10  15
ATOM     15  N   UNL     1       1.712   7.399  21.409  0.00  0.00    +0.000 N 
ATOM     16  H   UNL     1       2.700   7.194  21.488  0.00  0.00    +0.000 HD
ATOM     17  H   UNL     1       1.096   6.616  21.651  0.00  0.00    +0.000 HD
ENDBRANCH  10  15
ENDBRANCH   1  11
BRANCH   3  18
ATOM     18  C   UNL     1       3.530   5.811  18.266  0.00  0.00    +0.000 A 
ATOM     19  C   UNL     1       3.039   4.717  17.543  0.00  0.00    +0.000 A 
ATOM     20  C   UNL     1       3.893   3.844  16.872  0.00  0.00    +0.000 A 
ATOM     21  C   UNL     1       5.263   4.057  16.907  0.00  0.00    +0.000 A 
ATOM     22  C   UNL     1       5.789   5.156  17.602  0.00  0.00    +0.000 A 
ATOM     23  C   UNL     1       4.910   6.040  18.265  0.00  0.00    +0.000 A 
BRANCH  22  24
ATOM     24  C   UNL     1       7.282   5.368  17.654  0.00  0.00    +0.000 C 
ATOM     25  F   UNL     1       7.762   5.559  18.916  0.00  0.00    +0.000 F 
ATOM     26  F   UNL     1       7.978   4.315  17.148  0.00  0.00    +0.000 F 
ATOM     27  F   UNL     1       7.677   6.459  16.940  0.00  0.00    +0.000 F 
ENDBRANCH  22  24
ENDBRANCH   3  18
TORSDOF 4
ENDMDL
MODEL 4
REMARK VINA RESULT:      -7.6      2.515      3.029
REMARK  Name = 
REMARK  5 active torsions:
REMARK  status: ('A' for Active; 'I' for Inactive)
REMARK    1  A    between atoms: C_1  and  C_2
REMARK    2  A    between atoms: C_6  and  N_7
REMARK    3  A    between atoms: C_8  and  C_9
REMARK    4  A    between atoms: N_11  and  C_12
REMARK    5  A    between atoms: C_16  and  C_17
REMARK                            x       y       z     vdW  Elec       q    Type
REMARK                         _______ _______ _______ _____ _____    ______ ____
ROOT
ATOM      1  C   UNL     1       2.344   8.031  18.474  0.00  0.00    +0.000 C 
ATOM      2  O   UNL     1       2.651   8.382  17.336  0.00  0.00    +0.000 OA
ATOM      3  N   UNL     1       2.703   6.788  18.991  0.00  0.00    +0.000 N 
ATOM      4  H   UNL     1       2.243   6.495  19.843  0.00  0.00    +0.000 HD
ENDROOT
BRANCH   1  11
ATOM      5  C   UNL     1      -1.940  11.853  23.390  0.00  0.00    +0.000 C 
ATOM      6  C   UNL     1      -1.120  11.509  22.178  0.00  0.00    +0.000 A 
ATOM      7  C   UNL     1      -0.966  12.454  21.170  0.00  0.00    +0.000 A 
ATOM      8  C   UNL     1      -0.217  12.129  20.046  0.00  0.00    +0.000 A 
ATOM      9  C   UNL     1       0.362  10.846  19.971  0.00  0.00    +0.000 A 
ATOM     10  C   UNL     1       1.164  10.209  18.981  0.00  0.00    +0.000 A 
ATOM     11  C   UNL     1       1.529   8.912  19.308  0.00  0.00    +0.000 A 
ATOM     12  S   UNL     1       0.899   8.469  20.836  0.00  0.00    +0.000 S 
ATOM     13  C   UNL     1       0.142   9.991  21.043  0.00  0.00    +0.000 A 
ATOM     14  N   UNL     1      -0.578  10.266  22.152  0.00  0.00    +0.000 NA
BRANCH  10  15
ATOM     15  N   UNL     1       1.534  10.813  17.829  0.00  0.00    +0.000 N 
ATOM     16  H   UNL     1       2.055  10.359  17.089  0.00  0.00    +0.000 HD
ATOM     17  H   UNL     1       1.493  11.835  17.751  0.00  0.00    +0.000 HD
ENDBRANCH  10  15
ENDBRANCH   1  11
BRANCH   3  18
ATOM     18  C   UNL     1       3.541   5.855  18.327  0.00  0.00    +0.000 A 
ATOM     19  C   UNL     1       3.033   4.740  17.647  0.00  0.00    +0.000 A 
ATOM     20  C   UNL     1       3.875   3.812  17.039  0.00  0.00    +0.000 A 
ATOM     21  C   UNL     1       5.249   3.988  17.092  0.00  0.00    +0.000 A 
ATOM     22  C   UNL     1       5.793   5.105  17.744  0.00  0.00    +0.000 A 
ATOM     23  C   UNL     1       4.927   6.045  18.345  0.00  0.00    +0.000 A 
BRANCH  22  24
ATOM     24  C   UNL     1       7.290   5.278  17.818  0.00  0.00    +0.000 C 
ATOM     25  F   UNL     1       7.986   4.234  17.283  0.00  0.00    +0.000 F 
ATOM     26  F   UNL     1       7.721   6.388  17.159  0.00  0.00    +0.000 F 
ATOM     27  F   UNL     1       7.737   5.403  19.098  0.00  0.00    +0.000 F 
ENDBRANCH  22  24
ENDBRANCH   3  18
TORSDOF 4
ENDMDL
MODEL 5
REMARK VINA RESULT:      -7.6      1.574      1.809
REMARK  Name = 
REMARK  5 active torsions:
REMARK  status: ('A' for Active; 'I' for Inactive)
REMARK    1  A    between atoms: C_1  and  C_2
REMARK    2  A    between atoms: C_6  and  N_7
REMARK    3  A    between atoms: C_8  and  C_9
REMARK    4  A    between atoms: N_11  and  C_12
REMARK    5  A    between atoms: C_16  and  C_17
REMARK                            x       y       z     vdW  Elec       q    Type
REMARK                         _______ _______ _______ _____ _____    ______ ____
ROOT
ATOM      1  C   UNL     1       1.772   8.800  18.544  0.00  0.00    +0.000 C 
ATOM      2  O   UNL     1       1.724   8.872  17.317  0.00  0.00    +0.000 OA
ATOM      3  N   UNL     1       2.231   7.663  19.205  0.00  0.00    +0.000 N 
ATOM      4  H   UNL     1       2.048   7.605  20.199  0.00  0.00    +0.000 HD
ENDROOT
BRANCH   1  11
ATOM      5  C   UNL     1      -1.079  13.909  23.329  0.00  0.00    +0.000 C 
ATOM      6  C   UNL     1      -0.392  13.292  22.143  0.00  0.00    +0.000 A 
ATOM      7  C   UNL     1       0.106  14.118  21.140  0.00  0.00    +0.000 A 
ATOM      8  C   UNL     1       0.730  13.544  20.040  0.00  0.00    +0.000 A 
ATOM      9  C   UNL     1       0.836  12.140  19.982  0.00  0.00    +0.000 A 
ATOM     10  C   UNL     1       1.398  11.256  19.016  0.00  0.00    +0.000 A 
ATOM     11  C   UNL     1       1.286   9.916  19.353  0.00  0.00    +0.000 A 
ATOM     12  S   UNL     1       0.499   9.732  20.861  0.00  0.00    +0.000 S 
ATOM     13  C   UNL     1       0.305  11.422  21.046  0.00  0.00    +0.000 A 
ATOM     14  N   UNL     1      -0.309  11.939  22.133  0.00  0.00    +0.000 NA
BRANCH  10  15
ATOM     15  N   UNL     1       1.987  11.685  17.876  0.00  0.00    +0.000 N 
ATOM     16  H   UNL     1       1.629  11.502  16.947  0.00  0.00    +0.000 HD
ATOM     17  H   UNL     1       2.952  12.030  17.898  0.00  0.00    +0.000 HD
ENDBRANCH  10  15
ENDBRANCH   1  11
BRANCH   3  18
ATOM     18  C   UNL     1       2.790   6.530  18.558  0.00  0.00    +0.000 A 
ATOM     19  C   UNL     1       3.900   6.622  17.709  0.00  0.00    +0.000 A 
ATOM     20  C   UNL     1       4.407   5.504  17.049  0.00  0.00    +0.000 A 
ATOM     21  C   UNL     1       3.813   4.265  17.235  0.00  0.00    +0.000 A 
ATOM     22  C   UNL     1       2.714   4.131  18.096  0.00  0.00    +0.000 A 
ATOM     23  C   UNL     1       2.219   5.270  18.769  0.00  0.00    +0.000 A 
BRANCH  22  24
ATOM     24  C   UNL     1       2.058   2.784  18.276  0.00  0.00    +0.000 C 
ATOM     25  F   UNL     1       0.696   2.837  18.278  0.00  0.00    +0.000 F 
ATOM     26  F   UNL     1       2.394   1.904  17.295  0.00  0.00    +0.000 F 
ATOM     27  F   UNL     1       2.407   2.189  19.451  0.00  0.00    +0.000 F 
ENDBRANCH  22  24
ENDBRANCH   3  18
TORSDOF 4
ENDMDL
MODEL 6
REMARK VINA RESULT:      -7.5      2.584      3.059
REMARK  Name = 
REMARK  5 active torsions:
REMARK  status: ('A' for Active; 'I' for Inactive)
REMARK    1  A    between atoms: C_1  and  C_2
REMARK    2  A    between atoms: C_6  and  N_7
REMARK    3  A    between atoms: C_8  and  C_9
REMARK    4  A    between atoms: N_11  and  C_12
REMARK    5  A    between atoms: C_16  and  C_17
REMARK                            x       y       z     vdW  Elec       q    Type
REMARK                         _______ _______ _______ _____ _____    ______ ____
ROOT
ATOM      1  C   UNL     1       2.214   8.296  18.278  0.00  0.00    +0.000 C 
ATOM      2  O   UNL     1       2.342   8.508  17.073  0.00  0.00    +0.000 OA
ATOM      3  N   UNL     1       2.623   7.103  18.870  0.00  0.00    +0.000 N 
ATOM      4  H   UNL     1       2.298   6.924  19.813  0.00  0.00    +0.000 HD
ENDROOT
BRANCH   1  11
ATOM      5  C   UNL     1      -1.388  12.739  23.219  0.00  0.00    +0.000 C 
ATOM      6  C   UNL     1      -0.609  12.277  22.019  0.00  0.00    +0.000 A 
ATOM      7  C   UNL     1      -0.228  13.206  21.056  0.00  0.00    +0.000 A 
ATOM      8  C   UNL     1       0.482  12.774  19.943  0.00  0.00    +0.000 A 
ATOM      9  C   UNL     1       0.790  11.403  19.832  0.00  0.00    +0.000 A 
ATOM     10  C   UNL     1       1.483  10.650  18.840  0.00  0.00    +0.000 A 
ATOM     11  C   UNL     1       1.564   9.296  19.123  0.00  0.00    +0.000 A 
ATOM     12  S   UNL     1       0.799   8.938  20.611  0.00  0.00    +0.000 S 
ATOM     13  C   UNL     1       0.360  10.573  20.860  0.00  0.00    +0.000 A 
ATOM     14  N   UNL     1      -0.331  10.952  21.957  0.00  0.00    +0.000 NA
BRANCH  10  15
ATOM     15  N   UNL     1       2.013  11.206  17.727  0.00  0.00    +0.000 N 
ATOM     16  H   UNL     1       2.454  12.117  17.700  0.00  0.00    +0.000 HD
ATOM     17  H   UNL     1       1.790  10.816  16.805  0.00  0.00    +0.000 HD
ENDBRANCH  10  15
ENDBRANCH   1  11
BRANCH   3  18
ATOM     18  C   UNL     1       3.321   6.070  18.194  0.00  0.00    +0.000 A 
ATOM     19  C   UNL     1       2.723   4.844  17.873  0.00  0.00    +0.000 A 
ATOM     20  C   UNL     1       3.438   3.826  17.248  0.00  0.00    +0.000 A 
ATOM     21  C   UNL     1       4.773   4.019  16.922  0.00  0.00    +0.000 A 
ATOM     22  C   UNL     1       5.398   5.242  17.208  0.00  0.00    +0.000 A 
ATOM     23  C   UNL     1       4.657   6.270  17.829  0.00  0.00    +0.000 A 
BRANCH  22  24
ATOM     24  C   UNL     1       6.857   5.437  16.871  0.00  0.00    +0.000 C 
ATOM     25  F   UNL     1       7.343   6.656  17.242  0.00  0.00    +0.000 F 
ATOM     26  F   UNL     1       7.660   4.518  17.472  0.00  0.00    +0.000 F 
ATOM     27  F   UNL     1       7.100   5.334  15.535  0.00  0.00    +0.000 F 
ENDBRANCH  22  24
ENDBRANCH   3  18
TORSDOF 4
ENDMDL
MODEL 7
REMARK VINA RESULT:      -7.3      2.645      3.137
REMARK  Name = 
REMARK  5 active torsions:
REMARK  status: ('A' for Active; 'I' for Inactive)
REMARK    1  A    between atoms: C_1  and  C_2
REMARK    2  A    between atoms: C_6  and  N_7
REMARK    3  A    between atoms: C_8  and  C_9
REMARK    4  A    between atoms: N_11  and  C_12
REMARK    5  A    between atoms: C_16  and  C_17
REMARK                            x       y       z     vdW  Elec       q    Type
REMARK                         _______ _______ _______ _____ _____    ______ ____
ROOT
ATOM      1  C   UNL     1       1.943   8.491  18.439  0.00  0.00    +0.000 C 
ATOM      2  O   UNL     1       2.264   8.865  17.311  0.00  0.00    +0.000 OA
ATOM      3  N   UNL     1       2.288   7.235  18.932  0.00  0.00    +0.000 N 
ATOM      4  H   UNL     1       1.818   6.928  19.774  0.00  0.00    +0.000 HD
ENDROOT
BRANCH   1  11
ATOM      5  C   UNL     1      -1.778  12.640  23.545  0.00  0.00    +0.000 C 
ATOM      6  C   UNL     1      -1.341  12.041  22.236  0.00  0.00    +0.000 A 
ATOM      7  C   UNL     1      -2.001  12.405  21.068  0.00  0.00    +0.000 A 
ATOM      8  C   UNL     1      -1.602  11.842  19.862  0.00  0.00    +0.000 A 
ATOM      9  C   UNL     1      -0.537  10.919  19.870  0.00  0.00    +0.000 A 
ATOM     10  C   UNL     1       0.099  10.175  18.835  0.00  0.00    +0.000 A 
ATOM     11  C   UNL     1       1.128   9.361  19.283  0.00  0.00    +0.000 A 
ATOM     12  S   UNL     1       1.328   9.511  20.976  0.00  0.00    +0.000 S 
ATOM     13  C   UNL     1       0.047  10.639  21.099  0.00  0.00    +0.000 A 
ATOM     14  N   UNL     1      -0.310  11.163  22.292  0.00  0.00    +0.000 NA
BRANCH  10  15
ATOM     15  N   UNL     1      -0.268  10.255  17.536  0.00  0.00    +0.000 N 
ATOM     16  H   UNL     1       0.317   9.968  16.760  0.00  0.00    +0.000 HD
ATOM     17  H   UNL     1      -1.078  10.823  17.267  0.00  0.00    +0.000 HD
ENDBRANCH  10  15
ENDBRANCH   1  11
BRANCH   3  18
ATOM     18  C   UNL     1       3.125   6.310  18.256  0.00  0.00    +0.000 A 
ATOM     19  C   UNL     1       2.678   5.041  17.863  0.00  0.00    +0.000 A 
ATOM     20  C   UNL     1       3.528   4.131  17.239  0.00  0.00    +0.000 A 
ATOM     21  C   UNL     1       4.847   4.478  16.987  0.00  0.00    +0.000 A 
ATOM     22  C   UNL     1       5.323   5.748  17.346  0.00  0.00    +0.000 A 
ATOM     23  C   UNL     1       4.446   6.666  17.965  0.00  0.00    +0.000 A 
BRANCH  22  24
ATOM     24  C   UNL     1       6.765   6.111  17.089  0.00  0.00    +0.000 C 
ATOM     25  F   UNL     1       7.009   7.452  17.154  0.00  0.00    +0.000 F 
ATOM     26  F   UNL     1       7.616   5.536  17.981  0.00  0.00    +0.000 F 
ATOM     27  F   UNL     1       7.188   5.718  15.856  0.00  0.00    +0.000 F 
ENDBRANCH  22  24
ENDBRANCH   3  18
TORSDOF 4
ENDMDL
MODEL 8
REMARK VINA RESULT:      -7.3      2.805      3.506
REMARK  Name = 
REMARK  5 active torsions:
REMARK  status: ('A' for Active; 'I' for Inactive)
REMARK    1  A    between atoms: C_1  and  C_2
REMARK    2  A    between atoms: C_6  and  N_7
REMARK    3  A    between atoms: C_8  and  C_9
REMARK    4  A    between atoms: N_11  and  C_12
REMARK    5  A    between atoms: C_16  and  C_17
REMARK                            x       y       z     vdW  Elec       q    Type
REMARK                         _______ _______ _______ _____ _____    ______ ____
ROOT
ATOM      1  C   UNL     1       2.224   7.406  19.343  0.00  0.00    +0.000 C 
ATOM      2  O   UNL     1       2.204   6.511  20.187  0.00  0.00    +0.000 OA
ATOM      3  N   UNL     1       2.915   7.277  18.140  0.00  0.00    +0.000 N 
ATOM      4  H   UNL     1       3.054   8.122  17.599  0.00  0.00    +0.000 HD
ENDROOT
BRANCH   1  11
ATOM      5  C   UNL     1      -1.195  14.129  19.824  0.00  0.00    +0.000 C 
ATOM      6  C   UNL     1      -0.589  12.805  20.201  0.00  0.00    +0.000 A 
ATOM      7  C   UNL     1      -0.554  12.430  21.539  0.00  0.00    +0.000 A 
ATOM      8  C   UNL     1       0.017  11.211  21.885  0.00  0.00    +0.000 A 
ATOM      9  C   UNL     1       0.540  10.398  20.860  0.00  0.00    +0.000 A 
ATOM     10  C   UNL     1       1.180   9.125  20.874  0.00  0.00    +0.000 A 
ATOM     11  C   UNL     1       1.550   8.673  19.617  0.00  0.00    +0.000 A 
ATOM     12  S   UNL     1       1.106   9.800  18.409  0.00  0.00    +0.000 S 
ATOM     13  C   UNL     1       0.441  10.878  19.560  0.00  0.00    +0.000 A 
ATOM     14  N   UNL     1      -0.104  12.055  19.181  0.00  0.00    +0.000 NA
BRANCH  10  15
ATOM     15  N   UNL     1       1.406   8.425  22.009  0.00  0.00    +0.000 N 
ATOM     16  H   UNL     1       2.275   8.447  22.528  0.00  0.00    +0.000 HD
ATOM     17  H   UNL     1       0.775   7.661  22.273  0.00  0.00    +0.000 HD
ENDBRANCH  10  15
ENDBRANCH   1  11
BRANCH   3  18
ATOM     18  C   UNL     1       3.561   6.090  17.708  0.00  0.00    +0.000 A 
ATOM     19  C   UNL     1       2.887   4.868  17.593  0.00  0.00    +0.000 A 
ATOM     20  C   UNL     1       3.550   3.704  17.210  0.00  0.00    +0.000 A 
ATOM     21  C   UNL     1       4.907   3.745  16.924  0.00  0.00    +0.000 A 
ATOM     22  C   UNL     1       5.609   4.956  17.007  0.00  0.00    +0.000 A 
ATOM     23  C   UNL     1       4.922   6.130  17.384  0.00  0.00    +0.000 A 
BRANCH  22  24
ATOM     24  C   UNL     1       7.090   4.988  16.717  0.00  0.00    +0.000 C 
ATOM     25  F   UNL     1       7.837   4.290  17.619  0.00  0.00    +0.000 F 
ATOM     26  F   UNL     1       7.396   4.466  15.499  0.00  0.00    +0.000 F 
ATOM     27  F   UNL     1       7.593   6.254  16.721  0.00  0.00    +0.000 F 
ENDBRANCH  22  24
ENDBRANCH   3  18
TORSDOF 4
ENDMDL
MODEL 9
REMARK VINA RESULT:      -7.3      1.328      1.712
REMARK  Name = 
REMARK  5 active torsions:
REMARK  status: ('A' for Active; 'I' for Inactive)
REMARK    1  A    between atoms: C_1  and  C_2
REMARK    2  A    between atoms: C_6  and  N_7
REMARK    3  A    between atoms: C_8  and  C_9
REMARK    4  A    between atoms: N_11  and  C_12
REMARK    5  A    between atoms: C_16  and  C_17
REMARK                            x       y       z     vdW  Elec       q    Type
REMARK                         _______ _______ _______ _____ _____    ______ ____
ROOT
ATOM      1  C   UNL     1       1.848   7.413  20.195  0.00  0.00    +0.000 C 
ATOM      2  O   UNL     1       2.676   7.421  19.285  0.00  0.00    +0.000 OA
ATOM      3  N   UNL     1       1.439   6.236  20.817  0.00  0.00    +0.000 N 
ATOM      4  H   UNL     1       0.616   6.290  21.404  0.00  0.00    +0.000 HD
ENDROOT
BRANCH   1  11
ATOM      5  C   UNL     1      -1.329  13.551  23.255  0.00  0.00    +0.000 C 
ATOM      6  C   UNL     1      -0.776  12.582  22.247  0.00  0.00    +0.000 A 
ATOM      7  C   UNL     1      -0.832  12.902  20.895  0.00  0.00    +0.000 A 
ATOM      8  C   UNL     1      -0.329  11.999  19.966  0.00  0.00    +0.000 A 
ATOM      9  C   UNL     1       0.220  10.788  20.432  0.00  0.00    +0.000 A 
ATOM     10  C   UNL     1       0.801   9.673  19.761  0.00  0.00    +0.000 A 
ATOM     11  C   UNL     1       1.223   8.666  20.614  0.00  0.00    +0.000 A 
ATOM     12  S   UNL     1       0.920   9.083  22.246  0.00  0.00    +0.000 S 
ATOM     13  C   UNL     1       0.224  10.584  21.806  0.00  0.00    +0.000 A 
ATOM     14  N   UNL     1      -0.253  11.433  22.742  0.00  0.00    +0.000 NA
BRANCH  10  15
ATOM     15  N   UNL     1       0.927   9.605  18.416  0.00  0.00    +0.000 N 
ATOM     16  H   UNL     1       0.754   8.770  17.870  0.00  0.00    +0.000 HD
ATOM     17  H   UNL     1       1.424  10.346  17.911  0.00  0.00    +0.000 HD
ENDBRANCH  10  15
ENDBRANCH   1  11
BRANCH   3  18
ATOM     18  C   UNL     1       1.998   4.958  20.562  0.00  0.00    +0.000 A 
ATOM     19  C   UNL     1       2.197   4.009  21.573  0.00  0.00    +0.000 A 
ATOM     20  C   UNL     1       2.788   2.776  21.310  0.00  0.00    +0.000 A 
ATOM     21  C   UNL     1       3.186   2.463  20.018  0.00  0.00    +0.000 A 
ATOM     22  C   UNL     1       2.982   3.379  18.976  0.00  0.00    +0.000 A 
ATOM     23  C   UNL     1       2.369   4.620  19.255  0.00  0.00    +0.000 A 
BRANCH  22  24
ATOM     24  C   UNL     1       3.438   3.041  17.577  0.00  0.00    +0.000 C 
ATOM     25  F   UNL     1       3.846   1.748  17.435  0.00  0.00    +0.000 F 
ATOM     26  F   UNL     1       2.460   3.226  16.650  0.00  0.00    +0.000 F 
ATOM     27  F   UNL     1       4.489   3.807  17.174  0.00  0.00    +0.000 F 
ENDBRANCH  22  24
ENDBRANCH   3  18
TORSDOF 4
ENDMDL
