MODEL 1
REMARK VINA RESULT:      -7.0      0.000      0.000
REMARK  Name = 
REMARK  14 active torsions:
REMARK  status: ('A' for Active; 'I' for Inactive)
REMARK    1  A    between atoms: C_1  and  C_2
REMARK    2  A    between atoms: C_2  and  C_3
REMARK    3  A    between atoms: C_2  and  C_4
REMARK    4  A    between atoms: C_4  and  C_5
REMARK    5  A    between atoms: C_5  and  N_6
REMARK    6  A    between atoms: C_7  and  C_9
REMARK    7  A    between atoms: C_9  and  C_10
REMARK    8  A    between atoms: C_10  and  C_11
REMARK    9  A    between atoms: C_11  and  C_12
REMARK   10  A    between atoms: C_11  and  C_13
REMARK   11  A    between atoms: C_18  and  O_19
REMARK   12  A    between atoms: C_23  and  O_24
REMARK   13  A    between atoms: C_27  and  C_28
REMARK   14  A    between atoms: C_32  and  C_33
REMARK                            x       y       z     vdW  Elec       q    Type
REMARK                         _______ _______ _______ _____ _____    ______ ____
ROOT
ATOM      1  C   UNL     1       0.626  10.538  18.732  0.00  0.00    +0.000 C 
ATOM      2  C   UNL     1      -0.754  10.472  19.446  0.00  0.00    +0.000 C 
ATOM      3  C   UNL     1      -1.147  11.911  19.813  0.00  0.00    +0.000 C 
ATOM      4  C   UNL     1      -0.134  12.781  19.077  0.00  0.00    +0.000 C 
ATOM      5  C   UNL     1       0.092  14.229  19.550  0.00  0.00    +0.000 C 
ATOM      6  C   UNL     1      -1.172  15.110  19.473  0.00  0.00    +0.000 C 
ATOM      7  C   UNL     1      -0.884  16.538  19.946  0.00  0.00    +0.000 C 
ATOM      8  C   UNL     1       0.288  17.214  19.215  0.00  0.00    +0.000 C 
ATOM      9  C   UNL     1      -0.150  17.624  17.793  0.00  0.00    +0.000 C 
ATOM     10  C   UNL     1       0.981  18.276  17.003  0.00  0.00    +0.000 C 
ATOM     11  C   UNL     1       2.201  17.368  16.939  0.00  0.00    +0.000 C 
ATOM     12  C   UNL     1       2.672  17.021  18.347  0.00  0.00    +0.000 C 
ATOM     13  C   UNL     1       1.581  16.334  19.220  0.00  0.00    +0.000 C 
ATOM     14  C   UNL     1       2.157  16.276  20.661  0.00  0.00    +0.000 C 
ATOM     15  C   UNL     1       1.225  14.895  18.698  0.00  0.00    +0.000 C 
ATOM     16  C   UNL     1       2.467  14.005  18.492  0.00  0.00    +0.000 C 
ATOM     17  C   UNL     1       2.127  12.567  18.122  0.00  0.00    +0.000 C 
ATOM     18  C   UNL     1       1.166  11.936  19.139  0.00  0.00    +0.000 C 
ATOM     19  C   UNL     1       1.792  11.886  20.559  0.00  0.00    +0.000 C 
ENDROOT
BRANCH   1  20
ATOM     20  C   UNL     1       1.538   9.307  19.024  0.00  0.00    +0.000 C 
ATOM     21  C   UNL     1       2.014   8.615  17.738  0.00  0.00    +0.000 C 
BRANCH  20  22
ATOM     22  C   UNL     1       0.797   8.295  19.916  0.00  0.00    +0.000 C 
BRANCH  22  23
ATOM     23  C   UNL     1       1.673   7.643  20.990  0.00  0.00    +0.000 C 
BRANCH  23  25
ATOM     24  N   UNL     1       3.252   6.068  20.050  0.00  0.00    +0.000 N 
ATOM     25  C   UNL     1       2.001   6.220  20.592  0.00  0.00    +0.000 C 
ATOM     26  O   UNL     1       1.214   5.290  20.728  0.00  0.00    +0.000 OA
ATOM     27  H   UNL     1       3.827   6.884  19.866  0.00  0.00    +0.000 HD
BRANCH  24  28
ATOM     28  C   UNL     1       3.674   4.778  19.555  0.00  0.00    +0.000 C 
BRANCH  28  29
ATOM     29  C   UNL     1       3.770   4.740  18.026  0.00  0.00    +0.000 C 
BRANCH  29  31
ATOM     30  C   UNL     1       2.985   2.322  17.935  0.00  0.00    +0.000 C 
ATOM     31  C   UNL     1       2.818   3.728  17.358  0.00  0.00    +0.000 C 
ATOM     32  C   UNL     1       1.363   4.179  17.519  0.00  0.00    +0.000 C 
ENDBRANCH  29  31
ENDBRANCH  28  29
ENDBRANCH  24  28
ENDBRANCH  23  25
ENDBRANCH  22  23
ENDBRANCH  20  22
ENDBRANCH   1  20
BRANCH   6  33
ATOM     33  O   UNL     1      -2.229  14.588  20.270  0.00  0.00    +0.000 OA
ATOM     34  H   UNL     1      -2.341  13.654  20.047  0.00  0.00    +0.000 HD
ENDBRANCH   6  33
BRANCH  10  35
ATOM     35  O   UNL     1       0.536  18.579  15.687  0.00  0.00    +0.000 OA
ATOM     36  H   UNL     1      -0.423  18.729  15.718  0.00  0.00    +0.000 HD
ENDBRANCH  10  35
TORSDOF 9
ENDMDL
MODEL 2
REMARK VINA RESULT:      -6.9      3.497      5.225
REMARK  Name = 
REMARK  14 active torsions:
REMARK  status: ('A' for Active; 'I' for Inactive)
REMARK    1  A    between atoms: C_1  and  C_2
REMARK    2  A    between atoms: C_2  and  C_3
REMARK    3  A    between atoms: C_2  and  C_4
REMARK    4  A    between atoms: C_4  and  C_5
REMARK    5  A    between atoms: C_5  and  N_6
REMARK    6  A    between atoms: C_7  and  C_9
REMARK    7  A    between atoms: C_9  and  C_10
REMARK    8  A    between atoms: C_10  and  C_11
REMARK    9  A    between atoms: C_11  and  C_12
REMARK   10  A    between atoms: C_11  and  C_13
REMARK   11  A    between atoms: C_18  and  O_19
REMARK   12  A    between atoms: C_23  and  O_24
REMARK   13  A    between atoms: C_27  and  C_28
REMARK   14  A    between atoms: C_32  and  C_33
REMARK                            x       y       z     vdW  Elec       q    Type
REMARK                         _______ _______ _______ _____ _____    ______ ____
ROOT
ATOM      1  C   UNL     1      -0.387  12.294  19.361  0.00  0.00    +0.000 C 
ATOM      2  C   UNL     1      -1.512  11.820  18.396  0.00  0.00    +0.000 C 
ATOM      3  C   UNL     1      -2.853  12.053  19.110  0.00  0.00    +0.000 C 
ATOM      4  C   UNL     1      -2.492  12.888  20.333  0.00  0.00    +0.000 C 
ATOM      5  C   UNL     1      -3.468  12.932  21.523  0.00  0.00    +0.000 C 
ATOM      6  C   UNL     1      -4.855  13.507  21.166  0.00  0.00    +0.000 C 
ATOM      7  C   UNL     1      -5.777  13.534  22.388  0.00  0.00    +0.000 C 
ATOM      8  C   UNL     1      -5.185  14.273  23.600  0.00  0.00    +0.000 C 
ATOM      9  C   UNL     1      -5.230  15.796  23.359  0.00  0.00    +0.000 C 
ATOM     10  C   UNL     1      -4.628  16.585  24.518  0.00  0.00    +0.000 C 
ATOM     11  C   UNL     1      -3.202  16.137  24.806  0.00  0.00    +0.000 C 
ATOM     12  C   UNL     1      -3.172  14.645  25.112  0.00  0.00    +0.000 C 
ATOM     13  C   UNL     1      -3.755  13.759  23.971  0.00  0.00    +0.000 C 
ATOM     14  C   UNL     1      -3.859  12.323  24.551  0.00  0.00    +0.000 C 
ATOM     15  C   UNL     1      -2.853  13.784  22.685  0.00  0.00    +0.000 C 
ATOM     16  C   UNL     1      -1.372  13.469  22.982  0.00  0.00    +0.000 C 
ATOM     17  C   UNL     1      -0.514  13.351  21.729  0.00  0.00    +0.000 C 
ATOM     18  C   UNL     1      -1.100  12.333  20.740  0.00  0.00    +0.000 C 
ATOM     19  C   UNL     1      -1.168  10.912  21.358  0.00  0.00    +0.000 C 
ENDROOT
BRANCH   1  20
ATOM     20  C   UNL     1       0.920  11.450  19.256  0.00  0.00    +0.000 C 
ATOM     21  C   UNL     1       2.063  12.225  18.587  0.00  0.00    +0.000 C 
BRANCH  20  22
ATOM     22  C   UNL     1       0.651  10.147  18.481  0.00  0.00    +0.000 C 
BRANCH  22  23
ATOM     23  C   UNL     1       1.916   9.389  18.067  0.00  0.00    +0.000 C 
BRANCH  23  25
ATOM     24  N   UNL     1       2.471   7.036  18.191  0.00  0.00    +0.000 N 
ATOM     25  C   UNL     1       2.059   8.135  18.902  0.00  0.00    +0.000 C 
ATOM     26  O   UNL     1       1.816   8.101  20.104  0.00  0.00    +0.000 OA
ATOM     27  H   UNL     1       2.562   7.091  17.182  0.00  0.00    +0.000 HD
BRANCH  24  28
ATOM     28  C   UNL     1       2.578   5.751  18.843  0.00  0.00    +0.000 C 
BRANCH  28  29
ATOM     29  C   UNL     1       2.215   4.590  17.913  0.00  0.00    +0.000 C 
BRANCH  29  31
ATOM     30  C   UNL     1       1.954   2.129  18.501  0.00  0.00    +0.000 C 
ATOM     31  C   UNL     1       1.318   3.517  18.562  0.00  0.00    +0.000 C 
ATOM     32  C   UNL     1       1.021   3.882  20.019  0.00  0.00    +0.000 C 
ENDBRANCH  29  31
ENDBRANCH  28  29
ENDBRANCH  24  28
ENDBRANCH  23  25
ENDBRANCH  22  23
ENDBRANCH  20  22
ENDBRANCH   1  20
BRANCH   6  33
ATOM     33  O   UNL     1      -5.496  12.746  20.149  0.00  0.00    +0.000 OA
ATOM     34  H   UNL     1      -5.927  11.987  20.567  0.00  0.00    +0.000 HD
ENDBRANCH   6  33
BRANCH  10  35
ATOM     35  O   UNL     1      -4.645  17.974  24.213  0.00  0.00    +0.000 OA
ATOM     36  H   UNL     1      -5.564  18.237  24.042  0.00  0.00    +0.000 HD
ENDBRANCH  10  35
TORSDOF 9
ENDMDL
MODEL 3
REMARK VINA RESULT:      -6.9      3.403      4.673
REMARK  Name = 
REMARK  14 active torsions:
REMARK  status: ('A' for Active; 'I' for Inactive)
REMARK    1  A    between atoms: C_1  and  C_2
REMARK    2  A    between atoms: C_2  and  C_3
REMARK    3  A    between atoms: C_2  and  C_4
REMARK    4  A    between atoms: C_4  and  C_5
REMARK    5  A    between atoms: C_5  and  N_6
REMARK    6  A    between atoms: C_7  and  C_9
REMARK    7  A    between atoms: C_9  and  C_10
REMARK    8  A    between atoms: C_10  and  C_11
REMARK    9  A    between atoms: C_11  and  C_12
REMARK   10  A    between atoms: C_11  and  C_13
REMARK   11  A    between atoms: C_18  and  O_19
REMARK   12  A    between atoms: C_23  and  O_24
REMARK   13  A    between atoms: C_27  and  C_28
REMARK   14  A    between atoms: C_32  and  C_33
REMARK                            x       y       z     vdW  Elec       q    Type
REMARK                         _______ _______ _______ _____ _____    ______ ____
ROOT
ATOM      1  C   UNL     1      -0.055  11.387  18.642  0.00  0.00    +0.000 C 
ATOM      2  C   UNL     1      -1.177  10.693  17.817  0.00  0.00    +0.000 C 
ATOM      3  C   UNL     1      -2.512  11.002  18.513  0.00  0.00    +0.000 C 
ATOM      4  C   UNL     1      -2.164  12.067  19.547  0.00  0.00    +0.000 C 
ATOM      5  C   UNL     1      -3.116  12.296  20.735  0.00  0.00    +0.000 C 
ATOM      6  C   UNL     1      -4.535  12.735  20.317  0.00  0.00    +0.000 C 
ATOM      7  C   UNL     1      -5.431  12.956  21.538  0.00  0.00    +0.000 C 
ATOM      8  C   UNL     1      -4.849  13.934  22.572  0.00  0.00    +0.000 C 
ATOM      9  C   UNL     1      -4.968  15.380  22.049  0.00  0.00    +0.000 C 
ATOM     10  C   UNL     1      -4.379  16.399  23.021  0.00  0.00    +0.000 C 
ATOM     11  C   UNL     1      -2.929  16.073  23.346  0.00  0.00    +0.000 C 
ATOM     12  C   UNL     1      -2.824  14.668  23.927  0.00  0.00    +0.000 C 
ATOM     13  C   UNL     1      -3.389  13.559  22.991  0.00  0.00    +0.000 C 
ATOM     14  C   UNL     1      -3.414  12.255  23.834  0.00  0.00    +0.000 C 
ATOM     15  C   UNL     1      -2.516  13.377  21.697  0.00  0.00    +0.000 C 
ATOM     16  C   UNL     1      -1.016  13.186  22.004  0.00  0.00    +0.000 C 
ATOM     17  C   UNL     1      -0.181  12.867  20.771  0.00  0.00    +0.000 C 
ATOM     18  C   UNL     1      -0.740  11.658  20.009  0.00  0.00    +0.000 C 
ATOM     19  C   UNL     1      -0.730  10.377  20.886  0.00  0.00    +0.000 C 
ENDROOT
BRANCH   1  20
ATOM     20  C   UNL     1       1.287  10.593  18.659  0.00  0.00    +0.000 C 
ATOM     21  C   UNL     1       2.445  11.391  18.044  0.00  0.00    +0.000 C 
BRANCH  20  22
ATOM     22  C   UNL     1       1.123   9.255  17.915  0.00  0.00    +0.000 C 
BRANCH  22  23
ATOM     23  C   UNL     1       2.437   8.510  17.663  0.00  0.00    +0.000 C 
BRANCH  23  25
ATOM     24  N   UNL     1       3.252   6.284  18.149  0.00  0.00    +0.000 N 
ATOM     25  C   UNL     1       2.580   7.370  18.648  0.00  0.00    +0.000 C 
ATOM     26  O   UNL     1       2.122   7.409  19.786  0.00  0.00    +0.000 OA
ATOM     27  H   UNL     1       3.523   6.261  17.171  0.00  0.00    +0.000 HD
BRANCH  24  28
ATOM     28  C   UNL     1       3.397   5.092  18.953  0.00  0.00    +0.000 C 
BRANCH  28  29
ATOM     29  C   UNL     1       2.584   3.914  18.406  0.00  0.00    +0.000 C 
BRANCH  29  31
ATOM     30  C   UNL     1       1.078   4.039  20.452  0.00  0.00    +0.000 C 
ATOM     31  C   UNL     1       1.821   3.118  19.485  0.00  0.00    +0.000 C 
ATOM     32  C   UNL     1       0.828   2.152  18.832  0.00  0.00    +0.000 C 
ENDBRANCH  29  31
ENDBRANCH  28  29
ENDBRANCH  24  28
ENDBRANCH  23  25
ENDBRANCH  22  23
ENDBRANCH  20  22
ENDBRANCH   1  20
BRANCH   6  33
ATOM     33  O   UNL     1      -5.161  11.770  19.481  0.00  0.00    +0.000 OA
ATOM     34  H   UNL     1      -5.665  12.241  18.801  0.00  0.00    +0.000 HD
ENDBRANCH   6  33
BRANCH  10  35
ATOM     35  O   UNL     1      -4.466  17.703  22.460  0.00  0.00    +0.000 OA
ATOM     36  H   UNL     1      -3.912  17.729  21.663  0.00  0.00    +0.000 HD
ENDBRANCH  10  35
TORSDOF 9
ENDMDL
MODEL 4
REMARK VINA RESULT:      -6.6      3.402      4.983
REMARK  Name = 
REMARK  14 active torsions:
REMARK  status: ('A' for Active; 'I' for Inactive)
REMARK    1  A    between atoms: C_1  and  C_2
REMARK    2  A    between atoms: C_2  and  C_3
REMARK    3  A    between atoms: C_2  and  C_4
REMARK    4  A    between atoms: C_4  and  C_5
REMARK    5  A    between atoms: C_5  and  N_6
REMARK    6  A    between atoms: C_7  and  C_9
REMARK    7  A    between atoms: C_9  and  C_10
REMARK    8  A    between atoms: C_10  and  C_11
REMARK    9  A    between atoms: C_11  and  C_12
REMARK   10  A    between atoms: C_11  and  C_13
REMARK   11  A    between atoms: C_18  and  O_19
REMARK   12  A    between atoms: C_23  and  O_24
REMARK   13  A    between atoms: C_27  and  C_28
REMARK   14  A    between atoms: C_32  and  C_33
REMARK                            x       y       z     vdW  Elec       q    Type
REMARK                         _______ _______ _______ _____ _____    ______ ____
ROOT
ATOM      1  C   UNL     1      -0.084  11.858  18.996  0.00  0.00    +0.000 C 
ATOM      2  C   UNL     1      -1.140  11.162  18.090  0.00  0.00    +0.000 C 
ATOM      3  C   UNL     1      -2.517  11.401  18.728  0.00  0.00    +0.000 C 
ATOM      4  C   UNL     1      -2.257  12.437  19.817  0.00  0.00    +0.000 C 
ATOM      5  C   UNL     1      -3.274  12.589  20.962  0.00  0.00    +0.000 C 
ATOM      6  C   UNL     1      -4.684  13.000  20.489  0.00  0.00    +0.000 C 
ATOM      7  C   UNL     1      -5.647  13.146  21.669  0.00  0.00    +0.000 C 
ATOM      8  C   UNL     1      -5.150  14.101  22.767  0.00  0.00    +0.000 C 
ATOM      9  C   UNL     1      -5.291  15.562  22.292  0.00  0.00    +0.000 C 
ATOM     10  C   UNL     1      -4.785  16.561  23.330  0.00  0.00    +0.000 C 
ATOM     11  C   UNL     1      -3.343  16.267  23.717  0.00  0.00    +0.000 C 
ATOM     12  C   UNL     1      -3.221  14.845  24.250  0.00  0.00    +0.000 C 
ATOM     13  C   UNL     1      -3.701  13.756  23.246  0.00  0.00    +0.000 C 
ATOM     14  C   UNL     1      -3.726  12.421  24.038  0.00  0.00    +0.000 C 
ATOM     15  C   UNL     1      -2.759  13.651  21.993  0.00  0.00    +0.000 C 
ATOM     16  C   UNL     1      -1.271  13.495  22.369  0.00  0.00    +0.000 C 
ATOM     17  C   UNL     1      -0.365  13.251  21.170  0.00  0.00    +0.000 C 
ATOM     18  C   UNL     1      -0.845  12.054  20.336  0.00  0.00    +0.000 C 
ATOM     19  C   UNL     1      -0.836  10.742  21.164  0.00  0.00    +0.000 C 
ENDROOT
BRANCH   1  20
ATOM     20  C   UNL     1       1.281  11.106  19.053  0.00  0.00    +0.000 C 
ATOM     21  C   UNL     1       2.363  11.796  18.212  0.00  0.00    +0.000 C 
BRANCH  20  22
ATOM     22  C   UNL     1       1.106   9.650  18.585  0.00  0.00    +0.000 C 
BRANCH  22  23
ATOM     23  C   UNL     1       2.275   9.112  17.754  0.00  0.00    +0.000 C 
BRANCH  23  25
ATOM     24  N   UNL     1       2.186   7.413  19.474  0.00  0.00    +0.000 N 
ATOM     25  C   UNL     1       2.633   7.716  18.213  0.00  0.00    +0.000 C 
ATOM     26  O   UNL     1       3.276   6.930  17.525  0.00  0.00    +0.000 OA
ATOM     27  H   UNL     1       1.746   8.130  20.041  0.00  0.00    +0.000 HD
BRANCH  24  28
ATOM     28  C   UNL     1       2.519   6.140  20.073  0.00  0.00    +0.000 C 
BRANCH  28  29
ATOM     29  C   UNL     1       1.299   5.442  20.681  0.00  0.00    +0.000 C 
BRANCH  29  31
ATOM     30  C   UNL     1       1.747   3.675  18.907  0.00  0.00    +0.000 C 
ATOM     31  C   UNL     1       1.161   3.957  20.290  0.00  0.00    +0.000 C 
ATOM     32  C   UNL     1       1.848   3.066  21.329  0.00  0.00    +0.000 C 
ENDBRANCH  29  31
ENDBRANCH  28  29
ENDBRANCH  24  28
ENDBRANCH  23  25
ENDBRANCH  22  23
ENDBRANCH  20  22
ENDBRANCH   1  20
BRANCH   6  33
ATOM     33  O   UNL     1      -5.236  12.048  19.586  0.00  0.00    +0.000 OA
ATOM     34  H   UNL     1      -6.156  12.294  19.414  0.00  0.00    +0.000 HD
ENDBRANCH   6  33
BRANCH  10  35
ATOM     35  O   UNL     1      -4.887  17.882  22.814  0.00  0.00    +0.000 OA
ATOM     36  H   UNL     1      -4.942  18.497  23.563  0.00  0.00    +0.000 HD
ENDBRANCH  10  35
TORSDOF 9
ENDMDL
MODEL 5
REMARK VINA RESULT:      -6.6      3.338      4.915
REMARK  Name = 
REMARK  14 active torsions:
REMARK  status: ('A' for Active; 'I' for Inactive)
REMARK    1  A    between atoms: C_1  and  C_2
REMARK    2  A    between atoms: C_2  and  C_3
REMARK    3  A    between atoms: C_2  and  C_4
REMARK    4  A    between atoms: C_4  and  C_5
REMARK    5  A    between atoms: C_5  and  N_6
REMARK    6  A    between atoms: C_7  and  C_9
REMARK    7  A    between atoms: C_9  and  C_10
REMARK    8  A    between atoms: C_10  and  C_11
REMARK    9  A    between atoms: C_11  and  C_12
REMARK   10  A    between atoms: C_11  and  C_13
REMARK   11  A    between atoms: C_18  and  O_19
REMARK   12  A    between atoms: C_23  and  O_24
REMARK   13  A    between atoms: C_27  and  C_28
REMARK   14  A    between atoms: C_32  and  C_33
REMARK                            x       y       z     vdW  Elec       q    Type
REMARK                         _______ _______ _______ _____ _____    ______ ____
ROOT
ATOM      1  C   UNL     1      -0.208  11.955  18.967  0.00  0.00    +0.000 C 
ATOM      2  C   UNL     1      -1.328  11.371  18.059  0.00  0.00    +0.000 C 
ATOM      3  C   UNL     1      -2.669  11.626  18.765  0.00  0.00    +0.000 C 
ATOM      4  C   UNL     1      -2.321  12.571  19.909  0.00  0.00    +0.000 C 
ATOM      5  C   UNL     1      -3.288  12.690  21.101  0.00  0.00    +0.000 C 
ATOM      6  C   UNL     1      -4.693  13.194  20.713  0.00  0.00    +0.000 C 
ATOM      7  C   UNL     1      -5.605  13.300  21.938  0.00  0.00    +0.000 C 
ATOM      8  C   UNL     1      -5.024  14.154  23.077  0.00  0.00    +0.000 C 
ATOM      9  C   UNL     1      -5.114  15.649  22.707  0.00  0.00    +0.000 C 
ATOM     10  C   UNL     1      -4.525  16.551  23.789  0.00  0.00    +0.000 C 
ATOM     11  C   UNL     1      -3.084  16.168  24.098  0.00  0.00    +0.000 C 
ATOM     12  C   UNL     1      -3.009  14.708  24.529  0.00  0.00    +0.000 C 
ATOM     13  C   UNL     1      -3.577  13.714  23.474  0.00  0.00    +0.000 C 
ATOM     14  C   UNL     1      -3.635  12.329  24.175  0.00  0.00    +0.000 C 
ATOM     15  C   UNL     1      -2.686  13.654  22.180  0.00  0.00    +0.000 C 
ATOM     16  C   UNL     1      -1.195  13.407  22.487  0.00  0.00    +0.000 C 
ATOM     17  C   UNL     1      -0.345  13.206  21.239  0.00  0.00    +0.000 C 
ATOM     18  C   UNL     1      -0.910  12.092  20.346  0.00  0.00    +0.000 C 
ATOM     19  C   UNL     1      -0.933  10.727  21.083  0.00  0.00    +0.000 C 
ENDROOT
BRANCH   1  20
ATOM     20  C   UNL     1       1.121  11.142  18.920  0.00  0.00    +0.000 C 
ATOM     21  C   UNL     1       2.264  11.929  18.265  0.00  0.00    +0.000 C 
BRANCH  20  22
ATOM     22  C   UNL     1       0.906   9.815  18.170  0.00  0.00    +0.000 C 
BRANCH  22  23
ATOM     23  C   UNL     1       2.192   9.028  17.902  0.00  0.00    +0.000 C 
BRANCH  23  25
ATOM     24  N   UNL     1       2.580   6.651  18.137  0.00  0.00    +0.000 N 
ATOM     25  C   UNL     1       2.244   7.807  18.794  0.00  0.00    +0.000 C 
ATOM     26  O   UNL     1       1.993   7.845  19.994  0.00  0.00    +0.000 OA
ATOM     27  H   UNL     1       2.680   6.653  17.127  0.00  0.00    +0.000 HD
BRANCH  24  28
ATOM     28  C   UNL     1       2.594   5.392  18.847  0.00  0.00    +0.000 C 
BRANCH  28  29
ATOM     29  C   UNL     1       3.953   4.689  18.766  0.00  0.00    +0.000 C 
BRANCH  29  31
ATOM     30  C   UNL     1       2.640   3.025  17.360  0.00  0.00    +0.000 C 
ATOM     31  C   UNL     1       4.024   3.574  17.703  0.00  0.00    +0.000 C 
ATOM     32  C   UNL     1       4.700   4.093  16.431  0.00  0.00    +0.000 C 
ENDBRANCH  29  31
ENDBRANCH  28  29
ENDBRANCH  24  28
ENDBRANCH  23  25
ENDBRANCH  22  23
ENDBRANCH  20  22
ENDBRANCH   1  20
BRANCH   6  33
ATOM     33  O   UNL     1      -5.321  12.332  19.771  0.00  0.00    +0.000 OA
ATOM     34  H   UNL     1      -6.232  12.182  20.060  0.00  0.00    +0.000 HD
ENDBRANCH   6  33
BRANCH  10  35
ATOM     35  O   UNL     1      -4.583  17.908  23.368  0.00  0.00    +0.000 OA
ATOM     36  H   UNL     1      -5.430  18.049  22.914  0.00  0.00    +0.000 HD
ENDBRANCH  10  35
TORSDOF 9
ENDMDL
MODEL 6
REMARK VINA RESULT:      -6.6      3.225      4.853
REMARK  Name = 
REMARK  14 active torsions:
REMARK  status: ('A' for Active; 'I' for Inactive)
REMARK    1  A    between atoms: C_1  and  C_2
REMARK    2  A    between atoms: C_2  and  C_3
REMARK    3  A    between atoms: C_2  and  C_4
REMARK    4  A    between atoms: C_4  and  C_5
REMARK    5  A    between atoms: C_5  and  N_6
REMARK    6  A    between atoms: C_7  and  C_9
REMARK    7  A    between atoms: C_9  and  C_10
REMARK    8  A    between atoms: C_10  and  C_11
REMARK    9  A    between atoms: C_11  and  C_12
REMARK   10  A    between atoms: C_11  and  C_13
REMARK   11  A    between atoms: C_18  and  O_19
REMARK   12  A    between atoms: C_23  and  O_24
REMARK   13  A    between atoms: C_27  and  C_28
REMARK   14  A    between atoms: C_32  and  C_33
REMARK                            x       y       z     vdW  Elec       q    Type
REMARK                         _______ _______ _______ _____ _____    ______ ____
ROOT
ATOM      1  C   UNL     1      -0.235  11.457  18.486  0.00  0.00    +0.000 C 
ATOM      2  C   UNL     1      -1.009  10.275  17.836  0.00  0.00    +0.000 C 
ATOM      3  C   UNL     1      -2.490  10.438  18.210  0.00  0.00    +0.000 C 
ATOM      4  C   UNL     1      -2.575  11.829  18.828  0.00  0.00    +0.000 C 
ATOM      5  C   UNL     1      -3.772  12.174  19.732  0.00  0.00    +0.000 C 
ATOM      6  C   UNL     1      -5.136  12.080  19.018  0.00  0.00    +0.000 C 
ATOM      7  C   UNL     1      -6.285  12.442  19.963  0.00  0.00    +0.000 C 
ATOM      8  C   UNL     1      -6.128  13.814  20.640  0.00  0.00    +0.000 C 
ATOM      9  C   UNL     1      -6.424  14.936  19.625  0.00  0.00    +0.000 C 
ATOM     10  C   UNL     1      -6.255  16.327  20.231  0.00  0.00    +0.000 C 
ATOM     11  C   UNL     1      -4.864  16.503  20.823  0.00  0.00    +0.000 C 
ATOM     12  C   UNL     1      -4.601  15.433  21.876  0.00  0.00    +0.000 C 
ATOM     13  C   UNL     1      -4.736  13.978  21.337  0.00  0.00    +0.000 C 
ATOM     14  C   UNL     1      -4.672  13.051  22.581  0.00  0.00    +0.000 C 
ATOM     15  C   UNL     1      -3.603  13.621  20.309  0.00  0.00    +0.000 C 
ATOM     16  C   UNL     1      -2.188  13.927  20.842  0.00  0.00    +0.000 C 
ATOM     17  C   UNL     1      -1.076  13.456  19.914  0.00  0.00    +0.000 C 
ATOM     18  C   UNL     1      -1.220  11.966  19.573  0.00  0.00    +0.000 C 
ATOM     19  C   UNL     1      -1.133  11.080  20.844  0.00  0.00    +0.000 C 
ENDROOT
BRANCH   1  20
ATOM     20  C   UNL     1       1.206  11.081  18.947  0.00  0.00    +0.000 C 
ATOM     21  C   UNL     1       2.283  11.903  18.226  0.00  0.00    +0.000 C 
BRANCH  20  22
ATOM     22  C   UNL     1       1.460   9.579  18.723  0.00  0.00    +0.000 C 
BRANCH  22  23
ATOM     23  C   UNL     1       1.616   8.768  20.014  0.00  0.00    +0.000 C 
BRANCH  23  25
ATOM     24  N   UNL     1       1.885   6.473  20.731  0.00  0.00    +0.000 N 
ATOM     25  C   UNL     1       2.018   7.347  19.683  0.00  0.00    +0.000 C 
ATOM     26  O   UNL     1       2.438   7.011  18.581  0.00  0.00    +0.000 OA
ATOM     27  H   UNL     1       1.629   6.819  21.650  0.00  0.00    +0.000 HD
BRANCH  24  28
ATOM     28  C   UNL     1       2.303   5.097  20.583  0.00  0.00    +0.000 C 
BRANCH  28  29
ATOM     29  C   UNL     1       1.119   4.125  20.559  0.00  0.00    +0.000 C 
BRANCH  29  31
ATOM     30  C   UNL     1       0.860   2.310  18.795  0.00  0.00    +0.000 C 
ATOM     31  C   UNL     1       1.489   2.689  20.136  0.00  0.00    +0.000 C 
ATOM     32  C   UNL     1       3.010   2.534  20.051  0.00  0.00    +0.000 C 
ENDBRANCH  29  31
ENDBRANCH  28  29
ENDBRANCH  24  28
ENDBRANCH  23  25
ENDBRANCH  22  23
ENDBRANCH  20  22
ENDBRANCH   1  20
BRANCH   6  33
ATOM     33  O   UNL     1      -5.378  10.772  18.514  0.00  0.00    +0.000 OA
ATOM     34  H   UNL     1      -4.525  10.328  18.403  0.00  0.00    +0.000 HD
ENDBRANCH   6  33
BRANCH  10  35
ATOM     35  O   UNL     1      -6.484  17.316  19.235  0.00  0.00    +0.000 OA
ATOM     36  H   UNL     1      -6.586  18.175  19.677  0.00  0.00    +0.000 HD
ENDBRANCH  10  35
TORSDOF 9
ENDMDL
MODEL 7
REMARK VINA RESULT:      -6.4      2.877      4.788
REMARK  Name = 
REMARK  14 active torsions:
REMARK  status: ('A' for Active; 'I' for Inactive)
REMARK    1  A    between atoms: C_1  and  C_2
REMARK    2  A    between atoms: C_2  and  C_3
REMARK    3  A    between atoms: C_2  and  C_4
REMARK    4  A    between atoms: C_4  and  C_5
REMARK    5  A    between atoms: C_5  and  N_6
REMARK    6  A    between atoms: C_7  and  C_9
REMARK    7  A    between atoms: C_9  and  C_10
REMARK    8  A    between atoms: C_10  and  C_11
REMARK    9  A    between atoms: C_11  and  C_12
REMARK   10  A    between atoms: C_11  and  C_13
REMARK   11  A    between atoms: C_18  and  O_19
REMARK   12  A    between atoms: C_23  and  O_24
REMARK   13  A    between atoms: C_27  and  C_28
REMARK   14  A    between atoms: C_32  and  C_33
REMARK                            x       y       z     vdW  Elec       q    Type
REMARK                         _______ _______ _______ _____ _____    ______ ____
ROOT
ATOM      1  C   UNL     1       0.889  10.900  20.111  0.00  0.00    +0.000 C 
ATOM      2  C   UNL     1       1.241  11.802  18.893  0.00  0.00    +0.000 C 
ATOM      3  C   UNL     1       0.346  13.048  18.974  0.00  0.00    +0.000 C 
ATOM      4  C   UNL     1      -0.296  12.966  20.354  0.00  0.00    +0.000 C 
ATOM      5  C   UNL     1      -1.584  13.762  20.629  0.00  0.00    +0.000 C 
ATOM      6  C   UNL     1      -1.417  15.287  20.467  0.00  0.00    +0.000 C 
ATOM      7  C   UNL     1      -2.726  16.025  20.761  0.00  0.00    +0.000 C 
ATOM      8  C   UNL     1      -3.334  15.694  22.134  0.00  0.00    +0.000 C 
ATOM      9  C   UNL     1      -2.527  16.395  23.247  0.00  0.00    +0.000 C 
ATOM     10  C   UNL     1      -3.066  16.081  24.640  0.00  0.00    +0.000 C 
ATOM     11  C   UNL     1      -3.111  14.579  24.886  0.00  0.00    +0.000 C 
ATOM     12  C   UNL     1      -3.967  13.899  23.824  0.00  0.00    +0.000 C 
ATOM     13  C   UNL     1      -3.477  14.154  22.367  0.00  0.00    +0.000 C 
ATOM     14  C   UNL     1      -4.587  13.593  21.436  0.00  0.00    +0.000 C 
ATOM     15  C   UNL     1      -2.096  13.461  22.079  0.00  0.00    +0.000 C 
ATOM     16  C   UNL     1      -2.082  11.966  22.456  0.00  0.00    +0.000 C 
ATOM     17  C   UNL     1      -0.799  11.251  22.052  0.00  0.00    +0.000 C 
ATOM     18  C   UNL     1      -0.496  11.440  20.559  0.00  0.00    +0.000 C 
ATOM     19  C   UNL     1      -1.624  10.850  19.670  0.00  0.00    +0.000 C 
ENDROOT
BRANCH   1  20
ATOM     20  C   UNL     1       0.998   9.374  19.808  0.00  0.00    +0.000 C 
ATOM     21  C   UNL     1       1.207   8.540  21.080  0.00  0.00    +0.000 C 
BRANCH  20  22
ATOM     22  C   UNL     1       2.145   9.109  18.816  0.00  0.00    +0.000 C 
BRANCH  22  23
ATOM     23  C   UNL     1       1.858   7.994  17.806  0.00  0.00    +0.000 C 
BRANCH  23  25
ATOM     24  N   UNL     1       2.582   5.739  18.302  0.00  0.00    +0.000 N 
ATOM     25  C   UNL     1       2.972   6.970  17.840  0.00  0.00    +0.000 C 
ATOM     26  O   UNL     1       4.123   7.223  17.499  0.00  0.00    +0.000 OA
ATOM     27  H   UNL     1       1.644   5.607  18.666  0.00  0.00    +0.000 HD
BRANCH  24  28
ATOM     28  C   UNL     1       3.557   4.683  18.460  0.00  0.00    +0.000 C 
BRANCH  28  29
ATOM     29  C   UNL     1       3.121   3.632  19.486  0.00  0.00    +0.000 C 
BRANCH  29  31
ATOM     30  C   UNL     1       0.957   2.512  18.759  0.00  0.00    +0.000 C 
ATOM     31  C   UNL     1       1.596   3.543  19.689  0.00  0.00    +0.000 C 
ATOM     32  C   UNL     1       1.271   3.191  21.144  0.00  0.00    +0.000 C 
ENDBRANCH  29  31
ENDBRANCH  28  29
ENDBRANCH  24  28
ENDBRANCH  23  25
ENDBRANCH  22  23
ENDBRANCH  20  22
ENDBRANCH   1  20
BRANCH   6  33
ATOM     33  O   UNL     1      -1.002  15.636  19.151  0.00  0.00    +0.000 OA
ATOM     34  H   UNL     1      -0.874  14.818  18.649  0.00  0.00    +0.000 HD
ENDBRANCH   6  33
BRANCH  10  35
ATOM     35  O   UNL     1      -2.249  16.706  25.622  0.00  0.00    +0.000 OA
ATOM     36  H   UNL     1      -2.719  17.488  25.955  0.00  0.00    +0.000 HD
ENDBRANCH  10  35
TORSDOF 9
ENDMDL
MODEL 8
REMARK VINA RESULT:      -6.4      2.634      4.688
REMARK  Name = 
REMARK  14 active torsions:
REMARK  status: ('A' for Active; 'I' for Inactive)
REMARK    1  A    between atoms: C_1  and  C_2
REMARK    2  A    between atoms: C_2  and  C_3
REMARK    3  A    between atoms: C_2  and  C_4
REMARK    4  A    between atoms: C_4  and  C_5
REMARK    5  A    between atoms: C_5  and  N_6
REMARK    6  A    between atoms: C_7  and  C_9
REMARK    7  A    between atoms: C_9  and  C_10
REMARK    8  A    between atoms: C_10  and  C_11
REMARK    9  A    between atoms: C_11  and  C_12
REMARK   10  A    between atoms: C_11  and  C_13
REMARK   11  A    between atoms: C_18  and  O_19
REMARK   12  A    between atoms: C_23  and  O_24
REMARK   13  A    between atoms: C_27  and  C_28
REMARK   14  A    between atoms: C_32  and  C_33
REMARK                            x       y       z     vdW  Elec       q    Type
REMARK                         _______ _______ _______ _____ _____    ______ ____
ROOT
ATOM      1  C   UNL     1       1.933   8.786  19.330  0.00  0.00    +0.000 C 
ATOM      2  C   UNL     1       2.513   9.431  18.039  0.00  0.00    +0.000 C 
ATOM      3  C   UNL     1       1.937  10.853  17.941  0.00  0.00    +0.000 C 
ATOM      4  C   UNL     1       1.266  11.085  19.290  0.00  0.00    +0.000 C 
ATOM      5  C   UNL     1       0.198  12.186  19.414  0.00  0.00    +0.000 C 
ATOM      6  C   UNL     1       0.724  13.600  19.095  0.00  0.00    +0.000 C 
ATOM      7  C   UNL     1      -0.378  14.652  19.244  0.00  0.00    +0.000 C 
ATOM      8  C   UNL     1      -1.075  14.635  20.615  0.00  0.00    +0.000 C 
ATOM      9  C   UNL     1      -0.148  15.254  21.681  0.00  0.00    +0.000 C 
ATOM     10  C   UNL     1      -0.773  15.240  23.073  0.00  0.00    +0.000 C 
ATOM     11  C   UNL     1      -1.178  13.831  23.479  0.00  0.00    +0.000 C 
ATOM     12  C   UNL     1      -2.149  13.248  22.459  0.00  0.00    +0.000 C 
ATOM     13  C   UNL     1      -1.584  13.209  21.008  0.00  0.00    +0.000 C 
ATOM     14  C   UNL     1      -2.775  12.818  20.092  0.00  0.00    +0.000 C 
ATOM     15  C   UNL     1      -0.400  12.185  20.862  0.00  0.00    +0.000 C 
ATOM     16  C   UNL     1      -0.748  10.782  21.402  0.00  0.00    +0.000 C 
ATOM     17  C   UNL     1       0.337   9.746  21.139  0.00  0.00    +0.000 C 
ATOM     18  C   UNL     1       0.706   9.682  19.650  0.00  0.00    +0.000 C 
ATOM     19  C   UNL     1      -0.511   9.272  18.778  0.00  0.00    +0.000 C 
ENDROOT
BRANCH   1  20
ATOM     20  C   UNL     1       1.683   7.252  19.201  0.00  0.00    +0.000 C 
ATOM     21  C   UNL     1       1.811   6.525  20.547  0.00  0.00    +0.000 C 
BRANCH  20  22
ATOM     22  C   UNL     1       2.659   6.638  18.182  0.00  0.00    +0.000 C 
BRANCH  22  23
ATOM     23  C   UNL     1       2.492   5.128  17.981  0.00  0.00    +0.000 C 
BRANCH  23  25
ATOM     24  N   UNL     1       4.604   5.157  16.801  0.00  0.00    +0.000 N 
ATOM     25  C   UNL     1       3.841   4.491  17.725  0.00  0.00    +0.000 C 
ATOM     26  O   UNL     1       4.211   3.464  18.282  0.00  0.00    +0.000 OA
ATOM     27  H   UNL     1       4.214   5.946  16.294  0.00  0.00    +0.000 HD
BRANCH  24  28
ATOM     28  C   UNL     1       5.886   4.622  16.400  0.00  0.00    +0.000 C 
BRANCH  28  29
ATOM     29  C   UNL     1       7.008   5.662  16.484  0.00  0.00    +0.000 C 
BRANCH  29  31
ATOM     30  C   UNL     1       7.679   5.731  18.937  0.00  0.00    +0.000 C 
ATOM     31  C   UNL     1       7.009   6.485  17.788  0.00  0.00    +0.000 C 
ATOM     32  C   UNL     1       7.718   7.825  17.572  0.00  0.00    +0.000 C 
ENDBRANCH  29  31
ENDBRANCH  28  29
ENDBRANCH  24  28
ENDBRANCH  23  25
ENDBRANCH  22  23
ENDBRANCH  20  22
ENDBRANCH   1  20
BRANCH   6  33
ATOM     33  O   UNL     1       1.236  13.686  17.770  0.00  0.00    +0.000 OA
ATOM     34  H   UNL     1       1.480  12.794  17.483  0.00  0.00    +0.000 HD
ENDBRANCH   6  33
BRANCH  10  35
ATOM     35  O   UNL     1       0.148  15.769  24.019  0.00  0.00    +0.000 OA
ATOM     36  H   UNL     1      -0.358  16.182  24.738  0.00  0.00    +0.000 HD
ENDBRANCH  10  35
TORSDOF 9
ENDMDL
MODEL 9
REMARK VINA RESULT:      -6.4      0.674      1.198
REMARK  Name = 
REMARK  14 active torsions:
REMARK  status: ('A' for Active; 'I' for Inactive)
REMARK    1  A    between atoms: C_1  and  C_2
REMARK    2  A    between atoms: C_2  and  C_3
REMARK    3  A    between atoms: C_2  and  C_4
REMARK    4  A    between atoms: C_4  and  C_5
REMARK    5  A    between atoms: C_5  and  N_6
REMARK    6  A    between atoms: C_7  and  C_9
REMARK    7  A    between atoms: C_9  and  C_10
REMARK    8  A    between atoms: C_10  and  C_11
REMARK    9  A    between atoms: C_11  and  C_12
REMARK   10  A    between atoms: C_11  and  C_13
REMARK   11  A    between atoms: C_18  and  O_19
REMARK   12  A    between atoms: C_23  and  O_24
REMARK   13  A    between atoms: C_27  and  C_28
REMARK   14  A    between atoms: C_32  and  C_33
REMARK                            x       y       z     vdW  Elec       q    Type
REMARK                         _______ _______ _______ _____ _____    ______ ____
ROOT
ATOM      1  C   UNL     1       0.559  10.576  18.764  0.00  0.00    +0.000 C 
ATOM      2  C   UNL     1      -0.839  10.488  19.442  0.00  0.00    +0.000 C 
ATOM      3  C   UNL     1      -1.261  11.920  19.806  0.00  0.00    +0.000 C 
ATOM      4  C   UNL     1      -0.241  12.807  19.101  0.00  0.00    +0.000 C 
ATOM      5  C   UNL     1      -0.046  14.255  19.587  0.00  0.00    +0.000 C 
ATOM      6  C   UNL     1      -1.319  15.120  19.482  0.00  0.00    +0.000 C 
ATOM      7  C   UNL     1      -1.062  16.549  19.969  0.00  0.00    +0.000 C 
ATOM      8  C   UNL     1       0.118  17.244  19.271  0.00  0.00    +0.000 C 
ATOM      9  C   UNL     1      -0.287  17.656  17.841  0.00  0.00    +0.000 C 
ATOM     10  C   UNL     1       0.855  18.327  17.084  0.00  0.00    +0.000 C 
ATOM     11  C   UNL     1       2.088  17.436  17.048  0.00  0.00    +0.000 C 
ATOM     12  C   UNL     1       2.527  17.087  18.465  0.00  0.00    +0.000 C 
ATOM     13  C   UNL     1       1.423  16.381  19.307  0.00  0.00    +0.000 C 
ATOM     14  C   UNL     1       1.962  16.324  20.762  0.00  0.00    +0.000 C 
ATOM     15  C   UNL     1       1.100  14.941  18.768  0.00  0.00    +0.000 C 
ATOM     16  C   UNL     1       2.359  14.068  18.590  0.00  0.00    +0.000 C 
ATOM     17  C   UNL     1       2.048  12.628  18.204  0.00  0.00    +0.000 C 
ATOM     18  C   UNL     1       1.069  11.979  19.193  0.00  0.00    +0.000 C 
ATOM     19  C   UNL     1       1.658  11.929  20.627  0.00  0.00    +0.000 C 
ENDROOT
BRANCH   1  20
ATOM     20  C   UNL     1       1.479   9.356  19.073  0.00  0.00    +0.000 C 
ATOM     21  C   UNL     1       1.955   8.645  17.798  0.00  0.00    +0.000 C 
BRANCH  20  22
ATOM     22  C   UNL     1       0.747   8.354  19.985  0.00  0.00    +0.000 C 
BRANCH  22  23
ATOM     23  C   UNL     1       1.651   7.653  21.003  0.00  0.00    +0.000 C 
BRANCH  23  25
ATOM     24  N   UNL     1       3.235   6.128  19.993  0.00  0.00    +0.000 N 
ATOM     25  C   UNL     1       1.977   6.255  20.525  0.00  0.00    +0.000 C 
ATOM     26  O   UNL     1       1.182   5.323  20.593  0.00  0.00    +0.000 OA
ATOM     27  H   UNL     1       3.817   6.949  19.867  0.00  0.00    +0.000 HD
BRANCH  24  28
ATOM     28  C   UNL     1       3.657   4.866  19.427  0.00  0.00    +0.000 C 
BRANCH  28  29
ATOM     29  C   UNL     1       3.570   4.853  17.898  0.00  0.00    +0.000 C 
BRANCH  29  31
ATOM     30  C   UNL     1       5.149   5.539  16.025  0.00  0.00    +0.000 C 
ATOM     31  C   UNL     1       4.914   4.580  17.192  0.00  0.00    +0.000 C 
ATOM     32  C   UNL     1       6.071   4.691  18.188  0.00  0.00    +0.000 C 
ENDBRANCH  29  31
ENDBRANCH  28  29
ENDBRANCH  24  28
ENDBRANCH  23  25
ENDBRANCH  22  23
ENDBRANCH  20  22
ENDBRANCH   1  20
BRANCH   6  33
ATOM     33  O   UNL     1      -2.389  14.580  20.248  0.00  0.00    +0.000 OA
ATOM     34  H   UNL     1      -2.970  14.088  19.650  0.00  0.00    +0.000 HD
ENDBRANCH   6  33
BRANCH  10  35
ATOM     35  O   UNL     1       0.440  18.631  15.758  0.00  0.00    +0.000 OA
ATOM     36  H   UNL     1      -0.327  19.224  15.809  0.00  0.00    +0.000 HD
ENDBRANCH  10  35
TORSDOF 9
ENDMDL
