MODEL 1
REMARK VINA RESULT:      -5.2      0.000      0.000
REMARK  Name = 
REMARK  5 active torsions:
REMARK  status: ('A' for Active; 'I' for Inactive)
REMARK    1  A    between atoms: C_1  and  O_2
REMARK    2  A    between atoms: O_2  and  C_3
REMARK    3  A    between atoms: C_7  and  C_8
REMARK    4  A    between atoms: C_8  and  O_9
REMARK    5  A    between atoms: C_10  and  C_11
REMARK                            x       y       z     vdW  Elec       q    Type
REMARK                         _______ _______ _______ _____ _____    ______ ____
ROOT
ATOM      1  C   UNL     1       2.373   4.699  18.247  0.00  0.00    +0.000 A 
ATOM      2  C   UNL     1       2.572   3.658  17.338  0.00  0.00    +0.000 A 
ATOM      3  C   UNL     1       2.386   2.339  17.735  0.00  0.00    +0.000 A 
ATOM      4  C   UNL     1       1.999   2.050  19.041  0.00  0.00    +0.000 A 
ATOM      5  C   UNL     1       1.781   3.076  19.981  0.00  0.00    +0.000 A 
ATOM      6  C   UNL     1       1.990   4.419  19.579  0.00  0.00    +0.000 A 
ATOM      7  C   UNL     1       1.833   5.578  20.534  0.00  0.00    +0.000 C 
ENDROOT
BRANCH   1   9
ATOM      8  C   UNL     1       3.896   6.389  17.564  0.00  0.00    +0.000 C 
ATOM      9  O   UNL     1       2.573   6.024  17.941  0.00  0.00    +0.000 OA
ENDBRANCH   1   9
BRANCH   5  10
ATOM     10  C   UNL     1       1.350   2.744  21.393  0.00  0.00    +0.000 C 
BRANCH  10  11
ATOM     11  O   UNL     1       2.434   2.641  22.310  0.00  0.00    +0.000 OA
ATOM     12  H   UNL     1       2.990   1.908  21.997  0.00  0.00    +0.000 HD
ENDBRANCH  10  11
ENDBRANCH   5  10
TORSDOF 3
ENDMDL
MODEL 2
REMARK VINA RESULT:      -5.0      1.762      2.954
REMARK  Name = 
REMARK  5 active torsions:
REMARK  status: ('A' for Active; 'I' for Inactive)
REMARK    1  A    between atoms: C_1  and  O_2
REMARK    2  A    between atoms: O_2  and  C_3
REMARK    3  A    between atoms: C_7  and  C_8
REMARK    4  A    between atoms: C_8  and  O_9
REMARK    5  A    between atoms: C_10  and  C_11
REMARK                            x       y       z     vdW  Elec       q    Type
REMARK                         _______ _______ _______ _____ _____    ______ ____
ROOT
ATOM      1  C   UNL     1       2.317   5.341  19.562  0.00  0.00    +0.000 A 
ATOM      2  C   UNL     1       1.491   4.917  20.604  0.00  0.00    +0.000 A 
ATOM      3  C   UNL     1       1.152   3.574  20.724  0.00  0.00    +0.000 A 
ATOM      4  C   UNL     1       1.635   2.646  19.807  0.00  0.00    +0.000 A 
ATOM      5  C   UNL     1       2.478   3.038  18.748  0.00  0.00    +0.000 A 
ATOM      6  C   UNL     1       2.807   4.411  18.616  0.00  0.00    +0.000 A 
ATOM      7  C   UNL     1       3.659   4.928  17.483  0.00  0.00    +0.000 C 
ENDROOT
BRANCH   1   9
ATOM      8  C   UNL     1       1.942   7.623  20.105  0.00  0.00    +0.000 C 
ATOM      9  O   UNL     1       2.665   6.655  19.354  0.00  0.00    +0.000 OA
ENDBRANCH   1   9
BRANCH   5  10
ATOM     10  C   UNL     1       3.004   2.014  17.766  0.00  0.00    +0.000 C 
BRANCH  10  11
ATOM     11  O   UNL     1       3.787   0.992  18.374  0.00  0.00    +0.000 OA
ATOM     12  H   UNL     1       4.676   1.366  18.500  0.00  0.00    +0.000 HD
ENDBRANCH  10  11
ENDBRANCH   5  10
TORSDOF 3
ENDMDL
MODEL 3
REMARK VINA RESULT:      -4.9      3.388      4.861
REMARK  Name = 
REMARK  5 active torsions:
REMARK  status: ('A' for Active; 'I' for Inactive)
REMARK    1  A    between atoms: C_1  and  O_2
REMARK    2  A    between atoms: O_2  and  C_3
REMARK    3  A    between atoms: C_7  and  C_8
REMARK    4  A    between atoms: C_8  and  O_9
REMARK    5  A    between atoms: C_10  and  C_11
REMARK                            x       y       z     vdW  Elec       q    Type
REMARK                         _______ _______ _______ _____ _____    ______ ____
ROOT
ATOM      1  C   UNL     1       6.337   5.608  16.480  0.00  0.00    +0.000 A 
ATOM      2  C   UNL     1       7.348   6.326  17.123  0.00  0.00    +0.000 A 
ATOM      3  C   UNL     1       7.496   6.240  18.502  0.00  0.00    +0.000 A 
ATOM      4  C   UNL     1       6.638   5.437  19.250  0.00  0.00    +0.000 A 
ATOM      5  C   UNL     1       5.613   4.693  18.632  0.00  0.00    +0.000 A 
ATOM      6  C   UNL     1       5.452   4.798  17.228  0.00  0.00    +0.000 A 
ATOM      7  C   UNL     1       4.348   4.079  16.490  0.00  0.00    +0.000 C 
ENDROOT
BRANCH   1   9
ATOM      8  C   UNL     1       6.992   4.929  14.300  0.00  0.00    +0.000 C 
ATOM      9  O   UNL     1       6.103   5.671  15.127  0.00  0.00    +0.000 OA
ENDBRANCH   1   9
BRANCH   5  10
ATOM     10  C   UNL     1       4.697   3.818  19.459  0.00  0.00    +0.000 C 
BRANCH  10  11
ATOM     11  O   UNL     1       5.202   2.504  19.670  0.00  0.00    +0.000 OA
ATOM     12  H   UNL     1       6.168   2.562  19.569  0.00  0.00    +0.000 HD
ENDBRANCH  10  11
ENDBRANCH   5  10
TORSDOF 3
ENDMDL
MODEL 4
REMARK VINA RESULT:      -4.9      1.335      2.538
REMARK  Name = 
REMARK  5 active torsions:
REMARK  status: ('A' for Active; 'I' for Inactive)
REMARK    1  A    between atoms: C_1  and  O_2
REMARK    2  A    between atoms: O_2  and  C_3
REMARK    3  A    between atoms: C_7  and  C_8
REMARK    4  A    between atoms: C_8  and  O_9
REMARK    5  A    between atoms: C_10  and  C_11
REMARK                            x       y       z     vdW  Elec       q    Type
REMARK                         _______ _______ _______ _____ _____    ______ ____
ROOT
ATOM      1  C   UNL     1       3.073   4.530  18.024  0.00  0.00    +0.000 A 
ATOM      2  C   UNL     1       3.074   5.884  18.365  0.00  0.00    +0.000 A 
ATOM      3  C   UNL     1       2.484   6.306  19.551  0.00  0.00    +0.000 A 
ATOM      4  C   UNL     1       1.890   5.380  20.404  0.00  0.00    +0.000 A 
ATOM      5  C   UNL     1       1.878   4.006  20.095  0.00  0.00    +0.000 A 
ATOM      6  C   UNL     1       2.463   3.581  18.876  0.00  0.00    +0.000 A 
ATOM      7  C   UNL     1       2.449   2.136  18.439  0.00  0.00    +0.000 C 
ENDROOT
BRANCH   1   9
ATOM      8  C   UNL     1       4.987   4.284  16.638  0.00  0.00    +0.000 C 
ATOM      9  O   UNL     1       3.601   4.041  16.853  0.00  0.00    +0.000 OA
ENDBRANCH   1   9
BRANCH   5  10
ATOM     10  C   UNL     1       1.237   3.013  21.040  0.00  0.00    +0.000 C 
BRANCH  10  11
ATOM     11  O   UNL     1       2.001   2.771  22.217  0.00  0.00    +0.000 OA
ATOM     12  H   UNL     1       1.530   2.080  22.713  0.00  0.00    +0.000 HD
ENDBRANCH  10  11
ENDBRANCH   5  10
TORSDOF 3
ENDMDL
MODEL 5
REMARK VINA RESULT:      -4.9      2.309      2.982
REMARK  Name = 
REMARK  5 active torsions:
REMARK  status: ('A' for Active; 'I' for Inactive)
REMARK    1  A    between atoms: C_1  and  O_2
REMARK    2  A    between atoms: O_2  and  C_3
REMARK    3  A    between atoms: C_7  and  C_8
REMARK    4  A    between atoms: C_8  and  O_9
REMARK    5  A    between atoms: C_10  and  C_11
REMARK                            x       y       z     vdW  Elec       q    Type
REMARK                         _______ _______ _______ _____ _____    ______ ____
ROOT
ATOM      1  C   UNL     1       4.696   4.512  18.812  0.00  0.00    +0.000 A 
ATOM      2  C   UNL     1       4.215   5.621  18.113  0.00  0.00    +0.000 A 
ATOM      3  C   UNL     1       2.860   5.731  17.825  0.00  0.00    +0.000 A 
ATOM      4  C   UNL     1       1.975   4.737  18.234  0.00  0.00    +0.000 A 
ATOM      5  C   UNL     1       2.424   3.610  18.949  0.00  0.00    +0.000 A 
ATOM      6  C   UNL     1       3.810   3.490  19.224  0.00  0.00    +0.000 A 
ATOM      7  C   UNL     1       4.387   2.291  19.937  0.00  0.00    +0.000 C 
ENDROOT
BRANCH   1   9
ATOM      8  C   UNL     1       6.841   5.477  19.140  0.00  0.00    +0.000 C 
ATOM      9  O   UNL     1       6.025   4.313  19.100  0.00  0.00    +0.000 OA
ENDBRANCH   1   9
BRANCH   5  10
ATOM     10  C   UNL     1       1.447   2.544  19.396  0.00  0.00    +0.000 C 
BRANCH  10  11
ATOM     11  O   UNL     1       0.339   3.059  20.127  0.00  0.00    +0.000 OA
ATOM     12  H   UNL     1       0.597   3.041  21.065  0.00  0.00    +0.000 HD
ENDBRANCH  10  11
ENDBRANCH   5  10
TORSDOF 3
ENDMDL
MODEL 6
REMARK VINA RESULT:      -4.9      1.958      3.588
REMARK  Name = 
REMARK  5 active torsions:
REMARK  status: ('A' for Active; 'I' for Inactive)
REMARK    1  A    between atoms: C_1  and  O_2
REMARK    2  A    between atoms: O_2  and  C_3
REMARK    3  A    between atoms: C_7  and  C_8
REMARK    4  A    between atoms: C_8  and  O_9
REMARK    5  A    between atoms: C_10  and  C_11
REMARK                            x       y       z     vdW  Elec       q    Type
REMARK                         _______ _______ _______ _____ _____    ______ ____
ROOT
ATOM      1  C   UNL     1       2.275   3.076  18.692  0.00  0.00    +0.000 A 
ATOM      2  C   UNL     1       1.495   2.601  19.748  0.00  0.00    +0.000 A 
ATOM      3  C   UNL     1       1.044   3.474  20.731  0.00  0.00    +0.000 A 
ATOM      4  C   UNL     1       1.366   4.828  20.665  0.00  0.00    +0.000 A 
ATOM      5  C   UNL     1       2.143   5.342  19.609  0.00  0.00    +0.000 A 
ATOM      6  C   UNL     1       2.619   4.445  18.619  0.00  0.00    +0.000 A 
ATOM      7  C   UNL     1       3.502   4.899  17.482  0.00  0.00    +0.000 C 
ENDROOT
BRANCH   1   9
ATOM      8  C   UNL     1       3.736   1.291  18.122  0.00  0.00    +0.000 C 
ATOM      9  O   UNL     1       2.791   2.270  17.705  0.00  0.00    +0.000 OA
ENDBRANCH   1   9
BRANCH   5  10
ATOM     10  C   UNL     1       2.475   6.817  19.548  0.00  0.00    +0.000 C 
BRANCH  10  11
ATOM     11  O   UNL     1       2.048   7.544  20.696  0.00  0.00    +0.000 OA
ATOM     12  H   UNL     1       1.960   8.471  20.416  0.00  0.00    +0.000 HD
ENDBRANCH  10  11
ENDBRANCH   5  10
TORSDOF 3
ENDMDL
MODEL 7
REMARK VINA RESULT:      -4.8      2.098      4.479
REMARK  Name = 
REMARK  5 active torsions:
REMARK  status: ('A' for Active; 'I' for Inactive)
REMARK    1  A    between atoms: C_1  and  O_2
REMARK    2  A    between atoms: O_2  and  C_3
REMARK    3  A    between atoms: C_7  and  C_8
REMARK    4  A    between atoms: C_8  and  O_9
REMARK    5  A    between atoms: C_10  and  C_11
REMARK                            x       y       z     vdW  Elec       q    Type
REMARK                         _______ _______ _______ _____ _____    ______ ____
ROOT
ATOM      1  C   UNL     1       2.344   4.721  18.338  0.00  0.00    +0.000 A 
ATOM      2  C   UNL     1       2.425   6.112  18.436  0.00  0.00    +0.000 A 
ATOM      3  C   UNL     1       3.473   6.795  17.830  0.00  0.00    +0.000 A 
ATOM      4  C   UNL     1       4.446   6.096  17.121  0.00  0.00    +0.000 A 
ATOM      5  C   UNL     1       4.390   4.695  16.994  0.00  0.00    +0.000 A 
ATOM      6  C   UNL     1       3.332   3.998  17.630  0.00  0.00    +0.000 A 
ATOM      7  C   UNL     1       3.223   2.493  17.593  0.00  0.00    +0.000 C 
ENDROOT
BRANCH   1   9
ATOM      8  C   UNL     1       1.134   4.229  20.322  0.00  0.00    +0.000 C 
ATOM      9  O   UNL     1       1.362   3.972  18.941  0.00  0.00    +0.000 OA
ENDBRANCH   1   9
BRANCH   5  10
ATOM     10  C   UNL     1       5.451   3.952  16.211  0.00  0.00    +0.000 C 
BRANCH  10  11
ATOM     11  O   UNL     1       6.736   3.982  16.823  0.00  0.00    +0.000 OA
ATOM     12  H   UNL     1       6.959   3.060  17.037  0.00  0.00    +0.000 HD
ENDBRANCH  10  11
ENDBRANCH   5  10
TORSDOF 3
ENDMDL
MODEL 8
REMARK VINA RESULT:      -4.8      1.831      4.363
REMARK  Name = 
REMARK  5 active torsions:
REMARK  status: ('A' for Active; 'I' for Inactive)
REMARK    1  A    between atoms: C_1  and  O_2
REMARK    2  A    between atoms: O_2  and  C_3
REMARK    3  A    between atoms: C_7  and  C_8
REMARK    4  A    between atoms: C_8  and  O_9
REMARK    5  A    between atoms: C_10  and  C_11
REMARK                            x       y       z     vdW  Elec       q    Type
REMARK                         _______ _______ _______ _____ _____    ______ ____
ROOT
ATOM      1  C   UNL     1       2.163   3.594  19.456  0.00  0.00    +0.000 A 
ATOM      2  C   UNL     1       1.897   4.933  19.754  0.00  0.00    +0.000 A 
ATOM      3  C   UNL     1       2.518   5.945  19.031  0.00  0.00    +0.000 A 
ATOM      4  C   UNL     1       3.407   5.630  18.007  0.00  0.00    +0.000 A 
ATOM      5  C   UNL     1       3.691   4.291  17.676  0.00  0.00    +0.000 A 
ATOM      6  C   UNL     1       3.072   3.260  18.427  0.00  0.00    +0.000 A 
ATOM      7  C   UNL     1       3.359   1.800  18.176  0.00  0.00    +0.000 C 
ENDROOT
BRANCH   1   9
ATOM      8  C   UNL     1       1.606   2.658  21.567  0.00  0.00    +0.000 C 
ATOM      9  O   UNL     1       1.619   2.540  20.149  0.00  0.00    +0.000 OA
ENDBRANCH   1   9
BRANCH   5  10
ATOM     10  C   UNL     1       4.652   3.966  16.552  0.00  0.00    +0.000 C 
BRANCH  10  11
ATOM     11  O   UNL     1       6.008   3.863  16.975  0.00  0.00    +0.000 OA
ATOM     12  H   UNL     1       6.045   4.233  17.873  0.00  0.00    +0.000 HD
ENDBRANCH  10  11
ENDBRANCH   5  10
TORSDOF 3
ENDMDL
MODEL 9
REMARK VINA RESULT:      -4.8      1.936      3.044
REMARK  Name = 
REMARK  5 active torsions:
REMARK  status: ('A' for Active; 'I' for Inactive)
REMARK    1  A    between atoms: C_1  and  O_2
REMARK    2  A    between atoms: O_2  and  C_3
REMARK    3  A    between atoms: C_7  and  C_8
REMARK    4  A    between atoms: C_8  and  O_9
REMARK    5  A    between atoms: C_10  and  C_11
REMARK                            x       y       z     vdW  Elec       q    Type
REMARK                         _______ _______ _______ _____ _____    ______ ____
ROOT
ATOM      1  C   UNL     1       3.205   6.016  18.020  0.00  0.00    +0.000 A 
ATOM      2  C   UNL     1       4.305   6.258  17.195  0.00  0.00    +0.000 A 
ATOM      3  C   UNL     1       4.976   5.198  16.596  0.00  0.00    +0.000 A 
ATOM      4  C   UNL     1       4.553   3.889  16.815  0.00  0.00    +0.000 A 
ATOM      5  C   UNL     1       3.442   3.610  17.634  0.00  0.00    +0.000 A 
ATOM      6  C   UNL     1       2.772   4.691  18.260  0.00  0.00    +0.000 A 
ATOM      7  C   UNL     1       1.606   4.481  19.196  0.00  0.00    +0.000 C 
ENDROOT
BRANCH   1   9
ATOM      8  C   UNL     1       2.401   8.251  17.998  0.00  0.00    +0.000 C 
ATOM      9  O   UNL     1       2.515   7.006  18.678  0.00  0.00    +0.000 OA
ENDBRANCH   1   9
BRANCH   5  10
ATOM     10  C   UNL     1       2.989   2.182  17.852  0.00  0.00    +0.000 C 
BRANCH  10  11
ATOM     11  O   UNL     1       4.054   1.288  18.159  0.00  0.00    +0.000 OA
ATOM     12  H   UNL     1       4.233   1.390  19.109  0.00  0.00    +0.000 HD
ENDBRANCH  10  11
ENDBRANCH   5  10
TORSDOF 3
ENDMDL
