MODEL 1
REMARK VINA RESULT:      -8.2      0.000      0.000
REMARK  Name = 
REMARK  6 active torsions:
REMARK  status: ('A' for Active; 'I' for Inactive)
REMARK    1  A    between atoms: C_1  and  O_2
REMARK    2  A    between atoms: O_2  and  C_3
REMARK    3  A    between atoms: C_6  and  C_7
REMARK    4  A    between atoms: C_15  and  C_16
REMARK    5  A    between atoms: C_19  and  S_20
REMARK    6  A    between atoms: S_20  and  C_21
REMARK                            x       y       z     vdW  Elec       q    Type
REMARK                         _______ _______ _______ _____ _____    ______ ____
ROOT
ATOM      1  C   UNL     1       4.448   4.962  18.319  0.00  0.00    +0.000 A 
ATOM      2  N   UNL     1       4.545   3.613  18.065  0.00  0.00    +0.000 NA
ATOM      3  C   UNL     1       3.373   3.105  18.347  0.00  0.00    +0.000 A 
ATOM      4  N   UNL     1       2.991   1.786  18.295  0.00  0.00    +0.000 NA
ATOM      5  C   UNL     1       1.770   1.527  18.643  0.00  0.00    +0.000 A 
ATOM      6  C   UNL     1       0.749   2.513  19.072  0.00  0.00    +0.000 A 
ATOM      7  C   UNL     1       1.160   3.786  19.072  0.00  0.00    +0.000 A 
ATOM      8  N   UNL     1       2.478   4.100  18.739  0.00  0.00    +0.000 N 
ATOM      9  C   UNL     1       3.159   5.322  18.719  0.00  0.00    +0.000 A 
ENDROOT
BRANCH   1  13
ATOM     10  C   UNL     1       7.803   7.598  17.953  0.00  0.00    +0.000 A 
ATOM     11  C   UNL     1       6.680   7.760  17.138  0.00  0.00    +0.000 A 
ATOM     12  C   UNL     1       5.583   6.897  17.250  0.00  0.00    +0.000 A 
ATOM     13  C   UNL     1       5.612   5.830  18.159  0.00  0.00    +0.000 A 
ATOM     14  C   UNL     1       6.778   5.627  18.899  0.00  0.00    +0.000 A 
ATOM     15  C   UNL     1       7.852   6.524  18.835  0.00  0.00    +0.000 A 
BRANCH  10  17
ATOM     16  C   UNL     1       8.567   9.804  18.319  0.00  0.00    +0.000 C 
ATOM     17  O   UNL     1       8.805   8.510  17.773  0.00  0.00    +0.000 OA
ENDBRANCH  10  17
ENDBRANCH   1  13
BRANCH   9  18
ATOM     18  C   UNL     1       2.567   6.634  19.053  0.00  0.00    +0.000 A 
ATOM     19  C   UNL     1       2.342   7.615  18.075  0.00  0.00    +0.000 A 
ATOM     20  C   UNL     1       1.768   8.847  18.400  0.00  0.00    +0.000 A 
ATOM     21  C   UNL     1       1.311   9.070  19.697  0.00  0.00    +0.000 A 
ATOM     22  C   UNL     1       1.489   8.106  20.685  0.00  0.00    +0.000 A 
ATOM     23  C   UNL     1       2.150   6.917  20.368  0.00  0.00    +0.000 A 
BRANCH  21  24
ATOM     24  S   UNL     1       0.523  10.610  20.096  0.00  0.00    +0.000 S 
ATOM     25  C   UNL     1       1.241  11.742  18.934  0.00  0.00    +0.000 C 
ATOM     26  O   UNL     1      -0.886  10.473  19.784  0.00  0.00    +0.000 OA
ATOM     27  O   UNL     1       0.961  10.988  21.426  0.00  0.00    +0.000 OA
ENDBRANCH  21  24
ENDBRANCH   9  18
TORSDOF 4
ENDMDL
MODEL 2
REMARK VINA RESULT:      -8.1      0.718      1.263
REMARK  Name = 
REMARK  6 active torsions:
REMARK  status: ('A' for Active; 'I' for Inactive)
REMARK    1  A    between atoms: C_1  and  O_2
REMARK    2  A    between atoms: O_2  and  C_3
REMARK    3  A    between atoms: C_6  and  C_7
REMARK    4  A    between atoms: C_15  and  C_16
REMARK    5  A    between atoms: C_19  and  S_20
REMARK    6  A    between atoms: S_20  and  C_21
REMARK                            x       y       z     vdW  Elec       q    Type
REMARK                         _______ _______ _______ _____ _____    ______ ____
ROOT
ATOM      1  C   UNL     1       4.455   4.963  18.249  0.00  0.00    +0.000 A 
ATOM      2  N   UNL     1       4.580   3.612  18.018  0.00  0.00    +0.000 NA
ATOM      3  C   UNL     1       3.413   3.087  18.291  0.00  0.00    +0.000 A 
ATOM      4  N   UNL     1       3.056   1.761  18.255  0.00  0.00    +0.000 NA
ATOM      5  C   UNL     1       1.835   1.485  18.590  0.00  0.00    +0.000 A 
ATOM      6  C   UNL     1       0.791   2.459  18.991  0.00  0.00    +0.000 A 
ATOM      7  C   UNL     1       1.179   3.739  18.977  0.00  0.00    +0.000 A 
ATOM      8  N   UNL     1       2.495   4.072  18.656  0.00  0.00    +0.000 N 
ATOM      9  C   UNL     1       3.155   5.305  18.627  0.00  0.00    +0.000 A 
ENDROOT
BRANCH   1  13
ATOM     10  C   UNL     1       7.769   7.651  17.890  0.00  0.00    +0.000 A 
ATOM     11  C   UNL     1       6.642   7.802  17.079  0.00  0.00    +0.000 A 
ATOM     12  C   UNL     1       5.557   6.921  17.190  0.00  0.00    +0.000 A 
ATOM     13  C   UNL     1       5.606   5.849  18.091  0.00  0.00    +0.000 A 
ATOM     14  C   UNL     1       6.777   5.659  18.826  0.00  0.00    +0.000 A 
ATOM     15  C   UNL     1       7.837   6.572  18.764  0.00  0.00    +0.000 A 
BRANCH  10  17
ATOM     16  C   UNL     1       8.634   9.767  18.490  0.00  0.00    +0.000 C 
ATOM     17  O   UNL     1       8.757   8.580  17.713  0.00  0.00    +0.000 OA
ENDBRANCH  10  17
ENDBRANCH   1  13
BRANCH   9  18
ATOM     18  C   UNL     1       2.535   6.611  18.933  0.00  0.00    +0.000 A 
ATOM     19  C   UNL     1       2.185   6.976  20.242  0.00  0.00    +0.000 A 
ATOM     20  C   UNL     1       1.613   8.220  20.522  0.00  0.00    +0.000 A 
ATOM     21  C   UNL     1       1.482   9.160  19.502  0.00  0.00    +0.000 A 
ATOM     22  C   UNL     1       1.847   8.842  18.197  0.00  0.00    +0.000 A 
ATOM     23  C   UNL     1       2.331   7.562  17.915  0.00  0.00    +0.000 A 
BRANCH  21  24
ATOM     24  S   UNL     1       0.814  10.763  19.869  0.00  0.00    +0.000 S 
ATOM     25  C   UNL     1      -0.913  10.571  19.510  0.00  0.00    +0.000 C 
ATOM     26  O   UNL     1       0.960  10.981  21.295  0.00  0.00    +0.000 OA
ATOM     27  O   UNL     1       1.376  11.694  18.909  0.00  0.00    +0.000 OA
ENDBRANCH  21  24
ENDBRANCH   9  18
TORSDOF 4
ENDMDL
MODEL 3
REMARK VINA RESULT:      -7.6      0.160      1.320
REMARK  Name = 
REMARK  6 active torsions:
REMARK  status: ('A' for Active; 'I' for Inactive)
REMARK    1  A    between atoms: C_1  and  O_2
REMARK    2  A    between atoms: O_2  and  C_3
REMARK    3  A    between atoms: C_6  and  C_7
REMARK    4  A    between atoms: C_15  and  C_16
REMARK    5  A    between atoms: C_19  and  S_20
REMARK    6  A    between atoms: S_20  and  C_21
REMARK                            x       y       z     vdW  Elec       q    Type
REMARK                         _______ _______ _______ _____ _____    ______ ____
ROOT
ATOM      1  C   UNL     1       4.448   5.022  18.319  0.00  0.00    +0.000 A 
ATOM      2  N   UNL     1       4.628   3.689  18.030  0.00  0.00    +0.000 NA
ATOM      3  C   UNL     1       3.485   3.105  18.284  0.00  0.00    +0.000 A 
ATOM      4  N   UNL     1       3.183   1.768  18.191  0.00  0.00    +0.000 NA
ATOM      5  C   UNL     1       1.976   1.427  18.517  0.00  0.00    +0.000 A 
ATOM      6  C   UNL     1       0.894   2.338  18.962  0.00  0.00    +0.000 A 
ATOM      7  C   UNL     1       1.228   3.633  19.002  0.00  0.00    +0.000 A 
ATOM      8  N   UNL     1       2.528   4.034  18.693  0.00  0.00    +0.000 N 
ATOM      9  C   UNL     1       3.135   5.294  18.715  0.00  0.00    +0.000 A 
ENDROOT
BRANCH   1  13
ATOM     10  C   UNL     1       7.767   7.689  17.857  0.00  0.00    +0.000 A 
ATOM     11  C   UNL     1       7.810   6.658  18.798  0.00  0.00    +0.000 A 
ATOM     12  C   UNL     1       6.724   5.786  18.956  0.00  0.00    +0.000 A 
ATOM     13  C   UNL     1       5.560   5.962  18.197  0.00  0.00    +0.000 A 
ATOM     14  C   UNL     1       5.498   7.053  17.327  0.00  0.00    +0.000 A 
ATOM     15  C   UNL     1       6.603   7.888  17.121  0.00  0.00    +0.000 A 
BRANCH  10  17
ATOM     16  C   UNL     1       8.846   9.694  18.487  0.00  0.00    +0.000 C 
ATOM     17  O   UNL     1       8.890   8.464  17.771  0.00  0.00    +0.000 OA
ENDBRANCH  10  17
ENDBRANCH   1  13
BRANCH   9  18
ATOM     18  C   UNL     1       2.463   6.558  19.078  0.00  0.00    +0.000 A 
ATOM     19  C   UNL     1       2.075   6.838  20.397  0.00  0.00    +0.000 A 
ATOM     20  C   UNL     1       1.452   8.044  20.732  0.00  0.00    +0.000 A 
ATOM     21  C   UNL     1       1.308   9.034  19.762  0.00  0.00    +0.000 A 
ATOM     22  C   UNL     1       1.711   8.802  18.450  0.00  0.00    +0.000 A 
ATOM     23  C   UNL     1       2.245   7.556  18.109  0.00  0.00    +0.000 A 
BRANCH  21  24
ATOM     24  S   UNL     1       0.576  10.590  20.201  0.00  0.00    +0.000 S 
ATOM     25  C   UNL     1       1.362  11.731  19.093  0.00  0.00    +0.000 C 
ATOM     26  O   UNL     1      -0.831  10.522  19.858  0.00  0.00    +0.000 OA
ATOM     27  O   UNL     1       1.003  10.903  21.551  0.00  0.00    +0.000 OA
ENDBRANCH  21  24
ENDBRANCH   9  18
TORSDOF 4
ENDMDL
MODEL 4
REMARK VINA RESULT:      -7.3      0.648      1.381
REMARK  Name = 
REMARK  6 active torsions:
REMARK  status: ('A' for Active; 'I' for Inactive)
REMARK    1  A    between atoms: C_1  and  O_2
REMARK    2  A    between atoms: O_2  and  C_3
REMARK    3  A    between atoms: C_6  and  C_7
REMARK    4  A    between atoms: C_15  and  C_16
REMARK    5  A    between atoms: C_19  and  S_20
REMARK    6  A    between atoms: S_20  and  C_21
REMARK                            x       y       z     vdW  Elec       q    Type
REMARK                         _______ _______ _______ _____ _____    ______ ____
ROOT
ATOM      1  C   UNL     1       4.457   5.049  18.334  0.00  0.00    +0.000 A 
ATOM      2  N   UNL     1       4.616   3.720  18.015  0.00  0.00    +0.000 NA
ATOM      3  C   UNL     1       3.465   3.148  18.260  0.00  0.00    +0.000 A 
ATOM      4  N   UNL     1       3.143   1.818  18.138  0.00  0.00    +0.000 NA
ATOM      5  C   UNL     1       1.932   1.487  18.461  0.00  0.00    +0.000 A 
ATOM      6  C   UNL     1       0.865   2.405  18.929  0.00  0.00    +0.000 A 
ATOM      7  C   UNL     1       1.219   3.693  18.997  0.00  0.00    +0.000 A 
ATOM      8  N   UNL     1       2.524   4.081  18.693  0.00  0.00    +0.000 N 
ATOM      9  C   UNL     1       3.150   5.331  18.741  0.00  0.00    +0.000 A 
ENDROOT
BRANCH   1  13
ATOM     10  C   UNL     1       7.815   7.674  17.921  0.00  0.00    +0.000 A 
ATOM     11  C   UNL     1       7.837   6.634  18.853  0.00  0.00    +0.000 A 
ATOM     12  C   UNL     1       6.739   5.775  18.995  0.00  0.00    +0.000 A 
ATOM     13  C   UNL     1       5.582   5.975  18.229  0.00  0.00    +0.000 A 
ATOM     14  C   UNL     1       5.541   7.074  17.370  0.00  0.00    +0.000 A 
ATOM     15  C   UNL     1       6.660   7.897  17.180  0.00  0.00    +0.000 A 
BRANCH  10  17
ATOM     16  C   UNL     1       8.839   9.755  18.374  0.00  0.00    +0.000 C 
ATOM     17  O   UNL     1       8.949   8.435  17.852  0.00  0.00    +0.000 OA
ENDBRANCH  10  17
ENDBRANCH   1  13
BRANCH   9  18
ATOM     18  C   UNL     1       2.498   6.597  19.135  0.00  0.00    +0.000 A 
ATOM     19  C   UNL     1       2.222   7.609  18.202  0.00  0.00    +0.000 A 
ATOM     20  C   UNL     1       1.592   8.797  18.583  0.00  0.00    +0.000 A 
ATOM     21  C   UNL     1       1.130   8.940  19.890  0.00  0.00    +0.000 A 
ATOM     22  C   UNL     1       1.359   7.942  20.833  0.00  0.00    +0.000 A 
ATOM     23  C   UNL     1       2.074   6.801  20.461  0.00  0.00    +0.000 A 
BRANCH  21  24
ATOM     24  S   UNL     1       0.273  10.421  20.359  0.00  0.00    +0.000 S 
ATOM     25  C   UNL     1      -0.150  10.121  22.055  0.00  0.00    +0.000 C 
ATOM     26  O   UNL     1       1.228  11.511  20.315  0.00  0.00    +0.000 OA
ATOM     27  O   UNL     1      -0.955  10.472  19.588  0.00  0.00    +0.000 OA
ENDBRANCH  21  24
ENDBRANCH   9  18
TORSDOF 4
ENDMDL
MODEL 5
REMARK VINA RESULT:      -7.1      2.246      2.740
REMARK  Name = 
REMARK  6 active torsions:
REMARK  status: ('A' for Active; 'I' for Inactive)
REMARK    1  A    between atoms: C_1  and  O_2
REMARK    2  A    between atoms: O_2  and  C_3
REMARK    3  A    between atoms: C_6  and  C_7
REMARK    4  A    between atoms: C_15  and  C_16
REMARK    5  A    between atoms: C_19  and  S_20
REMARK    6  A    between atoms: S_20  and  C_21
REMARK                            x       y       z     vdW  Elec       q    Type
REMARK                         _______ _______ _______ _____ _____    ______ ____
ROOT
ATOM      1  C   UNL     1       4.196   4.065  18.498  0.00  0.00    +0.000 A 
ATOM      2  N   UNL     1       4.236   2.765  18.948  0.00  0.00    +0.000 NA
ATOM      3  C   UNL     1       3.374   2.693  19.929  0.00  0.00    +0.000 A 
ATOM      4  N   UNL     1       3.090   1.609  20.724  0.00  0.00    +0.000 NA
ATOM      5  C   UNL     1       2.203   1.791  21.651  0.00  0.00    +0.000 A 
ATOM      6  C   UNL     1       1.460   3.045  21.923  0.00  0.00    +0.000 A 
ATOM      7  C   UNL     1       1.747   4.061  21.100  0.00  0.00    +0.000 A 
ATOM      8  N   UNL     1       2.723   3.912  20.114  0.00  0.00    +0.000 N 
ATOM      9  C   UNL     1       3.240   4.820  19.183  0.00  0.00    +0.000 A 
ENDROOT
BRANCH   1  13
ATOM     10  C   UNL     1       6.895   5.236  15.387  0.00  0.00    +0.000 A 
ATOM     11  C   UNL     1       7.098   5.662  16.701  0.00  0.00    +0.000 A 
ATOM     12  C   UNL     1       6.215   5.285  17.722  0.00  0.00    +0.000 A 
ATOM     13  C   UNL     1       5.088   4.506  17.429  0.00  0.00    +0.000 A 
ATOM     14  C   UNL     1       4.849   4.166  16.096  0.00  0.00    +0.000 A 
ATOM     15  C   UNL     1       5.763   4.487  15.084  0.00  0.00    +0.000 A 
BRANCH  10  17
ATOM     16  C   UNL     1       7.671   5.134  13.157  0.00  0.00    +0.000 C 
ATOM     17  O   UNL     1       7.831   5.643  14.478  0.00  0.00    +0.000 OA
ENDBRANCH  10  17
ENDBRANCH   1  13
BRANCH   9  18
ATOM     18  C   UNL     1       2.807   6.224  19.031  0.00  0.00    +0.000 A 
ATOM     19  C   UNL     1       2.885   6.894  17.799  0.00  0.00    +0.000 A 
ATOM     20  C   UNL     1       2.460   8.218  17.663  0.00  0.00    +0.000 A 
ATOM     21  C   UNL     1       1.849   8.856  18.740  0.00  0.00    +0.000 A 
ATOM     22  C   UNL     1       1.727   8.211  19.968  0.00  0.00    +0.000 A 
ATOM     23  C   UNL     1       2.242   6.920  20.116  0.00  0.00    +0.000 A 
BRANCH  21  24
ATOM     24  S   UNL     1       1.250  10.516  18.550  0.00  0.00    +0.000 S 
ATOM     25  C   UNL     1       1.070  11.073  20.225  0.00  0.00    +0.000 C 
ATOM     26  O   UNL     1       2.304  11.291  17.926  0.00  0.00    +0.000 OA
ATOM     27  O   UNL     1      -0.070  10.434  17.956  0.00  0.00    +0.000 OA
ENDBRANCH  21  24
ENDBRANCH   9  18
TORSDOF 4
ENDMDL
MODEL 6
REMARK VINA RESULT:      -6.7      4.592      7.495
REMARK  Name = 
REMARK  6 active torsions:
REMARK  status: ('A' for Active; 'I' for Inactive)
REMARK    1  A    between atoms: C_1  and  O_2
REMARK    2  A    between atoms: O_2  and  C_3
REMARK    3  A    between atoms: C_6  and  C_7
REMARK    4  A    between atoms: C_15  and  C_16
REMARK    5  A    between atoms: C_19  and  S_20
REMARK    6  A    between atoms: S_20  and  C_21
REMARK                            x       y       z     vdW  Elec       q    Type
REMARK                         _______ _______ _______ _____ _____    ______ ____
ROOT
ATOM      1  C   UNL     1       0.177  12.127  18.938  0.00  0.00    +0.000 A 
ATOM      2  N   UNL     1      -1.002  12.829  18.838  0.00  0.00    +0.000 NA
ATOM      3  C   UNL     1      -1.914  11.958  18.486  0.00  0.00    +0.000 A 
ATOM      4  N   UNL     1      -3.241  12.190  18.219  0.00  0.00    +0.000 NA
ATOM      5  C   UNL     1      -3.946  11.160  17.868  0.00  0.00    +0.000 A 
ATOM      6  C   UNL     1      -3.461   9.764  17.744  0.00  0.00    +0.000 A 
ATOM      7  C   UNL     1      -2.171   9.586  18.048  0.00  0.00    +0.000 A 
ATOM      8  N   UNL     1      -1.373  10.676  18.395  0.00  0.00    +0.000 N 
ATOM      9  C   UNL     1      -0.009  10.764  18.694  0.00  0.00    +0.000 A 
ENDROOT
BRANCH   1  13
ATOM     10  C   UNL     1       3.756  14.280  19.886  0.00  0.00    +0.000 A 
ATOM     11  C   UNL     1       3.428  13.996  18.558  0.00  0.00    +0.000 A 
ATOM     12  C   UNL     1       2.261  13.287  18.243  0.00  0.00    +0.000 A 
ATOM     13  C   UNL     1       1.423  12.817  19.263  0.00  0.00    +0.000 A 
ATOM     14  C   UNL     1       1.812  13.030  20.587  0.00  0.00    +0.000 A 
ATOM     15  C   UNL     1       2.945  13.791  20.904  0.00  0.00    +0.000 A 
BRANCH  10  17
ATOM     16  C   UNL     1       5.560  15.435  18.889  0.00  0.00    +0.000 C 
ATOM     17  O   UNL     1       4.905  14.996  20.075  0.00  0.00    +0.000 OA
ENDBRANCH  10  17
ENDBRANCH   1  13
BRANCH   9  18
ATOM     18  C   UNL     1       0.932   9.625  18.727  0.00  0.00    +0.000 A 
ATOM     19  C   UNL     1       1.074   8.814  19.864  0.00  0.00    +0.000 A 
ATOM     20  C   UNL     1       1.956   7.731  19.880  0.00  0.00    +0.000 A 
ATOM     21  C   UNL     1       2.631   7.379  18.713  0.00  0.00    +0.000 A 
ATOM     22  C   UNL     1       2.489   8.143  17.557  0.00  0.00    +0.000 A 
ATOM     23  C   UNL     1       1.676   9.279  17.584  0.00  0.00    +0.000 A 
BRANCH  21  24
ATOM     24  S   UNL     1       3.703   5.965  18.712  0.00  0.00    +0.000 S 
ATOM     25  C   UNL     1       2.813   4.786  17.730  0.00  0.00    +0.000 C 
ATOM     26  O   UNL     1       4.910   6.332  17.997  0.00  0.00    +0.000 OA
ATOM     27  O   UNL     1       3.762   5.468  20.073  0.00  0.00    +0.000 OA
ENDBRANCH  21  24
ENDBRANCH   9  18
TORSDOF 4
ENDMDL
MODEL 7
REMARK VINA RESULT:      -6.6      5.086      9.535
REMARK  Name = 
REMARK  6 active torsions:
REMARK  status: ('A' for Active; 'I' for Inactive)
REMARK    1  A    between atoms: C_1  and  O_2
REMARK    2  A    between atoms: O_2  and  C_3
REMARK    3  A    between atoms: C_6  and  C_7
REMARK    4  A    between atoms: C_15  and  C_16
REMARK    5  A    between atoms: C_19  and  S_20
REMARK    6  A    between atoms: S_20  and  C_21
REMARK                            x       y       z     vdW  Elec       q    Type
REMARK                         _______ _______ _______ _____ _____    ______ ____
ROOT
ATOM      1  C   UNL     1      -0.581  12.514  18.608  0.00  0.00    +0.000 A 
ATOM      2  N   UNL     1      -0.500  13.887  18.564  0.00  0.00    +0.000 NA
ATOM      3  C   UNL     1       0.759  14.182  18.763  0.00  0.00    +0.000 A 
ATOM      4  N   UNL     1       1.328  15.430  18.851  0.00  0.00    +0.000 NA
ATOM      5  C   UNL     1       2.604  15.466  19.073  0.00  0.00    +0.000 A 
ATOM      6  C   UNL     1       3.504  14.298  19.223  0.00  0.00    +0.000 A 
ATOM      7  C   UNL     1       2.908  13.107  19.095  0.00  0.00    +0.000 A 
ATOM      8  N   UNL     1       1.530  13.028  18.892  0.00  0.00    +0.000 N 
ATOM      9  C   UNL     1       0.675  11.927  18.785  0.00  0.00    +0.000 A 
ENDROOT
BRANCH   1  13
ATOM     10  C   UNL     1      -4.403  10.647  18.112  0.00  0.00    +0.000 A 
ATOM     11  C   UNL     1      -4.239  11.701  19.013  0.00  0.00    +0.000 A 
ATOM     12  C   UNL     1      -2.989  12.312  19.183  0.00  0.00    +0.000 A 
ATOM     13  C   UNL     1      -1.873  11.845  18.476  0.00  0.00    +0.000 A 
ATOM     14  C   UNL     1      -2.035  10.732  17.649  0.00  0.00    +0.000 A 
ATOM     15  C   UNL     1      -3.294  10.159  17.430  0.00  0.00    +0.000 A 
BRANCH  10  17
ATOM     16  C   UNL     1      -6.671  10.837  18.749  0.00  0.00    +0.000 C 
ATOM     17  O   UNL     1      -5.670  10.143  18.011  0.00  0.00    +0.000 OA
ENDBRANCH  10  17
ENDBRANCH   1  13
BRANCH   9  18
ATOM     18  C   UNL     1       1.094  10.511  18.851  0.00  0.00    +0.000 A 
ATOM     19  C   UNL     1       1.735   9.878  17.774  0.00  0.00    +0.000 A 
ATOM     20  C   UNL     1       2.140   8.543  17.852  0.00  0.00    +0.000 A 
ATOM     21  C   UNL     1       2.004   7.854  19.055  0.00  0.00    +0.000 A 
ATOM     22  C   UNL     1       1.402   8.462  20.153  0.00  0.00    +0.000 A 
ATOM     23  C   UNL     1       0.916   9.766  20.031  0.00  0.00    +0.000 A 
BRANCH  21  24
ATOM     24  S   UNL     1       2.577   6.179  19.175  0.00  0.00    +0.000 S 
ATOM     25  C   UNL     1       1.749   5.573  20.622  0.00  0.00    +0.000 C 
ATOM     26  O   UNL     1       2.066   5.460  18.025  0.00  0.00    +0.000 OA
ATOM     27  O   UNL     1       4.000   6.228  19.454  0.00  0.00    +0.000 OA
ENDBRANCH  21  24
ENDBRANCH   9  18
TORSDOF 4
ENDMDL
MODEL 8
REMARK VINA RESULT:      -6.6      6.788     10.143
REMARK  Name = 
REMARK  6 active torsions:
REMARK  status: ('A' for Active; 'I' for Inactive)
REMARK    1  A    between atoms: C_1  and  O_2
REMARK    2  A    between atoms: O_2  and  C_3
REMARK    3  A    between atoms: C_6  and  C_7
REMARK    4  A    between atoms: C_15  and  C_16
REMARK    5  A    between atoms: C_19  and  S_20
REMARK    6  A    between atoms: S_20  and  C_21
REMARK                            x       y       z     vdW  Elec       q    Type
REMARK                         _______ _______ _______ _____ _____    ______ ____
ROOT
ATOM      1  C   UNL     1       9.626  14.076  18.399  0.00  0.00    +0.000 A 
ATOM      2  N   UNL     1      10.901  14.529  18.147  0.00  0.00    +0.000 NA
ATOM      3  C   UNL     1      10.803  15.825  17.996  0.00  0.00    +0.000 A 
ATOM      4  N   UNL     1      11.802  16.716  17.685  0.00  0.00    +0.000 NA
ATOM      5  C   UNL     1      11.450  17.958  17.570  0.00  0.00    +0.000 A 
ATOM      6  C   UNL     1      10.085  18.506  17.757  0.00  0.00    +0.000 A 
ATOM      7  C   UNL     1       9.156  17.605  18.093  0.00  0.00    +0.000 A 
ATOM      8  N   UNL     1       9.490  16.253  18.190  0.00  0.00    +0.000 N 
ATOM      9  C   UNL     1       8.707  15.127  18.463  0.00  0.00    +0.000 A 
ENDROOT
BRANCH   1  13
ATOM     10  C   UNL     1       8.992   9.861  18.803  0.00  0.00    +0.000 A 
ATOM     11  C   UNL     1       8.423  10.566  17.740  0.00  0.00    +0.000 A 
ATOM     12  C   UNL     1       8.624  11.946  17.607  0.00  0.00    +0.000 A 
ATOM     13  C   UNL     1       9.368  12.648  18.564  0.00  0.00    +0.000 A 
ATOM     14  C   UNL     1       9.852  11.945  19.669  0.00  0.00    +0.000 A 
ATOM     15  C   UNL     1       9.707  10.555  19.773  0.00  0.00    +0.000 A 
BRANCH  10  17
ATOM     16  C   UNL     1       7.907   8.026  17.783  0.00  0.00    +0.000 C 
ATOM     17  O   UNL     1       8.750   8.515  18.822  0.00  0.00    +0.000 OA
ENDBRANCH  10  17
ENDBRANCH   1  13
BRANCH   9  18
ATOM     18  C   UNL     1       7.257  15.144  18.746  0.00  0.00    +0.000 A 
ATOM     19  C   UNL     1       6.306  14.828  17.762  0.00  0.00    +0.000 A 
ATOM     20  C   UNL     1       4.938  14.834  18.045  0.00  0.00    +0.000 A 
ATOM     21  C   UNL     1       4.509  15.051  19.352  0.00  0.00    +0.000 A 
ATOM     22  C   UNL     1       5.426  15.336  20.360  0.00  0.00    +0.000 A 
ATOM     23  C   UNL     1       6.785  15.421  20.042  0.00  0.00    +0.000 A 
BRANCH  21  24
ATOM     24  S   UNL     1       2.775  14.995  19.726  0.00  0.00    +0.000 S 
ATOM     25  C   UNL     1       2.526  16.454  20.703  0.00  0.00    +0.000 C 
ATOM     26  O   UNL     1       2.054  15.157  18.478  0.00  0.00    +0.000 OA
ATOM     27  O   UNL     1       2.553  13.839  20.573  0.00  0.00    +0.000 OA
ENDBRANCH  21  24
ENDBRANCH   9  18
TORSDOF 4
ENDMDL
MODEL 9
REMARK VINA RESULT:      -6.5      6.670     10.190
REMARK  Name = 
REMARK  6 active torsions:
REMARK  status: ('A' for Active; 'I' for Inactive)
REMARK    1  A    between atoms: C_1  and  O_2
REMARK    2  A    between atoms: O_2  and  C_3
REMARK    3  A    between atoms: C_6  and  C_7
REMARK    4  A    between atoms: C_15  and  C_16
REMARK    5  A    between atoms: C_19  and  S_20
REMARK    6  A    between atoms: S_20  and  C_21
REMARK                            x       y       z     vdW  Elec       q    Type
REMARK                         _______ _______ _______ _____ _____    ______ ____
ROOT
ATOM      1  C   UNL     1       9.485  14.173  18.504  0.00  0.00    +0.000 A 
ATOM      2  N   UNL     1      10.747  14.673  18.277  0.00  0.00    +0.000 NA
ATOM      3  C   UNL     1      10.607  15.968  18.152  0.00  0.00    +0.000 A 
ATOM      4  N   UNL     1      11.579  16.897  17.872  0.00  0.00    +0.000 NA
ATOM      5  C   UNL     1      11.188  18.129  17.779  0.00  0.00    +0.000 A 
ATOM      6  C   UNL     1       9.804  18.628  17.962  0.00  0.00    +0.000 A 
ATOM      7  C   UNL     1       8.901  17.689  18.267  0.00  0.00    +0.000 A 
ATOM      8  N   UNL     1       9.279  16.348  18.340  0.00  0.00    +0.000 N 
ATOM      9  C   UNL     1       8.531  15.190  18.579  0.00  0.00    +0.000 A 
ENDROOT
BRANCH   1  13
ATOM     10  C   UNL     1       8.990   9.930  18.815  0.00  0.00    +0.000 A 
ATOM     11  C   UNL     1       8.443  10.632  17.739  0.00  0.00    +0.000 A 
ATOM     12  C   UNL     1       8.598  12.021  17.635  0.00  0.00    +0.000 A 
ATOM     13  C   UNL     1       9.273  12.733  18.636  0.00  0.00    +0.000 A 
ATOM     14  C   UNL     1       9.733  12.029  19.750  0.00  0.00    +0.000 A 
ATOM     15  C   UNL     1       9.634  10.634  19.827  0.00  0.00    +0.000 A 
BRANCH  10  17
ATOM     16  C   UNL     1       7.884   8.093  17.822  0.00  0.00    +0.000 C 
ATOM     17  O   UNL     1       8.797   8.577  18.802  0.00  0.00    +0.000 OA
ENDBRANCH  10  17
ENDBRANCH   1  13
BRANCH   9  18
ATOM     18  C   UNL     1       7.078  15.154  18.846  0.00  0.00    +0.000 A 
ATOM     19  C   UNL     1       6.545  15.514  20.093  0.00  0.00    +0.000 A 
ATOM     20  C   UNL     1       5.168  15.489  20.330  0.00  0.00    +0.000 A 
ATOM     21  C   UNL     1       4.296  15.205  19.281  0.00  0.00    +0.000 A 
ATOM     22  C   UNL     1       4.790  14.874  18.022  0.00  0.00    +0.000 A 
ATOM     23  C   UNL     1       6.172  14.811  17.825  0.00  0.00    +0.000 A 
BRANCH  21  24
ATOM     24  S   UNL     1       2.545  15.236  19.564  0.00  0.00    +0.000 S 
ATOM     25  C   UNL     1       2.118  13.516  19.639  0.00  0.00    +0.000 C 
ATOM     26  O   UNL     1       2.325  15.816  20.875  0.00  0.00    +0.000 OA
ATOM     27  O   UNL     1       1.926  15.806  18.382  0.00  0.00    +0.000 OA
ENDBRANCH  21  24
ENDBRANCH   9  18
TORSDOF 4
ENDMDL
