MODEL 1
REMARK VINA RESULT:      -8.0      0.000      0.000
REMARK  Name = 
REMARK  2 active torsions:
REMARK  status: ('A' for Active; 'I' for Inactive)
REMARK    1  A    between atoms: C_6  and  C_7
REMARK    2  A    between atoms: C_8  and  C_9
REMARK                            x       y       z     vdW  Elec       q    Type
REMARK                         _______ _______ _______ _____ _____    ______ ____
ROOT
ATOM      1  F   UNL     1       0.410   2.593  20.696  0.00  0.00    +0.000 F 
ATOM      2  C   UNL     1       1.321   3.133  19.875  0.00  0.00    +0.000 A 
ATOM      3  C   UNL     1       1.360   2.733  18.546  0.00  0.00    +0.000 A 
ATOM      4  C   UNL     1       2.309   3.283  17.670  0.00  0.00    +0.000 A 
ATOM      5  C   UNL     1       3.227   4.248  18.147  0.00  0.00    +0.000 A 
ATOM      6  C   UNL     1       4.306   5.000  17.574  0.00  0.00    +0.000 A 
ATOM      7  C   UNL     1       4.825   5.798  18.574  0.00  0.00    +0.000 A 
ATOM      8  N   UNL     1       4.118   5.562  19.721  0.00  0.00    +0.000 N 
ATOM      9  C   UNL     1       3.142   4.621  19.494  0.00  0.00    +0.000 A 
ATOM     10  C   UNL     1       2.203   4.081  20.381  0.00  0.00    +0.000 A 
ATOM     11  H   UNL     1       4.288   6.008  20.611  0.00  0.00    +0.000 HD
ENDROOT
BRANCH   6  12
ATOM     12  C   UNL     1       4.793   4.953  16.227  0.00  0.00    +0.000 C 
ATOM     13  C   UNL     1       6.051   4.638  15.866  0.00  0.00    +0.000 C 
BRANCH  13  14
ATOM     14  C   UNL     1       6.540   4.569  14.482  0.00  0.00    +0.000 A 
ATOM     15  C   UNL     1       5.940   3.696  13.574  0.00  0.00    +0.000 A 
ATOM     16  C   UNL     1       6.408   3.660  12.263  0.00  0.00    +0.000 A 
ATOM     17  C   UNL     1       7.455   4.495  11.895  0.00  0.00    +0.000 A 
ATOM     18  C   UNL     1       7.995   5.331  12.858  0.00  0.00    +0.000 A 
ATOM     19  N   UNL     1       7.564   5.385  14.137  0.00  0.00    +0.000 NA
ENDBRANCH  13  14
ENDBRANCH   6  12
TORSDOF 2
ENDMDL
MODEL 2
REMARK VINA RESULT:      -7.7      2.992      7.211
REMARK  Name = 
REMARK  2 active torsions:
REMARK  status: ('A' for Active; 'I' for Inactive)
REMARK    1  A    between atoms: C_6  and  C_7
REMARK    2  A    between atoms: C_8  and  C_9
REMARK                            x       y       z     vdW  Elec       q    Type
REMARK                         _______ _______ _______ _____ _____    ______ ____
ROOT
ATOM      1  F   UNL     1       7.533   4.299  11.073  0.00  0.00    +0.000 F 
ATOM      2  C   UNL     1       7.029   4.305  12.315  0.00  0.00    +0.000 A 
ATOM      3  C   UNL     1       5.902   3.545  12.596  0.00  0.00    +0.000 A 
ATOM      4  C   UNL     1       5.355   3.541  13.889  0.00  0.00    +0.000 A 
ATOM      5  C   UNL     1       5.959   4.317  14.906  0.00  0.00    +0.000 A 
ATOM      6  C   UNL     1       5.691   4.563  16.295  0.00  0.00    +0.000 A 
ATOM      7  C   UNL     1       6.665   5.428  16.751  0.00  0.00    +0.000 A 
ATOM      8  N   UNL     1       7.502   5.720  15.709  0.00  0.00    +0.000 N 
ATOM      9  C   UNL     1       7.096   5.062  14.573  0.00  0.00    +0.000 A 
ATOM     10  C   UNL     1       7.652   5.078  13.289  0.00  0.00    +0.000 A 
ATOM     11  H   UNL     1       8.303   6.334  15.760  0.00  0.00    +0.000 HD
ENDROOT
BRANCH   6  12
ATOM     12  C   UNL     1       4.620   4.040  17.090  0.00  0.00    +0.000 C 
ATOM     13  C   UNL     1       3.950   4.725  18.036  0.00  0.00    +0.000 C 
BRANCH  13  14
ATOM     14  C   UNL     1       2.837   4.191  18.834  0.00  0.00    +0.000 A 
ATOM     15  C   UNL     1       1.940   3.289  18.263  0.00  0.00    +0.000 A 
ATOM     16  C   UNL     1       0.903   2.783  19.043  0.00  0.00    +0.000 A 
ATOM     17  C   UNL     1       0.793   3.188  20.367  0.00  0.00    +0.000 A 
ATOM     18  C   UNL     1       1.725   4.088  20.855  0.00  0.00    +0.000 A 
ATOM     19  N   UNL     1       2.738   4.597  20.122  0.00  0.00    +0.000 NA
ENDBRANCH  13  14
ENDBRANCH   6  12
TORSDOF 2
ENDMDL
MODEL 3
REMARK VINA RESULT:      -7.6      3.104      7.290
REMARK  Name = 
REMARK  2 active torsions:
REMARK  status: ('A' for Active; 'I' for Inactive)
REMARK    1  A    between atoms: C_6  and  C_7
REMARK    2  A    between atoms: C_8  and  C_9
REMARK                            x       y       z     vdW  Elec       q    Type
REMARK                         _______ _______ _______ _____ _____    ______ ____
ROOT
ATOM      1  F   UNL     1       7.521   4.294  11.060  0.00  0.00    +0.000 F 
ATOM      2  C   UNL     1       7.010   4.311  12.299  0.00  0.00    +0.000 A 
ATOM      3  C   UNL     1       5.858   3.585  12.569  0.00  0.00    +0.000 A 
ATOM      4  C   UNL     1       5.303   3.592  13.858  0.00  0.00    +0.000 A 
ATOM      5  C   UNL     1       5.925   4.344  14.884  0.00  0.00    +0.000 A 
ATOM      6  C   UNL     1       5.656   4.593  16.271  0.00  0.00    +0.000 A 
ATOM      7  C   UNL     1       6.654   5.424  16.738  0.00  0.00    +0.000 A 
ATOM      8  N   UNL     1       7.507   5.694  15.703  0.00  0.00    +0.000 N 
ATOM      9  C   UNL     1       7.087   5.054  14.562  0.00  0.00    +0.000 A 
ATOM     10  C   UNL     1       7.652   5.058  13.281  0.00  0.00    +0.000 A 
ATOM     11  H   UNL     1       8.326   6.282  15.762  0.00  0.00    +0.000 HD
ENDROOT
BRANCH   6  12
ATOM     12  C   UNL     1       4.564   4.100  17.058  0.00  0.00    +0.000 C 
ATOM     13  C   UNL     1       4.249   4.520  18.298  0.00  0.00    +0.000 C 
BRANCH  13  14
ATOM     14  C   UNL     1       3.113   4.028  19.091  0.00  0.00    +0.000 A 
ATOM     15  C   UNL     1       2.383   4.911  19.885  0.00  0.00    +0.000 A 
ATOM     16  C   UNL     1       1.300   4.425  20.614  0.00  0.00    +0.000 A 
ATOM     17  C   UNL     1       0.977   3.077  20.528  0.00  0.00    +0.000 A 
ATOM     18  C   UNL     1       1.755   2.268  19.718  0.00  0.00    +0.000 A 
ATOM     19  N   UNL     1       2.811   2.711  19.001  0.00  0.00    +0.000 NA
ENDBRANCH  13  14
ENDBRANCH   6  12
TORSDOF 2
ENDMDL
MODEL 4
REMARK VINA RESULT:      -7.6      1.749      2.234
REMARK  Name = 
REMARK  2 active torsions:
REMARK  status: ('A' for Active; 'I' for Inactive)
REMARK    1  A    between atoms: C_6  and  C_7
REMARK    2  A    between atoms: C_8  and  C_9
REMARK                            x       y       z     vdW  Elec       q    Type
REMARK                         _______ _______ _______ _____ _____    ______ ____
ROOT
ATOM      1  F   UNL     1       1.431   7.483  21.007  0.00  0.00    +0.000 F 
ATOM      2  C   UNL     1       2.074   6.714  20.118  0.00  0.00    +0.000 A 
ATOM      3  C   UNL     1       2.430   7.248  18.888  0.00  0.00    +0.000 A 
ATOM      4  C   UNL     1       3.100   6.459  17.940  0.00  0.00    +0.000 A 
ATOM      5  C   UNL     1       3.414   5.113  18.247  0.00  0.00    +0.000 A 
ATOM      6  C   UNL     1       4.061   4.034  17.555  0.00  0.00    +0.000 A 
ATOM      7  C   UNL     1       4.064   2.948  18.406  0.00  0.00    +0.000 A 
ATOM      8  N   UNL     1       3.449   3.314  19.572  0.00  0.00    +0.000 N 
ATOM      9  C   UNL     1       3.039   4.624  19.503  0.00  0.00    +0.000 A 
ATOM     10  C   UNL     1       2.369   5.397  20.458  0.00  0.00    +0.000 A 
ATOM     11  H   UNL     1       3.309   2.711  20.370  0.00  0.00    +0.000 HD
ENDROOT
BRANCH   6  12
ATOM     12  C   UNL     1       4.603   4.040  16.229  0.00  0.00    +0.000 C 
ATOM     13  C   UNL     1       5.817   4.512  15.888  0.00  0.00    +0.000 C 
BRANCH  13  14
ATOM     14  C   UNL     1       6.378   4.494  14.530  0.00  0.00    +0.000 A 
ATOM     15  C   UNL     1       5.815   3.673  13.554  0.00  0.00    +0.000 A 
ATOM     16  C   UNL     1       6.352   3.686  12.269  0.00  0.00    +0.000 A 
ATOM     17  C   UNL     1       7.430   4.518  11.995  0.00  0.00    +0.000 A 
ATOM     18  C   UNL     1       7.929   5.301  13.021  0.00  0.00    +0.000 A 
ATOM     19  N   UNL     1       7.431   5.307  14.277  0.00  0.00    +0.000 NA
ENDBRANCH  13  14
ENDBRANCH   6  12
TORSDOF 2
ENDMDL
MODEL 5
REMARK VINA RESULT:      -7.3      0.862      1.240
REMARK  Name = 
REMARK  2 active torsions:
REMARK  status: ('A' for Active; 'I' for Inactive)
REMARK    1  A    between atoms: C_6  and  C_7
REMARK    2  A    between atoms: C_8  and  C_9
REMARK                            x       y       z     vdW  Elec       q    Type
REMARK                         _______ _______ _______ _____ _____    ______ ____
ROOT
ATOM      1  F   UNL     1       0.693   2.654  21.355  0.00  0.00    +0.000 F 
ATOM      2  C   UNL     1       1.568   3.054  20.421  0.00  0.00    +0.000 A 
ATOM      3  C   UNL     1       1.646   2.362  19.221  0.00  0.00    +0.000 A 
ATOM      4  C   UNL     1       2.558   2.761  18.231  0.00  0.00    +0.000 A 
ATOM      5  C   UNL     1       3.400   3.875  18.464  0.00  0.00    +0.000 A 
ATOM      6  C   UNL     1       4.425   4.550  17.721  0.00  0.00    +0.000 A 
ATOM      7  C   UNL     1       4.876   5.593  18.503  0.00  0.00    +0.000 A 
ATOM      8  N   UNL     1       4.181   5.578  19.681  0.00  0.00    +0.000 N 
ATOM      9  C   UNL     1       3.278   4.542  19.688  0.00  0.00    +0.000 A 
ATOM     10  C   UNL     1       2.375   4.156  20.685  0.00  0.00    +0.000 A 
ATOM     11  H   UNL     1       4.311   6.230  20.442  0.00  0.00    +0.000 HD
ENDROOT
BRANCH   6  12
ATOM     12  C   UNL     1       4.923   4.228  16.416  0.00  0.00    +0.000 C 
ATOM     13  C   UNL     1       5.668   5.044  15.646  0.00  0.00    +0.000 C 
BRANCH  13  14
ATOM     14  C   UNL     1       6.196   4.700  14.318  0.00  0.00    +0.000 A 
ATOM     15  C   UNL     1       7.367   5.298  13.857  0.00  0.00    +0.000 A 
ATOM     16  C   UNL     1       7.859   4.944  12.603  0.00  0.00    +0.000 A 
ATOM     17  C   UNL     1       7.170   4.003  11.848  0.00  0.00    +0.000 A 
ATOM     18  C   UNL     1       6.014   3.457  12.380  0.00  0.00    +0.000 A 
ATOM     19  N   UNL     1       5.513   3.784  13.591  0.00  0.00    +0.000 NA
ENDBRANCH  13  14
ENDBRANCH   6  12
TORSDOF 2
ENDMDL
MODEL 6
REMARK VINA RESULT:      -7.1      2.428      2.929
REMARK  Name = 
REMARK  2 active torsions:
REMARK  status: ('A' for Active; 'I' for Inactive)
REMARK    1  A    between atoms: C_6  and  C_7
REMARK    2  A    between atoms: C_8  and  C_9
REMARK                            x       y       z     vdW  Elec       q    Type
REMARK                         _______ _______ _______ _____ _____    ______ ____
ROOT
ATOM      1  F   UNL     1       1.085   9.386  20.124  0.00  0.00    +0.000 F 
ATOM      2  C   UNL     1       1.753   8.384  19.536  0.00  0.00    +0.000 A 
ATOM      3  C   UNL     1       2.195   8.537  18.229  0.00  0.00    +0.000 A 
ATOM      4  C   UNL     1       2.892   7.498  17.592  0.00  0.00    +0.000 A 
ATOM      5  C   UNL     1       3.143   6.293  18.290  0.00  0.00    +0.000 A 
ATOM      6  C   UNL     1       3.793   5.051  17.979  0.00  0.00    +0.000 A 
ATOM      7  C   UNL     1       3.712   4.256  19.103  0.00  0.00    +0.000 A 
ATOM      8  N   UNL     1       3.043   4.950  20.073  0.00  0.00    +0.000 N 
ATOM      9  C   UNL     1       2.682   6.191  19.607  0.00  0.00    +0.000 A 
ATOM     10  C   UNL     1       1.984   7.216  20.255  0.00  0.00    +0.000 A 
ATOM     11  H   UNL     1       2.838   4.604  21.000  0.00  0.00    +0.000 HD
ENDROOT
BRANCH   6  12
ATOM     12  C   UNL     1       4.409   4.667  16.743  0.00  0.00    +0.000 C 
ATOM     13  C   UNL     1       5.390   5.347  16.120  0.00  0.00    +0.000 C 
BRANCH  13  14
ATOM     14  C   UNL     1       6.036   4.937  14.865  0.00  0.00    +0.000 A 
ATOM     15  C   UNL     1       5.412   4.010  14.031  0.00  0.00    +0.000 A 
ATOM     16  C   UNL     1       6.034   3.649  12.838  0.00  0.00    +0.000 A 
ATOM     17  C   UNL     1       7.255   4.224  12.512  0.00  0.00    +0.000 A 
ATOM     18  C   UNL     1       7.806   5.136  13.396  0.00  0.00    +0.000 A 
ATOM     19  N   UNL     1       7.228   5.502  14.561  0.00  0.00    +0.000 NA
ENDBRANCH  13  14
ENDBRANCH   6  12
TORSDOF 2
ENDMDL
MODEL 7
REMARK VINA RESULT:      -6.9      1.845      2.488
REMARK  Name = 
REMARK  2 active torsions:
REMARK  status: ('A' for Active; 'I' for Inactive)
REMARK    1  A    between atoms: C_6  and  C_7
REMARK    2  A    between atoms: C_8  and  C_9
REMARK                            x       y       z     vdW  Elec       q    Type
REMARK                         _______ _______ _______ _____ _____    ______ ____
ROOT
ATOM      1  F   UNL     1       1.179   7.215  21.272  0.00  0.00    +0.000 F 
ATOM      2  C   UNL     1       1.908   6.622  20.316  0.00  0.00    +0.000 A 
ATOM      3  C   UNL     1       2.351   7.372  19.236  0.00  0.00    +0.000 A 
ATOM      4  C   UNL     1       3.111   6.770  18.220  0.00  0.00    +0.000 A 
ATOM      5  C   UNL     1       3.425   5.393  18.304  0.00  0.00    +0.000 A 
ATOM      6  C   UNL     1       4.146   4.460  17.485  0.00  0.00    +0.000 A 
ATOM      7  C   UNL     1       4.102   3.238  18.124  0.00  0.00    +0.000 A 
ATOM      8  N   UNL     1       3.387   3.383  19.281  0.00  0.00    +0.000 N 
ATOM      9  C   UNL     1       2.960   4.682  19.416  0.00  0.00    +0.000 A 
ATOM     10  C   UNL     1       2.199   5.267  20.435  0.00  0.00    +0.000 A 
ATOM     11  H   UNL     1       3.195   2.645  19.943  0.00  0.00    +0.000 HD
ENDROOT
BRANCH   6  12
ATOM     12  C   UNL     1       4.793   4.708  16.231  0.00  0.00    +0.000 C 
ATOM     13  C   UNL     1       5.607   3.846  15.593  0.00  0.00    +0.000 C 
BRANCH  13  14
ATOM     14  C   UNL     1       6.250   4.095  14.296  0.00  0.00    +0.000 A 
ATOM     15  C   UNL     1       7.260   5.051  14.190  0.00  0.00    +0.000 A 
ATOM     16  C   UNL     1       7.868   5.258  12.954  0.00  0.00    +0.000 A 
ATOM     17  C   UNL     1       7.453   4.506  11.863  0.00  0.00    +0.000 A 
ATOM     18  C   UNL     1       6.443   3.579  12.053  0.00  0.00    +0.000 A 
ATOM     19  N   UNL     1       5.834   3.358  13.239  0.00  0.00    +0.000 NA
ENDBRANCH  13  14
ENDBRANCH   6  12
TORSDOF 2
ENDMDL
MODEL 8
REMARK VINA RESULT:      -6.9      4.132      7.533
REMARK  Name = 
REMARK  2 active torsions:
REMARK  status: ('A' for Active; 'I' for Inactive)
REMARK    1  A    between atoms: C_6  and  C_7
REMARK    2  A    between atoms: C_8  and  C_9
REMARK                            x       y       z     vdW  Elec       q    Type
REMARK                         _______ _______ _______ _____ _____    ______ ____
ROOT
ATOM      1  F   UNL     1       3.388   1.436  17.737  0.00  0.00    +0.000 F 
ATOM      2  C   UNL     1       3.217   2.755  17.904  0.00  0.00    +0.000 A 
ATOM      3  C   UNL     1       2.188   3.210  18.717  0.00  0.00    +0.000 A 
ATOM      4  C   UNL     1       1.989   4.588  18.902  0.00  0.00    +0.000 A 
ATOM      5  C   UNL     1       2.843   5.512  18.255  0.00  0.00    +0.000 A 
ATOM      6  C   UNL     1       2.941   6.942  18.198  0.00  0.00    +0.000 A 
ATOM      7  C   UNL     1       4.011   7.246  17.382  0.00  0.00    +0.000 A 
ATOM      8  N   UNL     1       4.560   6.074  16.939  0.00  0.00    +0.000 N 
ATOM      9  C   UNL     1       3.869   5.002  17.450  0.00  0.00    +0.000 A 
ATOM     10  C   UNL     1       4.079   3.632  17.255  0.00  0.00    +0.000 A 
ATOM     11  H   UNL     1       5.356   6.001  16.322  0.00  0.00    +0.000 HD
ENDROOT
BRANCH   6  12
ATOM     12  C   UNL     1       2.100   7.908  18.842  0.00  0.00    +0.000 C 
ATOM     13  C   UNL     1       1.827   7.943  20.161  0.00  0.00    +0.000 C 
BRANCH  13  14
ATOM     14  C   UNL     1       0.983   8.949  20.820  0.00  0.00    +0.000 A 
ATOM     15  C   UNL     1       0.669   8.818  22.172  0.00  0.00    +0.000 A 
ATOM     16  C   UNL     1      -0.118   9.793  22.780  0.00  0.00    +0.000 A 
ATOM     17  C   UNL     1      -0.567  10.868  22.024  0.00  0.00    +0.000 A 
ATOM     18  C   UNL     1      -0.211  10.922  20.688  0.00  0.00    +0.000 A 
ATOM     19  N   UNL     1       0.549   9.990  20.071  0.00  0.00    +0.000 NA
ENDBRANCH  13  14
ENDBRANCH   6  12
TORSDOF 2
ENDMDL
MODEL 9
REMARK VINA RESULT:      -6.9      3.887      7.342
REMARK  Name = 
REMARK  2 active torsions:
REMARK  status: ('A' for Active; 'I' for Inactive)
REMARK    1  A    between atoms: C_6  and  C_7
REMARK    2  A    between atoms: C_8  and  C_9
REMARK                            x       y       z     vdW  Elec       q    Type
REMARK                         _______ _______ _______ _____ _____    ______ ____
ROOT
ATOM      1  F   UNL     1       6.965   4.944  13.980  0.00  0.00    +0.000 F 
ATOM      2  C   UNL     1       6.108   5.015  15.008  0.00  0.00    +0.000 A 
ATOM      3  C   UNL     1       5.576   6.246  15.365  0.00  0.00    +0.000 A 
ATOM      4  C   UNL     1       4.680   6.344  16.442  0.00  0.00    +0.000 A 
ATOM      5  C   UNL     1       4.321   5.180  17.162  0.00  0.00    +0.000 A 
ATOM      6  C   UNL     1       3.473   4.897  18.285  0.00  0.00    +0.000 A 
ATOM      7  C   UNL     1       3.540   3.538  18.514  0.00  0.00    +0.000 A 
ATOM      8  N   UNL     1       4.388   2.988  17.593  0.00  0.00    +0.000 N 
ATOM      9  C   UNL     1       4.881   3.963  16.759  0.00  0.00    +0.000 A 
ATOM     10  C   UNL     1       5.777   3.849  15.690  0.00  0.00    +0.000 A 
ATOM     11  H   UNL     1       4.624   2.008  17.532  0.00  0.00    +0.000 HD
ENDROOT
BRANCH   6  12
ATOM     12  C   UNL     1       2.697   5.823  19.056  0.00  0.00    +0.000 C 
ATOM     13  C   UNL     1       2.580   7.140  18.801  0.00  0.00    +0.000 C 
BRANCH  13  14
ATOM     14  C   UNL     1       1.764   8.081  19.581  0.00  0.00    +0.000 A 
ATOM     15  C   UNL     1       1.437   7.789  20.905  0.00  0.00    +0.000 A 
ATOM     16  C   UNL     1       0.678   8.704  21.630  0.00  0.00    +0.000 A 
ATOM     17  C   UNL     1       0.271   9.882  21.017  0.00  0.00    +0.000 A 
ATOM     18  C   UNL     1       0.638  10.093  19.699  0.00  0.00    +0.000 A 
ATOM     19  N   UNL     1       1.371   9.223  18.970  0.00  0.00    +0.000 NA
ENDBRANCH  13  14
ENDBRANCH   6  12
TORSDOF 2
ENDMDL
