MODEL 1
REMARK VINA RESULT:      -7.7      0.000      0.000
REMARK  Name = 
REMARK  13 active torsions:
REMARK  status: ('A' for Active; 'I' for Inactive)
REMARK    1  A    between atoms: C_1  and  O_2
REMARK    2  A    between atoms: O_2  and  C_3
REMARK    3  A    between atoms: C_3  and  C_5
REMARK    4  A    between atoms: C_6  and  C_7
REMARK    5  A    between atoms: N_9  and  C_10
REMARK    6  A    between atoms: C_16  and  O_17
REMARK    7  A    between atoms: O_17  and  C_18
REMARK    8  A    between atoms: C_18  and  C_19
REMARK    9  A    between atoms: C_19  and  C_20
REMARK   10  A    between atoms: C_20  and  N_21
REMARK   11  A    between atoms: C_22  and  C_23
REMARK   12  A    between atoms: C_25  and  C_26
REMARK   13  A    between atoms: C_27  and  C_28
REMARK                            x       y       z     vdW  Elec       q    Type
REMARK                         _______ _______ _______ _____ _____    ______ ____
ROOT
ATOM      1  C   UNL     1       4.848   5.537  16.901  0.00  0.00    +0.000 A 
ATOM      2  C   UNL     1       5.016   4.164  16.563  0.00  0.00    +0.000 A 
ATOM      3  C   UNL     1       5.735   3.570  15.406  0.00  0.00    +0.000 C 
ATOM      4  N   UNL     1       4.456   3.344  17.461  0.00  0.00    +0.000 NA
ATOM      5  N   UNL     1       3.780   4.162  18.302  0.00  0.00    +0.000 N 
ATOM      6  C   UNL     1       4.048   5.510  18.040  0.00  0.00    +0.000 A 
ENDROOT
BRANCH   5   7
ATOM      7  C   UNL     1       2.922   3.642  19.318  0.00  0.00    +0.000 A 
ATOM      8  C   UNL     1       3.465   3.001  20.436  0.00  0.00    +0.000 A 
ATOM      9  C   UNL     1       2.621   2.582  21.473  0.00  0.00    +0.000 A 
ATOM     10  C   UNL     1       1.239   2.762  21.380  0.00  0.00    +0.000 A 
ATOM     11  C   UNL     1       0.690   3.356  20.248  0.00  0.00    +0.000 A 
ATOM     12  C   UNL     1       1.527   3.796  19.224  0.00  0.00    +0.000 A 
ENDBRANCH   5   7
BRANCH   1  13
ATOM     13  C   UNL     1       5.412   6.689  16.205  0.00  0.00    +0.000 C 
ATOM     14  O   UNL     1       5.216   6.966  15.027  0.00  0.00    +0.000 OA
BRANCH  13  16
ATOM     15  C   UNL     1       7.466   6.842  17.347  0.00  0.00    +0.000 C 
ATOM     16  O   UNL     1       6.218   7.448  17.007  0.00  0.00    +0.000 OA
ENDBRANCH  13  16
ENDBRANCH   1  13
BRANCH   6  17
ATOM     17  O   UNL     1       3.538   6.407  18.885  0.00  0.00    +0.000 OA
BRANCH  17  18
ATOM     18  C   UNL     1       2.543   7.277  18.401  0.00  0.00    +0.000 C 
BRANCH  18  19
ATOM     19  C   UNL     1       2.026   8.121  19.541  0.00  0.00    +0.000 C 
BRANCH  19  20
ATOM     20  C   UNL     1       1.004   9.067  18.943  0.00  0.00    +0.000 C 
BRANCH  20  21
ATOM     21  N   UNL     1       0.724  10.184  19.814  0.00  0.00    +0.000 N 
ATOM     22  C   UNL     1       0.057  10.038  21.031  0.00  0.00    +0.000 A 
ATOM     23  C   UNL     1      -0.340   8.690  21.572  0.00  0.00    +0.000 C 
ATOM     24  C   UNL     1      -0.217  11.127  21.767  0.00  0.00    +0.000 A 
ATOM     25  C   UNL     1       0.129  12.449  21.299  0.00  0.00    +0.000 A 
ATOM     26  C   UNL     1      -0.251  13.609  22.180  0.00  0.00    +0.000 C 
ATOM     27  C   UNL     1       0.788  12.584  20.129  0.00  0.00    +0.000 A 
ATOM     28  C   UNL     1       1.231  11.411  19.367  0.00  0.00    +0.000 A 
ATOM     29  O   UNL     1       1.987  11.543  18.409  0.00  0.00    +0.000 OA
BRANCH  27  30
ATOM     30  C   UNL     1       1.179  13.974  19.654  0.00  0.00    +0.000 C 
ATOM     31  N   UNL     1       1.503  15.128  19.261  0.00  0.00    +0.000 NA
ENDBRANCH  27  30
ENDBRANCH  20  21
ENDBRANCH  19  20
ENDBRANCH  18  19
ENDBRANCH  17  18
ENDBRANCH   6  17
TORSDOF 9
ENDMDL
MODEL 2
REMARK VINA RESULT:      -7.6      1.394      1.874
REMARK  Name = 
REMARK  13 active torsions:
REMARK  status: ('A' for Active; 'I' for Inactive)
REMARK    1  A    between atoms: C_1  and  O_2
REMARK    2  A    between atoms: O_2  and  C_3
REMARK    3  A    between atoms: C_3  and  C_5
REMARK    4  A    between atoms: C_6  and  C_7
REMARK    5  A    between atoms: N_9  and  C_10
REMARK    6  A    between atoms: C_16  and  O_17
REMARK    7  A    between atoms: O_17  and  C_18
REMARK    8  A    between atoms: C_18  and  C_19
REMARK    9  A    between atoms: C_19  and  C_20
REMARK   10  A    between atoms: C_20  and  N_21
REMARK   11  A    between atoms: C_22  and  C_23
REMARK   12  A    between atoms: C_25  and  C_26
REMARK   13  A    between atoms: C_27  and  C_28
REMARK                            x       y       z     vdW  Elec       q    Type
REMARK                         _______ _______ _______ _____ _____    ______ ____
ROOT
ATOM      1  C   UNL     1       5.961   6.013  17.908  0.00  0.00    +0.000 A 
ATOM      2  C   UNL     1       6.599   5.362  19.003  0.00  0.00    +0.000 A 
ATOM      3  C   UNL     1       8.045   5.305  19.338  0.00  0.00    +0.000 C 
ATOM      4  N   UNL     1       5.725   4.766  19.823  0.00  0.00    +0.000 NA
ATOM      5  N   UNL     1       4.531   4.876  19.194  0.00  0.00    +0.000 N 
ATOM      6  C   UNL     1       4.616   5.689  18.059  0.00  0.00    +0.000 A 
ENDROOT
BRANCH   5   7
ATOM      7  C   UNL     1       3.363   4.221  19.692  0.00  0.00    +0.000 A 
ATOM      8  C   UNL     1       2.492   4.898  20.552  0.00  0.00    +0.000 A 
ATOM      9  C   UNL     1       1.300   4.283  20.957  0.00  0.00    +0.000 A 
ATOM     10  C   UNL     1       0.996   2.984  20.542  0.00  0.00    +0.000 A 
ATOM     11  C   UNL     1       1.882   2.290  19.725  0.00  0.00    +0.000 A 
ATOM     12  C   UNL     1       3.058   2.906  19.300  0.00  0.00    +0.000 A 
ENDBRANCH   5   7
BRANCH   1  13
ATOM     13  C   UNL     1       6.596   6.839  16.886  0.00  0.00    +0.000 C 
ATOM     14  O   UNL     1       7.243   7.857  17.104  0.00  0.00    +0.000 OA
BRANCH  13  16
ATOM     15  C   UNL     1       6.985   5.103  15.343  0.00  0.00    +0.000 C 
ATOM     16  O   UNL     1       6.383   6.368  15.621  0.00  0.00    +0.000 OA
ENDBRANCH  13  16
ENDBRANCH   1  13
BRANCH   6  17
ATOM     17  O   UNL     1       3.476   5.975  17.428  0.00  0.00    +0.000 OA
BRANCH  17  18
ATOM     18  C   UNL     1       3.114   7.329  17.303  0.00  0.00    +0.000 C 
BRANCH  18  19
ATOM     19  C   UNL     1       2.548   7.813  18.616  0.00  0.00    +0.000 C 
BRANCH  19  20
ATOM     20  C   UNL     1       1.343   8.667  18.274  0.00  0.00    +0.000 C 
BRANCH  20  21
ATOM     21  N   UNL     1       1.278   9.861  19.083  0.00  0.00    +0.000 N 
ATOM     22  C   UNL     1       0.723   9.871  20.364  0.00  0.00    +0.000 A 
ATOM     23  C   UNL     1       0.235   8.615  21.035  0.00  0.00    +0.000 C 
ATOM     24  C   UNL     1       0.647  11.028  21.040  0.00  0.00    +0.000 A 
ATOM     25  C   UNL     1       1.088  12.268  20.448  0.00  0.00    +0.000 A 
ATOM     26  C   UNL     1       0.930  13.517  21.273  0.00  0.00    +0.000 C 
ATOM     27  C   UNL     1       1.639  12.252  19.215  0.00  0.00    +0.000 A 
ATOM     28  C   UNL     1       1.870  10.991  18.504  0.00  0.00    +0.000 A 
ATOM     29  O   UNL     1       2.537  10.973  17.473  0.00  0.00    +0.000 OA
BRANCH  27  30
ATOM     30  C   UNL     1       2.133  13.555  18.607  0.00  0.00    +0.000 C 
ATOM     31  N   UNL     1       2.542  14.636  18.102  0.00  0.00    +0.000 NA
ENDBRANCH  27  30
ENDBRANCH  20  21
ENDBRANCH  19  20
ENDBRANCH  18  19
ENDBRANCH  17  18
ENDBRANCH   6  17
TORSDOF 9
ENDMDL
MODEL 3
REMARK VINA RESULT:      -7.6      1.261      2.276
REMARK  Name = 
REMARK  13 active torsions:
REMARK  status: ('A' for Active; 'I' for Inactive)
REMARK    1  A    between atoms: C_1  and  O_2
REMARK    2  A    between atoms: O_2  and  C_3
REMARK    3  A    between atoms: C_3  and  C_5
REMARK    4  A    between atoms: C_6  and  C_7
REMARK    5  A    between atoms: N_9  and  C_10
REMARK    6  A    between atoms: C_16  and  O_17
REMARK    7  A    between atoms: O_17  and  C_18
REMARK    8  A    between atoms: C_18  and  C_19
REMARK    9  A    between atoms: C_19  and  C_20
REMARK   10  A    between atoms: C_20  and  N_21
REMARK   11  A    between atoms: C_22  and  C_23
REMARK   12  A    between atoms: C_25  and  C_26
REMARK   13  A    between atoms: C_27  and  C_28
REMARK                            x       y       z     vdW  Elec       q    Type
REMARK                         _______ _______ _______ _____ _____    ______ ____
ROOT
ATOM      1  C   UNL     1       4.827   5.626  16.807  0.00  0.00    +0.000 A 
ATOM      2  C   UNL     1       5.004   4.236  16.555  0.00  0.00    +0.000 A 
ATOM      3  C   UNL     1       5.770   3.577  15.464  0.00  0.00    +0.000 C 
ATOM      4  N   UNL     1       4.405   3.469  17.473  0.00  0.00    +0.000 NA
ATOM      5  N   UNL     1       3.697   4.334  18.237  0.00  0.00    +0.000 N 
ATOM      6  C   UNL     1       3.979   5.664  17.911  0.00  0.00    +0.000 A 
ENDROOT
BRANCH   5   7
ATOM      7  C   UNL     1       2.795   3.872  19.244  0.00  0.00    +0.000 A 
ATOM      8  C   UNL     1       1.483   3.526  18.906  0.00  0.00    +0.000 A 
ATOM      9  C   UNL     1       0.636   2.982  19.881  0.00  0.00    +0.000 A 
ATOM     10  C   UNL     1       1.079   2.823  21.196  0.00  0.00    +0.000 A 
ATOM     11  C   UNL     1       2.368   3.210  21.547  0.00  0.00    +0.000 A 
ATOM     12  C   UNL     1       3.223   3.730  20.576  0.00  0.00    +0.000 A 
ENDBRANCH   5   7
BRANCH   1  13
ATOM     13  C   UNL     1       5.422   6.737  16.070  0.00  0.00    +0.000 C 
ATOM     14  O   UNL     1       5.134   7.056  14.922  0.00  0.00    +0.000 OA
BRANCH  13  16
ATOM     15  C   UNL     1       7.410   6.574  17.321  0.00  0.00    +0.000 C 
ATOM     16  O   UNL     1       6.372   7.401  16.795  0.00  0.00    +0.000 OA
ENDBRANCH  13  16
ENDBRANCH   1  13
BRANCH   6  17
ATOM     17  O   UNL     1       3.437   6.608  18.681  0.00  0.00    +0.000 OA
BRANCH  17  18
ATOM     18  C   UNL     1       2.680   7.616  18.054  0.00  0.00    +0.000 C 
BRANCH  18  19
ATOM     19  C   UNL     1       1.970   8.430  19.108  0.00  0.00    +0.000 C 
BRANCH  19  20
ATOM     20  C   UNL     1       1.207   9.513  18.370  0.00  0.00    +0.000 C 
BRANCH  20  21
ATOM     21  N   UNL     1       0.983  10.676  19.195  0.00  0.00    +0.000 N 
ATOM     22  C   UNL     1       1.654  11.883  18.989  0.00  0.00    +0.000 A 
ATOM     23  C   UNL     1       2.595  12.089  17.832  0.00  0.00    +0.000 C 
ATOM     24  C   UNL     1       1.436  12.909  19.826  0.00  0.00    +0.000 A 
ATOM     25  C   UNL     1       0.553  12.771  20.960  0.00  0.00    +0.000 A 
ATOM     26  C   UNL     1       0.401  13.969  21.860  0.00  0.00    +0.000 C 
ATOM     27  C   UNL     1      -0.106  11.609  21.147  0.00  0.00    +0.000 A 
ATOM     28  C   UNL     1      -0.005  10.515  20.175  0.00  0.00    +0.000 A 
ATOM     29  O   UNL     1      -0.749   9.541  20.257  0.00  0.00    +0.000 OA
BRANCH  27  30
ATOM     30  C   UNL     1      -1.060  11.477  22.323  0.00  0.00    +0.000 C 
ATOM     31  N   UNL     1      -1.851  11.368  23.300  0.00  0.00    +0.000 NA
ENDBRANCH  27  30
ENDBRANCH  20  21
ENDBRANCH  19  20
ENDBRANCH  18  19
ENDBRANCH  17  18
ENDBRANCH   6  17
TORSDOF 9
ENDMDL
MODEL 4
REMARK VINA RESULT:      -7.6      0.831      1.261
REMARK  Name = 
REMARK  13 active torsions:
REMARK  status: ('A' for Active; 'I' for Inactive)
REMARK    1  A    between atoms: C_1  and  O_2
REMARK    2  A    between atoms: O_2  and  C_3
REMARK    3  A    between atoms: C_3  and  C_5
REMARK    4  A    between atoms: C_6  and  C_7
REMARK    5  A    between atoms: N_9  and  C_10
REMARK    6  A    between atoms: C_16  and  O_17
REMARK    7  A    between atoms: O_17  and  C_18
REMARK    8  A    between atoms: C_18  and  C_19
REMARK    9  A    between atoms: C_19  and  C_20
REMARK   10  A    between atoms: C_20  and  N_21
REMARK   11  A    between atoms: C_22  and  C_23
REMARK   12  A    between atoms: C_25  and  C_26
REMARK   13  A    between atoms: C_27  and  C_28
REMARK                            x       y       z     vdW  Elec       q    Type
REMARK                         _______ _______ _______ _____ _____    ______ ____
ROOT
ATOM      1  C   UNL     1       5.020   5.382  16.708  0.00  0.00    +0.000 A 
ATOM      2  C   UNL     1       5.079   3.988  16.424  0.00  0.00    +0.000 A 
ATOM      3  C   UNL     1       5.766   3.294  15.304  0.00  0.00    +0.000 C 
ATOM      4  N   UNL     1       4.438   3.252  17.340  0.00  0.00    +0.000 NA
ATOM      5  N   UNL     1       3.819   4.155  18.136  0.00  0.00    +0.000 N 
ATOM      6  C   UNL     1       4.202   5.465  17.831  0.00  0.00    +0.000 A 
ENDROOT
BRANCH   5   7
ATOM      7  C   UNL     1       2.902   3.746  19.153  0.00  0.00    +0.000 A 
ATOM      8  C   UNL     1       1.528   3.727  18.894  0.00  0.00    +0.000 A 
ATOM      9  C   UNL     1       0.646   3.232  19.864  0.00  0.00    +0.000 A 
ATOM     10  C   UNL     1       1.125   2.796  21.102  0.00  0.00    +0.000 A 
ATOM     11  C   UNL     1       2.487   2.857  21.381  0.00  0.00    +0.000 A 
ATOM     12  C   UNL     1       3.371   3.327  20.411  0.00  0.00    +0.000 A 
ENDBRANCH   5   7
BRANCH   1  13
ATOM     13  C   UNL     1       5.690   6.457  15.982  0.00  0.00    +0.000 C 
ATOM     14  O   UNL     1       5.160   7.175  15.141  0.00  0.00    +0.000 OA
BRANCH  13  16
ATOM     15  C   UNL     1       7.257   7.453  17.429  0.00  0.00    +0.000 C 
ATOM     16  O   UNL     1       7.007   6.584  16.323  0.00  0.00    +0.000 OA
ENDBRANCH  13  16
ENDBRANCH   1  13
BRANCH   6  17
ATOM     17  O   UNL     1       3.754   6.432  18.632  0.00  0.00    +0.000 OA
BRANCH  17  18
ATOM     18  C   UNL     1       2.918   7.417  18.073  0.00  0.00    +0.000 C 
BRANCH  18  19
ATOM     19  C   UNL     1       2.034   7.989  19.155  0.00  0.00    +0.000 C 
BRANCH  19  20
ATOM     20  C   UNL     1       1.145   9.016  18.482  0.00  0.00    +0.000 C 
BRANCH  20  21
ATOM     21  N   UNL     1       1.168  10.286  19.168  0.00  0.00    +0.000 N 
ATOM     22  C   UNL     1       0.529  10.490  20.392  0.00  0.00    +0.000 A 
ATOM     23  C   UNL     1      -0.156   9.373  21.135  0.00  0.00    +0.000 C 
ATOM     24  C   UNL     1       0.546  11.711  20.949  0.00  0.00    +0.000 A 
ATOM     25  C   UNL     1       1.177  12.825  20.282  0.00  0.00    +0.000 A 
ATOM     26  C   UNL     1       1.114  14.162  20.972  0.00  0.00    +0.000 C 
ATOM     27  C   UNL     1       1.808  12.621  19.107  0.00  0.00    +0.000 A 
ATOM     28  C   UNL     1       1.934  11.275  18.537  0.00  0.00    +0.000 A 
ATOM     29  O   UNL     1       2.666  11.076  17.571  0.00  0.00    +0.000 OA
BRANCH  27  30
ATOM     30  C   UNL     1       2.499  13.789  18.423  0.00  0.00    +0.000 C 
ATOM     31  N   UNL     1       3.073  14.759  17.856  0.00  0.00    +0.000 NA
ENDBRANCH  27  30
ENDBRANCH  20  21
ENDBRANCH  19  20
ENDBRANCH  18  19
ENDBRANCH  17  18
ENDBRANCH   6  17
TORSDOF 9
ENDMDL
MODEL 5
REMARK VINA RESULT:      -7.5      1.567      1.989
REMARK  Name = 
REMARK  13 active torsions:
REMARK  status: ('A' for Active; 'I' for Inactive)
REMARK    1  A    between atoms: C_1  and  O_2
REMARK    2  A    between atoms: O_2  and  C_3
REMARK    3  A    between atoms: C_3  and  C_5
REMARK    4  A    between atoms: C_6  and  C_7
REMARK    5  A    between atoms: N_9  and  C_10
REMARK    6  A    between atoms: C_16  and  O_17
REMARK    7  A    between atoms: O_17  and  C_18
REMARK    8  A    between atoms: C_18  and  C_19
REMARK    9  A    between atoms: C_19  and  C_20
REMARK   10  A    between atoms: C_20  and  N_21
REMARK   11  A    between atoms: C_22  and  C_23
REMARK   12  A    between atoms: C_25  and  C_26
REMARK   13  A    between atoms: C_27  and  C_28
REMARK                            x       y       z     vdW  Elec       q    Type
REMARK                         _______ _______ _______ _____ _____    ______ ____
ROOT
ATOM      1  C   UNL     1       4.776   5.731  16.868  0.00  0.00    +0.000 A 
ATOM      2  C   UNL     1       4.973   4.343  16.623  0.00  0.00    +0.000 A 
ATOM      3  C   UNL     1       5.770   3.690  15.551  0.00  0.00    +0.000 C 
ATOM      4  N   UNL     1       4.361   3.571  17.529  0.00  0.00    +0.000 NA
ATOM      5  N   UNL     1       3.627   4.430  18.274  0.00  0.00    +0.000 N 
ATOM      6  C   UNL     1       3.903   5.763  17.952  0.00  0.00    +0.000 A 
ENDROOT
BRANCH   5   7
ATOM      7  C   UNL     1       2.706   3.961  19.261  0.00  0.00    +0.000 A 
ATOM      8  C   UNL     1       1.517   3.337  18.872  0.00  0.00    +0.000 A 
ATOM      9  C   UNL     1       0.668   2.794  19.845  0.00  0.00    +0.000 A 
ATOM     10  C   UNL     1       0.981   2.907  21.202  0.00  0.00    +0.000 A 
ATOM     11  C   UNL     1       2.139   3.568  21.596  0.00  0.00    +0.000 A 
ATOM     12  C   UNL     1       2.999   4.090  20.631  0.00  0.00    +0.000 A 
ENDBRANCH   5   7
BRANCH   1  13
ATOM     13  C   UNL     1       5.377   6.847  16.144  0.00  0.00    +0.000 C 
ATOM     14  O   UNL     1       5.154   7.128  14.972  0.00  0.00    +0.000 OA
BRANCH  13  16
ATOM     15  C   UNL     1       7.398   6.835  17.352  0.00  0.00    +0.000 C 
ATOM     16  O   UNL     1       6.252   7.564  16.911  0.00  0.00    +0.000 OA
ENDBRANCH  13  16
ENDBRANCH   1  13
BRANCH   6  17
ATOM     17  O   UNL     1       3.334   6.703  18.708  0.00  0.00    +0.000 OA
BRANCH  17  18
ATOM     18  C   UNL     1       2.392   7.555  18.102  0.00  0.00    +0.000 C 
BRANCH  18  19
ATOM     19  C   UNL     1       1.613   8.276  19.175  0.00  0.00    +0.000 C 
BRANCH  19  20
ATOM     20  C   UNL     1       1.629   9.745  18.801  0.00  0.00    +0.000 C 
BRANCH  20  21
ATOM     21  N   UNL     1       0.438  10.430  19.243  0.00  0.00    +0.000 N 
ATOM     22  C   UNL     1      -0.752  10.413  18.514  0.00  0.00    +0.000 A 
ATOM     23  C   UNL     1      -0.910   9.601  17.257  0.00  0.00    +0.000 C 
ATOM     24  C   UNL     1      -1.807  11.115  18.958  0.00  0.00    +0.000 A 
ATOM     25  C   UNL     1      -1.716  11.922  20.151  0.00  0.00    +0.000 A 
ATOM     26  C   UNL     1      -2.943  12.700  20.547  0.00  0.00    +0.000 C 
ATOM     27  C   UNL     1      -0.569  11.924  20.862  0.00  0.00    +0.000 A 
ATOM     28  C   UNL     1       0.556  11.059  20.490  0.00  0.00    +0.000 A 
ATOM     29  O   UNL     1       1.516  10.929  21.245  0.00  0.00    +0.000 OA
BRANCH  27  30
ATOM     30  C   UNL     1      -0.487  12.749  22.136  0.00  0.00    +0.000 C 
ATOM     31  N   UNL     1      -0.420  13.433  23.194  0.00  0.00    +0.000 NA
ENDBRANCH  27  30
ENDBRANCH  20  21
ENDBRANCH  19  20
ENDBRANCH  18  19
ENDBRANCH  17  18
ENDBRANCH   6  17
TORSDOF 9
ENDMDL
MODEL 6
REMARK VINA RESULT:      -7.5      2.375      4.650
REMARK  Name = 
REMARK  13 active torsions:
REMARK  status: ('A' for Active; 'I' for Inactive)
REMARK    1  A    between atoms: C_1  and  O_2
REMARK    2  A    between atoms: O_2  and  C_3
REMARK    3  A    between atoms: C_3  and  C_5
REMARK    4  A    between atoms: C_6  and  C_7
REMARK    5  A    between atoms: N_9  and  C_10
REMARK    6  A    between atoms: C_16  and  O_17
REMARK    7  A    between atoms: O_17  and  C_18
REMARK    8  A    between atoms: C_18  and  C_19
REMARK    9  A    between atoms: C_19  and  C_20
REMARK   10  A    between atoms: C_20  and  N_21
REMARK   11  A    between atoms: C_22  and  C_23
REMARK   12  A    between atoms: C_25  and  C_26
REMARK   13  A    between atoms: C_27  and  C_28
REMARK                            x       y       z     vdW  Elec       q    Type
REMARK                         _______ _______ _______ _____ _____    ______ ____
ROOT
ATOM      1  C   UNL     1       2.685   3.738  19.228  0.00  0.00    +0.000 A 
ATOM      2  C   UNL     1       3.474   2.882  18.409  0.00  0.00    +0.000 A 
ATOM      3  C   UNL     1       3.215   1.473  18.013  0.00  0.00    +0.000 C 
ATOM      4  N   UNL     1       4.567   3.492  17.935  0.00  0.00    +0.000 NA
ATOM      5  N   UNL     1       4.594   4.690  18.564  0.00  0.00    +0.000 N 
ATOM      6  C   UNL     1       3.431   4.911  19.308  0.00  0.00    +0.000 A 
ENDROOT
BRANCH   5   7
ATOM      7  C   UNL     1       5.706   5.577  18.431  0.00  0.00    +0.000 A 
ATOM      8  C   UNL     1       6.821   5.434  19.264  0.00  0.00    +0.000 A 
ATOM      9  C   UNL     1       7.946   6.245  19.061  0.00  0.00    +0.000 A 
ATOM     10  C   UNL     1       7.946   7.220  18.061  0.00  0.00    +0.000 A 
ATOM     11  C   UNL     1       6.822   7.396  17.261  0.00  0.00    +0.000 A 
ATOM     12  C   UNL     1       5.709   6.578  17.444  0.00  0.00    +0.000 A 
ENDBRANCH   5   7
BRANCH   1  13
ATOM     13  C   UNL     1       1.387   3.436  19.823  0.00  0.00    +0.000 C 
ATOM     14  O   UNL     1       0.408   3.029  19.207  0.00  0.00    +0.000 OA
BRANCH  13  16
ATOM     15  C   UNL     1       1.967   2.655  21.967  0.00  0.00    +0.000 C 
ATOM     16  O   UNL     1       1.355   3.670  21.169  0.00  0.00    +0.000 OA
ENDBRANCH  13  16
ENDBRANCH   1  13
BRANCH   6  17
ATOM     17  O   UNL     1       3.286   6.112  19.870  0.00  0.00    +0.000 OA
BRANCH  17  18
ATOM     18  C   UNL     1       2.209   6.913  19.448  0.00  0.00    +0.000 C 
BRANCH  18  19
ATOM     19  C   UNL     1       1.439   7.386  20.657  0.00  0.00    +0.000 C 
BRANCH  19  20
ATOM     20  C   UNL     1       1.840   8.831  20.880  0.00  0.00    +0.000 C 
BRANCH  20  21
ATOM     21  N   UNL     1       0.757   9.743  20.598  0.00  0.00    +0.000 N 
ATOM     22  C   UNL     1       0.505  10.234  19.316  0.00  0.00    +0.000 A 
ATOM     23  C   UNL     1       1.286   9.777  18.114  0.00  0.00    +0.000 C 
ATOM     24  C   UNL     1      -0.486  11.122  19.133  0.00  0.00    +0.000 A 
ATOM     25  C   UNL     1      -1.265  11.608  20.247  0.00  0.00    +0.000 A 
ATOM     26  C   UNL     1      -2.332  12.626  19.945  0.00  0.00    +0.000 C 
ATOM     27  C   UNL     1      -1.029  11.118  21.483  0.00  0.00    +0.000 A 
ATOM     28  C   UNL     1      -0.054  10.045  21.700  0.00  0.00    +0.000 A 
ATOM     29  O   UNL     1       0.018   9.482  22.789  0.00  0.00    +0.000 OA
BRANCH  27  30
ATOM     30  C   UNL     1      -1.873  11.608  22.648  0.00  0.00    +0.000 C 
ATOM     31  N   UNL     1      -2.573  12.013  23.617  0.00  0.00    +0.000 NA
ENDBRANCH  27  30
ENDBRANCH  20  21
ENDBRANCH  19  20
ENDBRANCH  18  19
ENDBRANCH  17  18
ENDBRANCH   6  17
TORSDOF 9
ENDMDL
MODEL 7
REMARK VINA RESULT:      -7.5      1.277      1.497
REMARK  Name = 
REMARK  13 active torsions:
REMARK  status: ('A' for Active; 'I' for Inactive)
REMARK    1  A    between atoms: C_1  and  O_2
REMARK    2  A    between atoms: O_2  and  C_3
REMARK    3  A    between atoms: C_3  and  C_5
REMARK    4  A    between atoms: C_6  and  C_7
REMARK    5  A    between atoms: N_9  and  C_10
REMARK    6  A    between atoms: C_16  and  O_17
REMARK    7  A    between atoms: O_17  and  C_18
REMARK    8  A    between atoms: C_18  and  C_19
REMARK    9  A    between atoms: C_19  and  C_20
REMARK   10  A    between atoms: C_20  and  N_21
REMARK   11  A    between atoms: C_22  and  C_23
REMARK   12  A    between atoms: C_25  and  C_26
REMARK   13  A    between atoms: C_27  and  C_28
REMARK                            x       y       z     vdW  Elec       q    Type
REMARK                         _______ _______ _______ _____ _____    ______ ____
ROOT
ATOM      1  C   UNL     1       5.476   5.745  17.407  0.00  0.00    +0.000 A 
ATOM      2  C   UNL     1       6.273   4.789  18.099  0.00  0.00    +0.000 A 
ATOM      3  C   UNL     1       7.720   4.490  17.936  0.00  0.00    +0.000 C 
ATOM      4  N   UNL     1       5.580   4.123  19.030  0.00  0.00    +0.000 NA
ATOM      5  N   UNL     1       4.296   4.512  18.849  0.00  0.00    +0.000 N 
ATOM      6  C   UNL     1       4.196   5.551  17.918  0.00  0.00    +0.000 A 
ENDROOT
BRANCH   5   7
ATOM      7  C   UNL     1       3.223   3.898  19.564  0.00  0.00    +0.000 A 
ATOM      8  C   UNL     1       2.391   2.972  18.925  0.00  0.00    +0.000 A 
ATOM      9  C   UNL     1       1.405   2.303  19.661  0.00  0.00    +0.000 A 
ATOM     10  C   UNL     1       1.218   2.583  21.017  0.00  0.00    +0.000 A 
ATOM     11  C   UNL     1       2.012   3.537  21.645  0.00  0.00    +0.000 A 
ATOM     12  C   UNL     1       3.011   4.189  20.924  0.00  0.00    +0.000 A 
ENDBRANCH   5   7
BRANCH   1  13
ATOM     13  C   UNL     1       5.927   6.708  16.407  0.00  0.00    +0.000 C 
ATOM     14  O   UNL     1       5.252   7.120  15.471  0.00  0.00    +0.000 OA
BRANCH  13  16
ATOM     15  C   UNL     1       7.374   8.184  17.535  0.00  0.00    +0.000 C 
ATOM     16  O   UNL     1       7.218   7.110  16.607  0.00  0.00    +0.000 OA
ENDBRANCH  13  16
ENDBRANCH   1  13
BRANCH   6  17
ATOM     17  O   UNL     1       2.994   6.105  17.750  0.00  0.00    +0.000 OA
BRANCH  17  18
ATOM     18  C   UNL     1       2.603   7.116  18.648  0.00  0.00    +0.000 C 
BRANCH  18  19
ATOM     19  C   UNL     1       2.703   8.455  17.958  0.00  0.00    +0.000 C 
BRANCH  19  20
ATOM     20  C   UNL     1       1.333   9.094  18.062  0.00  0.00    +0.000 C 
BRANCH  20  21
ATOM     21  N   UNL     1       1.339  10.255  18.920  0.00  0.00    +0.000 N 
ATOM     22  C   UNL     1       0.816  10.236  20.214  0.00  0.00    +0.000 A 
ATOM     23  C   UNL     1       0.289   8.976  20.847  0.00  0.00    +0.000 C 
ATOM     24  C   UNL     1       0.806  11.367  20.937  0.00  0.00    +0.000 A 
ATOM     25  C   UNL     1       1.288  12.610  20.383  0.00  0.00    +0.000 A 
ATOM     26  C   UNL     1       1.204  13.830  21.262  0.00  0.00    +0.000 C 
ATOM     27  C   UNL     1       1.807  12.621  19.138  0.00  0.00    +0.000 A 
ATOM     28  C   UNL     1       1.966  11.381  18.371  0.00  0.00    +0.000 A 
ATOM     29  O   UNL     1       2.607  11.377  17.323  0.00  0.00    +0.000 OA
BRANCH  27  30
ATOM     30  C   UNL     1       2.343  13.925  18.569  0.00  0.00    +0.000 C 
ATOM     31  N   UNL     1       2.787  15.008  18.098  0.00  0.00    +0.000 NA
ENDBRANCH  27  30
ENDBRANCH  20  21
ENDBRANCH  19  20
ENDBRANCH  18  19
ENDBRANCH  17  18
ENDBRANCH   6  17
TORSDOF 9
ENDMDL
MODEL 8
REMARK VINA RESULT:      -7.4      1.553      2.489
REMARK  Name = 
REMARK  13 active torsions:
REMARK  status: ('A' for Active; 'I' for Inactive)
REMARK    1  A    between atoms: C_1  and  O_2
REMARK    2  A    between atoms: O_2  and  C_3
REMARK    3  A    between atoms: C_3  and  C_5
REMARK    4  A    between atoms: C_6  and  C_7
REMARK    5  A    between atoms: N_9  and  C_10
REMARK    6  A    between atoms: C_16  and  O_17
REMARK    7  A    between atoms: O_17  and  C_18
REMARK    8  A    between atoms: C_18  and  C_19
REMARK    9  A    between atoms: C_19  and  C_20
REMARK   10  A    between atoms: C_20  and  N_21
REMARK   11  A    between atoms: C_22  and  C_23
REMARK   12  A    between atoms: C_25  and  C_26
REMARK   13  A    between atoms: C_27  and  C_28
REMARK                            x       y       z     vdW  Elec       q    Type
REMARK                         _______ _______ _______ _____ _____    ______ ____
ROOT
ATOM      1  C   UNL     1       5.496   5.945  17.639  0.00  0.00    +0.000 A 
ATOM      2  C   UNL     1       6.241   4.925  18.296  0.00  0.00    +0.000 A 
ATOM      3  C   UNL     1       7.683   4.593  18.166  0.00  0.00    +0.000 C 
ATOM      4  N   UNL     1       5.495   4.223  19.158  0.00  0.00    +0.000 NA
ATOM      5  N   UNL     1       4.230   4.661  18.956  0.00  0.00    +0.000 N 
ATOM      6  C   UNL     1       4.193   5.759  18.091  0.00  0.00    +0.000 A 
ENDROOT
BRANCH   5   7
ATOM      7  C   UNL     1       3.114   4.036  19.594  0.00  0.00    +0.000 A 
ATOM      8  C   UNL     1       3.021   4.020  20.989  0.00  0.00    +0.000 A 
ATOM      9  C   UNL     1       1.877   3.491  21.601  0.00  0.00    +0.000 A 
ATOM     10  C   UNL     1       0.849   2.944  20.831  0.00  0.00    +0.000 A 
ATOM     11  C   UNL     1       0.959   2.915  19.444  0.00  0.00    +0.000 A 
ATOM     12  C   UNL     1       2.084   3.460  18.829  0.00  0.00    +0.000 A 
ENDBRANCH   5   7
BRANCH   1  13
ATOM     13  C   UNL     1       6.011   6.955  16.718  0.00  0.00    +0.000 C 
ATOM     14  O   UNL     1       6.815   7.833  17.012  0.00  0.00    +0.000 OA
BRANCH  13  16
ATOM     15  C   UNL     1       5.623   5.544  14.873  0.00  0.00    +0.000 C 
ATOM     16  O   UNL     1       5.487   6.839  15.461  0.00  0.00    +0.000 OA
ENDBRANCH  13  16
ENDBRANCH   1  13
BRANCH   6  17
ATOM     17  O   UNL     1       3.014   6.357  17.916  0.00  0.00    +0.000 OA
BRANCH  17  18
ATOM     18  C   UNL     1       2.995   7.762  17.828  0.00  0.00    +0.000 C 
BRANCH  18  19
ATOM     19  C   UNL     1       2.087   8.312  18.901  0.00  0.00    +0.000 C 
BRANCH  19  20
ATOM     20  C   UNL     1       1.228   9.369  18.235  0.00  0.00    +0.000 C 
BRANCH  20  21
ATOM     21  N   UNL     1       1.039  10.525  19.077  0.00  0.00    +0.000 N 
ATOM     22  C   UNL     1       1.723  11.725  18.870  0.00  0.00    +0.000 A 
ATOM     23  C   UNL     1       2.640  11.932  17.694  0.00  0.00    +0.000 C 
ATOM     24  C   UNL     1       1.539  12.744  19.724  0.00  0.00    +0.000 A 
ATOM     25  C   UNL     1       0.680  12.605  20.876  0.00  0.00    +0.000 A 
ATOM     26  C   UNL     1       0.565  13.794  21.792  0.00  0.00    +0.000 C 
ATOM     27  C   UNL     1       0.008  11.450  21.064  0.00  0.00    +0.000 A 
ATOM     28  C   UNL     1       0.072  10.366  20.078  0.00  0.00    +0.000 A 
ATOM     29  O   UNL     1      -0.684   9.402  20.165  0.00  0.00    +0.000 OA
BRANCH  27  30
ATOM     30  C   UNL     1      -0.920  11.318  22.260  0.00  0.00    +0.000 C 
ATOM     31  N   UNL     1      -1.692  11.209  23.252  0.00  0.00    +0.000 NA
ENDBRANCH  27  30
ENDBRANCH  20  21
ENDBRANCH  19  20
ENDBRANCH  18  19
ENDBRANCH  17  18
ENDBRANCH   6  17
TORSDOF 9
ENDMDL
MODEL 9
REMARK VINA RESULT:      -7.4      2.130      4.504
REMARK  Name = 
REMARK  13 active torsions:
REMARK  status: ('A' for Active; 'I' for Inactive)
REMARK    1  A    between atoms: C_1  and  O_2
REMARK    2  A    between atoms: O_2  and  C_3
REMARK    3  A    between atoms: C_3  and  C_5
REMARK    4  A    between atoms: C_6  and  C_7
REMARK    5  A    between atoms: N_9  and  C_10
REMARK    6  A    between atoms: C_16  and  O_17
REMARK    7  A    between atoms: O_17  and  C_18
REMARK    8  A    between atoms: C_18  and  C_19
REMARK    9  A    between atoms: C_19  and  C_20
REMARK   10  A    between atoms: C_20  and  N_21
REMARK   11  A    between atoms: C_22  and  C_23
REMARK   12  A    between atoms: C_25  and  C_26
REMARK   13  A    between atoms: C_27  and  C_28
REMARK                            x       y       z     vdW  Elec       q    Type
REMARK                         _______ _______ _______ _____ _____    ______ ____
ROOT
ATOM      1  C   UNL     1       2.718   3.942  19.326  0.00  0.00    +0.000 A 
ATOM      2  C   UNL     1       3.559   3.002  18.666  0.00  0.00    +0.000 A 
ATOM      3  C   UNL     1       3.345   1.546  18.457  0.00  0.00    +0.000 C 
ATOM      4  N   UNL     1       4.660   3.569  18.158  0.00  0.00    +0.000 NA
ATOM      5  N   UNL     1       4.635   4.843  18.617  0.00  0.00    +0.000 N 
ATOM      6  C   UNL     1       3.436   5.134  19.275  0.00  0.00    +0.000 A 
ENDROOT
BRANCH   5   7
ATOM      7  C   UNL     1       5.735   5.731  18.410  0.00  0.00    +0.000 A 
ATOM      8  C   UNL     1       6.892   5.609  19.186  0.00  0.00    +0.000 A 
ATOM      9  C   UNL     1       8.001   6.420  18.909  0.00  0.00    +0.000 A 
ATOM     10  C   UNL     1       7.945   7.376  17.892  0.00  0.00    +0.000 A 
ATOM     11  C   UNL     1       6.780   7.532  17.149  0.00  0.00    +0.000 A 
ATOM     12  C   UNL     1       5.681   6.713  17.404  0.00  0.00    +0.000 A 
ENDBRANCH   5   7
BRANCH   1  13
ATOM     13  C   UNL     1       1.400   3.691  19.902  0.00  0.00    +0.000 C 
ATOM     14  O   UNL     1       0.380   3.470  19.259  0.00  0.00    +0.000 OA
BRANCH  13  16
ATOM     15  C   UNL     1       1.436   2.468  21.914  0.00  0.00    +0.000 C 
ATOM     16  O   UNL     1       1.403   3.741  21.268  0.00  0.00    +0.000 OA
ENDBRANCH  13  16
ENDBRANCH   1  13
BRANCH   6  17
ATOM     17  O   UNL     1       3.243   6.396  19.660  0.00  0.00    +0.000 OA
BRANCH  17  18
ATOM     18  C   UNL     1       2.366   7.191  18.899  0.00  0.00    +0.000 C 
BRANCH  18  19
ATOM     19  C   UNL     1       1.635   8.140  19.817  0.00  0.00    +0.000 C 
BRANCH  19  20
ATOM     20  C   UNL     1       1.607   9.482  19.112  0.00  0.00    +0.000 C 
BRANCH  20  21
ATOM     21  N   UNL     1       0.426  10.243  19.442  0.00  0.00    +0.000 N 
ATOM     22  C   UNL     1      -0.688  10.303  18.603  0.00  0.00    +0.000 A 
ATOM     23  C   UNL     1      -0.778   9.501  17.332  0.00  0.00    +0.000 C 
ATOM     24  C   UNL     1      -1.732  11.074  18.947  0.00  0.00    +0.000 A 
ATOM     25  C   UNL     1      -1.702  11.875  20.148  0.00  0.00    +0.000 A 
ATOM     26  C   UNL     1      -2.907  12.732  20.430  0.00  0.00    +0.000 C 
ATOM     27  C   UNL     1      -0.630  11.802  20.965  0.00  0.00    +0.000 A 
ATOM     28  C   UNL     1       0.466  10.865  20.697  0.00  0.00    +0.000 A 
ATOM     29  O   UNL     1       1.339  10.674  21.539  0.00  0.00    +0.000 OA
BRANCH  27  30
ATOM     30  C   UNL     1      -0.616  12.622  22.245  0.00  0.00    +0.000 C 
ATOM     31  N   UNL     1      -0.603  13.302  23.307  0.00  0.00    +0.000 NA
ENDBRANCH  27  30
ENDBRANCH  20  21
ENDBRANCH  19  20
ENDBRANCH  18  19
ENDBRANCH  17  18
ENDBRANCH   6  17
TORSDOF 9
ENDMDL
