MODEL 1
REMARK VINA RESULT:      -8.2      0.000      0.000
REMARK  Name = 
REMARK  4 active torsions:
REMARK  status: ('A' for Active; 'I' for Inactive)
REMARK    1  A    between atoms: O_1  and  C_2
REMARK    2  A    between atoms: C_6  and  C_7
REMARK    3  A    between atoms: C_9  and  C_10
REMARK    4  A    between atoms: C_22  and  O_23
REMARK                            x       y       z     vdW  Elec       q    Type
REMARK                         _______ _______ _______ _____ _____    ______ ____
ROOT
ATOM      1  C   UNL     1       2.766   7.215  18.332  0.00  0.00    +0.000 A 
ATOM      2  C   UNL     1       3.782   6.931  17.400  0.00  0.00    +0.000 A 
ATOM      3  C   UNL     1       4.391   5.659  17.308  0.00  0.00    +0.000 A 
ATOM      4  C   UNL     1       4.029   4.789  18.325  0.00  0.00    +0.000 A 
ATOM      5  C   UNL     1       2.923   5.094  19.130  0.00  0.00    +0.000 A 
ATOM      6  N   UNL     1       2.268   6.261  19.155  0.00  0.00    +0.000 NA
ATOM      7  C   UNL     1       2.675   4.025  20.066  0.00  0.00    +0.000 A 
ATOM      8  C   UNL     1       1.598   3.775  20.896  0.00  0.00    +0.000 A 
ATOM      9  C   UNL     1       1.686   2.674  21.744  0.00  0.00    +0.000 A 
ATOM     10  C   UNL     1       2.852   1.903  21.831  0.00  0.00    +0.000 A 
ATOM     11  C   UNL     1       3.909   2.124  20.944  0.00  0.00    +0.000 A 
ATOM     12  C   UNL     1       3.768   3.141  20.017  0.00  0.00    +0.000 A 
ATOM     13  C   UNL     1       4.656   3.501  18.838  0.00  0.00    +0.000 C 
ENDROOT
BRANCH   3  14
ATOM     14  C   UNL     1       5.305   5.314  16.181  0.00  0.00    +0.000 A 
ATOM     15  C   UNL     1       4.837   4.572  15.078  0.00  0.00    +0.000 A 
ATOM     16  C   UNL     1       5.633   4.301  13.959  0.00  0.00    +0.000 A 
ATOM     17  C   UNL     1       6.956   4.728  13.921  0.00  0.00    +0.000 A 
ATOM     18  C   UNL     1       7.470   5.430  15.001  0.00  0.00    +0.000 A 
ATOM     19  C   UNL     1       6.657   5.746  16.102  0.00  0.00    +0.000 A 
ATOM     20 CL   UNL     1       7.423   6.746  17.300  0.00  0.00    +0.000 Cl
ENDBRANCH   3  14
BRANCH   1  25
ATOM     21  C   UNL     1       2.136  10.947  17.949  0.00  0.00    +0.000 A 
ATOM     22  C   UNL     1       1.187  11.187  18.934  0.00  0.00    +0.000 A 
ATOM     23  C   UNL     1       0.749  10.129  19.724  0.00  0.00    +0.000 A 
ATOM     24  C   UNL     1       1.253   8.839  19.516  0.00  0.00    +0.000 A 
ATOM     25  C   UNL     1       2.209   8.575  18.517  0.00  0.00    +0.000 A 
ATOM     26  C   UNL     1       2.645   9.667  17.743  0.00  0.00    +0.000 A 
BRANCH  21  27
ATOM     27  O   UNL     1       2.611  11.948  17.156  0.00  0.00    +0.000 OA
ATOM     28  H   UNL     1       3.570  11.836  17.056  0.00  0.00    +0.000 HD
ENDBRANCH  21  27
ENDBRANCH   1  25
BRANCH   9  29
ATOM     29  O   UNL     1       0.618   2.290  22.503  0.00  0.00    +0.000 OA
ATOM     30  H   UNL     1      -0.079   1.991  21.893  0.00  0.00    +0.000 HD
ENDBRANCH   9  29
TORSDOF 4
ENDMDL
MODEL 2
REMARK VINA RESULT:      -8.0      3.618      6.749
REMARK  Name = 
REMARK  4 active torsions:
REMARK  status: ('A' for Active; 'I' for Inactive)
REMARK    1  A    between atoms: O_1  and  C_2
REMARK    2  A    between atoms: C_6  and  C_7
REMARK    3  A    between atoms: C_9  and  C_10
REMARK    4  A    between atoms: C_22  and  O_23
REMARK                            x       y       z     vdW  Elec       q    Type
REMARK                         _______ _______ _______ _____ _____    ______ ____
ROOT
ATOM      1  C   UNL     1       4.229   4.524  17.557  0.00  0.00    +0.000 A 
ATOM      2  C   UNL     1       5.206   5.415  18.042  0.00  0.00    +0.000 A 
ATOM      3  C   UNL     1       6.236   5.930  17.222  0.00  0.00    +0.000 A 
ATOM      4  C   UNL     1       6.300   5.343  15.967  0.00  0.00    +0.000 A 
ATOM      5  C   UNL     1       5.223   4.570  15.514  0.00  0.00    +0.000 A 
ATOM      6  N   UNL     1       4.185   4.159  16.253  0.00  0.00    +0.000 NA
ATOM      7  C   UNL     1       5.460   4.124  14.163  0.00  0.00    +0.000 A 
ATOM      8  C   UNL     1       4.618   3.533  13.240  0.00  0.00    +0.000 A 
ATOM      9  C   UNL     1       5.172   3.155  12.019  0.00  0.00    +0.000 A 
ATOM     10  C   UNL     1       6.544   3.275  11.765  0.00  0.00    +0.000 A 
ATOM     11  C   UNL     1       7.374   3.931  12.677  0.00  0.00    +0.000 A 
ATOM     12  C   UNL     1       6.797   4.417  13.837  0.00  0.00    +0.000 A 
ATOM     13  C   UNL     1       7.397   5.304  14.914  0.00  0.00    +0.000 C 
ENDROOT
BRANCH   3  14
ATOM     14  C   UNL     1       7.125   7.031  17.691  0.00  0.00    +0.000 A 
ATOM     15  C   UNL     1       7.042   8.315  17.117  0.00  0.00    +0.000 A 
ATOM     16  C   UNL     1       7.794   9.400  17.584  0.00  0.00    +0.000 A 
ATOM     17  C   UNL     1       8.701   9.227  18.625  0.00  0.00    +0.000 A 
ATOM     18  C   UNL     1       8.842   7.971  19.195  0.00  0.00    +0.000 A 
ATOM     19  C   UNL     1       8.052   6.894  18.762  0.00  0.00    +0.000 A 
ATOM     20 CL   UNL     1       8.261   5.432  19.677  0.00  0.00    +0.000 Cl
ENDBRANCH   3  14
BRANCH   1  25
ATOM     21  C   UNL     1       2.580   2.870  20.559  0.00  0.00    +0.000 A 
ATOM     22  C   UNL     1       1.306   2.599  20.081  0.00  0.00    +0.000 A 
ATOM     23  C   UNL     1       0.981   2.958  18.776  0.00  0.00    +0.000 A 
ATOM     24  C   UNL     1       1.927   3.596  17.965  0.00  0.00    +0.000 A 
ATOM     25  C   UNL     1       3.222   3.886  18.435  0.00  0.00    +0.000 A 
ATOM     26  C   UNL     1       3.528   3.498  19.753  0.00  0.00    +0.000 A 
BRANCH  21  27
ATOM     27  O   UNL     1       2.957   2.527  21.823  0.00  0.00    +0.000 OA
ATOM     28  H   UNL     1       2.663   1.618  21.998  0.00  0.00    +0.000 HD
ENDBRANCH  21  27
ENDBRANCH   1  25
BRANCH   9  29
ATOM     29  O   UNL     1       4.383   2.679  11.012  0.00  0.00    +0.000 OA
ATOM     30  H   UNL     1       3.864   1.939  11.373  0.00  0.00    +0.000 HD
ENDBRANCH   9  29
TORSDOF 4
ENDMDL
MODEL 3
REMARK VINA RESULT:      -7.9      3.605      6.618
REMARK  Name = 
REMARK  4 active torsions:
REMARK  status: ('A' for Active; 'I' for Inactive)
REMARK    1  A    between atoms: O_1  and  C_2
REMARK    2  A    between atoms: C_6  and  C_7
REMARK    3  A    between atoms: C_9  and  C_10
REMARK    4  A    between atoms: C_22  and  O_23
REMARK                            x       y       z     vdW  Elec       q    Type
REMARK                         _______ _______ _______ _____ _____    ______ ____
ROOT
ATOM      1  C   UNL     1       4.129   4.724  17.577  0.00  0.00    +0.000 A 
ATOM      2  C   UNL     1       5.128   5.592  18.058  0.00  0.00    +0.000 A 
ATOM      3  C   UNL     1       6.188   6.052  17.244  0.00  0.00    +0.000 A 
ATOM      4  C   UNL     1       6.252   5.434  16.005  0.00  0.00    +0.000 A 
ATOM      5  C   UNL     1       5.157   4.687  15.551  0.00  0.00    +0.000 A 
ATOM      6  N   UNL     1       4.093   4.330  16.281  0.00  0.00    +0.000 NA
ATOM      7  C   UNL     1       5.401   4.202  14.215  0.00  0.00    +0.000 A 
ATOM      8  C   UNL     1       4.554   3.617  13.291  0.00  0.00    +0.000 A 
ATOM      9  C   UNL     1       5.114   3.192  12.090  0.00  0.00    +0.000 A 
ATOM     10  C   UNL     1       6.494   3.259  11.856  0.00  0.00    +0.000 A 
ATOM     11  C   UNL     1       7.331   3.908  12.767  0.00  0.00    +0.000 A 
ATOM     12  C   UNL     1       6.752   4.441  13.905  0.00  0.00    +0.000 A 
ATOM     13  C   UNL     1       7.365   5.332  14.971  0.00  0.00    +0.000 C 
ENDROOT
BRANCH   3  14
ATOM     14  C   UNL     1       7.107   7.133  17.702  0.00  0.00    +0.000 A 
ATOM     15  C   UNL     1       7.030   8.426  17.146  0.00  0.00    +0.000 A 
ATOM     16  C   UNL     1       7.811   9.492  17.606  0.00  0.00    +0.000 A 
ATOM     17  C   UNL     1       8.742   9.293  18.621  0.00  0.00    +0.000 A 
ATOM     18  C   UNL     1       8.877   8.028  19.173  0.00  0.00    +0.000 A 
ATOM     19  C   UNL     1       8.058   6.969  18.747  0.00  0.00    +0.000 A 
ATOM     20 CL   UNL     1       8.267   5.492  19.640  0.00  0.00    +0.000 Cl
ENDBRANCH   3  14
BRANCH   1  25
ATOM     21  C   UNL     1       1.162   2.683  18.800  0.00  0.00    +0.000 A 
ATOM     22  C   UNL     1       1.050   3.092  20.122  0.00  0.00    +0.000 A 
ATOM     23  C   UNL     1       1.945   4.034  20.618  0.00  0.00    +0.000 A 
ATOM     24  C   UNL     1       2.952   4.551  19.794  0.00  0.00    +0.000 A 
ATOM     25  C   UNL     1       3.087   4.142  18.453  0.00  0.00    +0.000 A 
ATOM     26  C   UNL     1       2.158   3.199  17.974  0.00  0.00    +0.000 A 
BRANCH  21  27
ATOM     27  O   UNL     1       0.303   1.774  18.259  0.00  0.00    +0.000 OA
ATOM     28  H   UNL     1       0.780   0.939  18.123  0.00  0.00    +0.000 HD
ENDBRANCH  21  27
ENDBRANCH   1  25
BRANCH   9  29
ATOM     29  O   UNL     1       4.326   2.719  11.080  0.00  0.00    +0.000 OA
ATOM     30  H   UNL     1       3.407   2.961  11.291  0.00  0.00    +0.000 HD
ENDBRANCH   9  29
TORSDOF 4
ENDMDL
MODEL 4
REMARK VINA RESULT:      -7.9      4.136      9.967
REMARK  Name = 
REMARK  4 active torsions:
REMARK  status: ('A' for Active; 'I' for Inactive)
REMARK    1  A    between atoms: O_1  and  C_2
REMARK    2  A    between atoms: C_6  and  C_7
REMARK    3  A    between atoms: C_9  and  C_10
REMARK    4  A    between atoms: C_22  and  O_23
REMARK                            x       y       z     vdW  Elec       q    Type
REMARK                         _______ _______ _______ _____ _____    ______ ____
ROOT
ATOM      1  C   UNL     1       1.042  10.111  18.541  0.00  0.00    +0.000 A 
ATOM      2  C   UNL     1      -0.358  10.242  18.617  0.00  0.00    +0.000 A 
ATOM      3  C   UNL     1      -1.002  11.500  18.608  0.00  0.00    +0.000 A 
ATOM      4  C   UNL     1      -0.133  12.576  18.699  0.00  0.00    +0.000 A 
ATOM      5  C   UNL     1       1.237  12.374  18.485  0.00  0.00    +0.000 A 
ATOM      6  N   UNL     1       1.850  11.188  18.388  0.00  0.00    +0.000 NA
ATOM      7  C   UNL     1       1.944  13.630  18.548  0.00  0.00    +0.000 A 
ATOM      8  C   UNL     1       3.239  13.962  18.198  0.00  0.00    +0.000 A 
ATOM      9  C   UNL     1       3.652  15.270  18.440  0.00  0.00    +0.000 A 
ATOM     10  C   UNL     1       2.828  16.191  19.100  0.00  0.00    +0.000 A 
ATOM     11  C   UNL     1       1.501  15.866  19.391  0.00  0.00    +0.000 A 
ATOM     12  C   UNL     1       1.056  14.605  19.036  0.00  0.00    +0.000 A 
ATOM     13  C   UNL     1      -0.352  14.036  19.068  0.00  0.00    +0.000 C 
ENDROOT
BRANCH   3  14
ATOM     14  C   UNL     1      -2.483  11.613  18.471  0.00  0.00    +0.000 A 
ATOM     15  C   UNL     1      -3.263  12.140  19.520  0.00  0.00    +0.000 A 
ATOM     16  C   UNL     1      -4.642  12.347  19.403  0.00  0.00    +0.000 A 
ATOM     17  C   UNL     1      -5.309  11.988  18.236  0.00  0.00    +0.000 A 
ATOM     18  C   UNL     1      -4.586  11.432  17.191  0.00  0.00    +0.000 A 
ATOM     19  C   UNL     1      -3.194  11.271  17.288  0.00  0.00    +0.000 A 
ATOM     20 CL   UNL     1      -2.433  10.688  15.838  0.00  0.00    +0.000 Cl
ENDBRANCH   3  14
BRANCH   1  25
ATOM     21  C   UNL     1       2.294   6.812  19.959  0.00  0.00    +0.000 A 
ATOM     22  C   UNL     1       3.116   6.348  18.941  0.00  0.00    +0.000 A 
ATOM     23  C   UNL     1       3.262   7.111  17.787  0.00  0.00    +0.000 A 
ATOM     24  C   UNL     1       2.576   8.325  17.655  0.00  0.00    +0.000 A 
ATOM     25  C   UNL     1       1.731   8.807  18.673  0.00  0.00    +0.000 A 
ATOM     26  C   UNL     1       1.615   8.021  19.835  0.00  0.00    +0.000 A 
BRANCH  21  27
ATOM     27  O   UNL     1       2.127   6.112  21.117  0.00  0.00    +0.000 OA
ATOM     28  H   UNL     1       1.580   5.332  20.931  0.00  0.00    +0.000 HD
ENDBRANCH  21  27
ENDBRANCH   1  25
BRANCH   9  29
ATOM     29  O   UNL     1       4.872  15.708  18.012  0.00  0.00    +0.000 OA
ATOM     30  H   UNL     1       4.723  16.512  17.484  0.00  0.00    +0.000 HD
ENDBRANCH   9  29
TORSDOF 4
ENDMDL
MODEL 5
REMARK VINA RESULT:      -7.9      4.250      9.914
REMARK  Name = 
REMARK  4 active torsions:
REMARK  status: ('A' for Active; 'I' for Inactive)
REMARK    1  A    between atoms: O_1  and  C_2
REMARK    2  A    between atoms: C_6  and  C_7
REMARK    3  A    between atoms: C_9  and  C_10
REMARK    4  A    between atoms: C_22  and  O_23
REMARK                            x       y       z     vdW  Elec       q    Type
REMARK                         _______ _______ _______ _____ _____    ______ ____
ROOT
ATOM      1  C   UNL     1       1.142  10.077  18.469  0.00  0.00    +0.000 A 
ATOM      2  C   UNL     1      -0.258  10.225  18.492  0.00  0.00    +0.000 A 
ATOM      3  C   UNL     1      -0.886  11.491  18.467  0.00  0.00    +0.000 A 
ATOM      4  C   UNL     1      -0.008  12.555  18.601  0.00  0.00    +0.000 A 
ATOM      5  C   UNL     1       1.367  12.337  18.439  0.00  0.00    +0.000 A 
ATOM      6  N   UNL     1       1.968  11.144  18.356  0.00  0.00    +0.000 NA
ATOM      7  C   UNL     1       2.086  13.583  18.538  0.00  0.00    +0.000 A 
ATOM      8  C   UNL     1       3.399  13.901  18.242  0.00  0.00    +0.000 A 
ATOM      9  C   UNL     1       3.818  15.201  18.510  0.00  0.00    +0.000 A 
ATOM     10  C   UNL     1       2.981  16.129  19.145  0.00  0.00    +0.000 A 
ATOM     11  C   UNL     1       1.640  15.819  19.381  0.00  0.00    +0.000 A 
ATOM     12  C   UNL     1       1.193  14.566  19.000  0.00  0.00    +0.000 A 
ATOM     13  C   UNL     1      -0.222  14.015  18.973  0.00  0.00    +0.000 C 
ENDROOT
BRANCH   3  14
ATOM     14  C   UNL     1      -2.359  11.624  18.275  0.00  0.00    +0.000 A 
ATOM     15  C   UNL     1      -2.958  11.270  17.049  0.00  0.00    +0.000 A 
ATOM     16  C   UNL     1      -4.344  11.295  16.852  0.00  0.00    +0.000 A 
ATOM     17  C   UNL     1      -5.189  11.724  17.872  0.00  0.00    +0.000 A 
ATOM     18  C   UNL     1      -4.639  12.117  19.082  0.00  0.00    +0.000 A 
ATOM     19  C   UNL     1      -3.253  12.044  19.298  0.00  0.00    +0.000 A 
ATOM     20 CL   UNL     1      -2.753  12.443  20.914  0.00  0.00    +0.000 Cl
ENDBRANCH   3  14
BRANCH   1  25
ATOM     21  C   UNL     1       2.307   6.757  19.914  0.00  0.00    +0.000 A 
ATOM     22  C   UNL     1       3.151   6.284  18.919  0.00  0.00    +0.000 A 
ATOM     23  C   UNL     1       3.341   7.048  17.772  0.00  0.00    +0.000 A 
ATOM     24  C   UNL     1       2.675   8.271  17.623  0.00  0.00    +0.000 A 
ATOM     25  C   UNL     1       1.809   8.763  18.618  0.00  0.00    +0.000 A 
ATOM     26  C   UNL     1       1.649   7.976  19.774  0.00  0.00    +0.000 A 
BRANCH  21  27
ATOM     27  O   UNL     1       2.097   6.057  21.065  0.00  0.00    +0.000 OA
ATOM     28  H   UNL     1       1.178   6.193  21.347  0.00  0.00    +0.000 HD
ENDBRANCH  21  27
ENDBRANCH   1  25
BRANCH   9  29
ATOM     29  O   UNL     1       5.059  15.627  18.133  0.00  0.00    +0.000 OA
ATOM     30  H   UNL     1       5.328  15.094  17.364  0.00  0.00    +0.000 HD
ENDBRANCH   9  29
TORSDOF 4
ENDMDL
MODEL 6
REMARK VINA RESULT:      -7.9      4.847      9.011
REMARK  Name = 
REMARK  4 active torsions:
REMARK  status: ('A' for Active; 'I' for Inactive)
REMARK    1  A    between atoms: O_1  and  C_2
REMARK    2  A    between atoms: C_6  and  C_7
REMARK    3  A    between atoms: C_9  and  C_10
REMARK    4  A    between atoms: C_22  and  O_23
REMARK                            x       y       z     vdW  Elec       q    Type
REMARK                         _______ _______ _______ _____ _____    ______ ____
ROOT
ATOM      1  C   UNL     1      -1.498  12.009  19.162  0.00  0.00    +0.000 A 
ATOM      2  C   UNL     1      -0.842  10.771  19.031  0.00  0.00    +0.000 A 
ATOM      3  C   UNL     1       0.560  10.669  18.881  0.00  0.00    +0.000 A 
ATOM      4  C   UNL     1       1.194  11.888  18.693  0.00  0.00    +0.000 A 
ATOM      5  C   UNL     1       0.499  13.074  18.967  0.00  0.00    +0.000 A 
ATOM      6  N   UNL     1      -0.812  13.176  19.215  0.00  0.00    +0.000 NA
ATOM      7  C   UNL     1       1.364  14.213  18.784  0.00  0.00    +0.000 A 
ATOM      8  C   UNL     1       1.202  15.542  19.130  0.00  0.00    +0.000 A 
ATOM      9  C   UNL     1       2.208  16.429  18.754  0.00  0.00    +0.000 A 
ATOM     10  C   UNL     1       3.295  16.019  17.971  0.00  0.00    +0.000 A 
ATOM     11  C   UNL     1       3.482  14.665  17.681  0.00  0.00    +0.000 A 
ATOM     12  C   UNL     1       2.545  13.769  18.163  0.00  0.00    +0.000 A 
ATOM     13  C   UNL     1       2.571  12.250  18.155  0.00  0.00    +0.000 C 
ENDROOT
BRANCH   3  14
ATOM     14  C   UNL     1       1.257   9.353  18.961  0.00  0.00    +0.000 A 
ATOM     15  C   UNL     1       1.901   8.811  17.831  0.00  0.00    +0.000 A 
ATOM     16  C   UNL     1       2.641   7.624  17.882  0.00  0.00    +0.000 A 
ATOM     17  C   UNL     1       2.728   6.902  19.069  0.00  0.00    +0.000 A 
ATOM     18  C   UNL     1       2.079   7.380  20.197  0.00  0.00    +0.000 A 
ATOM     19  C   UNL     1       1.378   8.597  20.160  0.00  0.00    +0.000 A 
ATOM     20 CL   UNL     1       0.744   9.111  21.694  0.00  0.00    +0.000 Cl
ENDBRANCH   3  14
BRANCH   1  25
ATOM     21  C   UNL     1      -5.166  11.826  18.171  0.00  0.00    +0.000 A 
ATOM     22  C   UNL     1      -5.792  12.440  19.247  0.00  0.00    +0.000 A 
ATOM     23  C   UNL     1      -5.017  12.914  20.301  0.00  0.00    +0.000 A 
ATOM     24  C   UNL     1      -3.625  12.759  20.277  0.00  0.00    +0.000 A 
ATOM     25  C   UNL     1      -2.974  12.132  19.198  0.00  0.00    +0.000 A 
ATOM     26  C   UNL     1      -3.781  11.676  18.139  0.00  0.00    +0.000 A 
BRANCH  21  27
ATOM     27  O   UNL     1      -5.875  11.358  17.105  0.00  0.00    +0.000 OA
ATOM     28  H   UNL     1      -6.383  10.580  17.389  0.00  0.00    +0.000 HD
ENDBRANCH  21  27
ENDBRANCH   1  25
BRANCH   9  29
ATOM     29  O   UNL     1       2.181  17.730  19.165  0.00  0.00    +0.000 OA
ATOM     30  H   UNL     1       1.280  18.065  19.011  0.00  0.00    +0.000 HD
ENDBRANCH   9  29
TORSDOF 4
ENDMDL
MODEL 7
REMARK VINA RESULT:      -7.9      0.920      1.289
REMARK  Name = 
REMARK  4 active torsions:
REMARK  status: ('A' for Active; 'I' for Inactive)
REMARK    1  A    between atoms: O_1  and  C_2
REMARK    2  A    between atoms: C_6  and  C_7
REMARK    3  A    between atoms: C_9  and  C_10
REMARK    4  A    between atoms: C_22  and  O_23
REMARK                            x       y       z     vdW  Elec       q    Type
REMARK                         _______ _______ _______ _____ _____    ______ ____
ROOT
ATOM      1  C   UNL     1       2.756   7.196  18.402  0.00  0.00    +0.000 A 
ATOM      2  C   UNL     1       3.771   6.918  17.467  0.00  0.00    +0.000 A 
ATOM      3  C   UNL     1       4.378   5.646  17.366  0.00  0.00    +0.000 A 
ATOM      4  C   UNL     1       4.016   4.769  18.377  0.00  0.00    +0.000 A 
ATOM      5  C   UNL     1       2.911   5.069  19.185  0.00  0.00    +0.000 A 
ATOM      6  N   UNL     1       2.258   6.237  19.219  0.00  0.00    +0.000 NA
ATOM      7  C   UNL     1       2.663   3.994  20.113  0.00  0.00    +0.000 A 
ATOM      8  C   UNL     1       1.586   3.739  20.942  0.00  0.00    +0.000 A 
ATOM      9  C   UNL     1       1.673   2.632  21.782  0.00  0.00    +0.000 A 
ATOM     10  C   UNL     1       2.839   1.858  21.862  0.00  0.00    +0.000 A 
ATOM     11  C   UNL     1       3.895   2.085  20.976  0.00  0.00    +0.000 A 
ATOM     12  C   UNL     1       3.755   3.109  20.057  0.00  0.00    +0.000 A 
ATOM     13  C   UNL     1       4.642   3.476  18.880  0.00  0.00    +0.000 C 
ENDROOT
BRANCH   3  14
ATOM     14  C   UNL     1       5.291   5.308  16.236  0.00  0.00    +0.000 A 
ATOM     15  C   UNL     1       4.825   4.561  15.135  0.00  0.00    +0.000 A 
ATOM     16  C   UNL     1       5.619   4.297  14.013  0.00  0.00    +0.000 A 
ATOM     17  C   UNL     1       6.939   4.735  13.969  0.00  0.00    +0.000 A 
ATOM     18  C   UNL     1       7.450   5.442  15.047  0.00  0.00    +0.000 A 
ATOM     19  C   UNL     1       6.639   5.753  16.151  0.00  0.00    +0.000 A 
ATOM     20 CL   UNL     1       7.401   6.760  17.345  0.00  0.00    +0.000 Cl
ENDBRANCH   3  14
BRANCH   1  25
ATOM     21  C   UNL     1       0.797  10.131  19.822  0.00  0.00    +0.000 A 
ATOM     22  C   UNL     1       1.086  11.143  18.917  0.00  0.00    +0.000 A 
ATOM     23  C   UNL     1       1.923  10.869  17.840  0.00  0.00    +0.000 A 
ATOM     24  C   UNL     1       2.476   9.591  17.685  0.00  0.00    +0.000 A 
ATOM     25  C   UNL     1       2.200   8.555  18.598  0.00  0.00    +0.000 A 
ATOM     26  C   UNL     1       1.338   8.857  19.668  0.00  0.00    +0.000 A 
BRANCH  21  27
ATOM     27  O   UNL     1      -0.029  10.340  20.886  0.00  0.00    +0.000 OA
ATOM     28  H   UNL     1      -0.463   9.501  21.111  0.00  0.00    +0.000 HD
ENDBRANCH  21  27
ENDBRANCH   1  25
BRANCH   9  29
ATOM     29  O   UNL     1       0.606   2.243  22.539  0.00  0.00    +0.000 OA
ATOM     30  H   UNL     1      -0.146   2.810  22.294  0.00  0.00    +0.000 HD
ENDBRANCH   9  29
TORSDOF 4
ENDMDL
MODEL 8
REMARK VINA RESULT:      -7.8      4.254      9.975
REMARK  Name = 
REMARK  4 active torsions:
REMARK  status: ('A' for Active; 'I' for Inactive)
REMARK    1  A    between atoms: O_1  and  C_2
REMARK    2  A    between atoms: C_6  and  C_7
REMARK    3  A    between atoms: C_9  and  C_10
REMARK    4  A    between atoms: C_22  and  O_23
REMARK                            x       y       z     vdW  Elec       q    Type
REMARK                         _______ _______ _______ _____ _____    ______ ____
ROOT
ATOM      1  C   UNL     1       0.827  10.130  18.844  0.00  0.00    +0.000 A 
ATOM      2  C   UNL     1      -0.571  10.296  18.867  0.00  0.00    +0.000 A 
ATOM      3  C   UNL     1      -1.185  11.559  18.706  0.00  0.00    +0.000 A 
ATOM      4  C   UNL     1      -0.294  12.621  18.707  0.00  0.00    +0.000 A 
ATOM      5  C   UNL     1       1.076  12.369  18.554  0.00  0.00    +0.000 A 
ATOM      6  N   UNL     1       1.664  11.167  18.601  0.00  0.00    +0.000 NA
ATOM      7  C   UNL     1       1.810  13.609  18.502  0.00  0.00    +0.000 A 
ATOM      8  C   UNL     1       3.122  13.875  18.156  0.00  0.00    +0.000 A 
ATOM      9  C   UNL     1       3.559  15.193  18.269  0.00  0.00    +0.000 A 
ATOM     10  C   UNL     1       2.740  16.197  18.804  0.00  0.00    +0.000 A 
ATOM     11  C   UNL     1       1.399  15.932  19.091  0.00  0.00    +0.000 A 
ATOM     12  C   UNL     1       0.933  14.650  18.860  0.00  0.00    +0.000 A 
ATOM     13  C   UNL     1      -0.488  14.116  18.913  0.00  0.00    +0.000 C 
ENDROOT
BRANCH   3  14
ATOM     14  C   UNL     1      -2.659  11.687  18.517  0.00  0.00    +0.000 A 
ATOM     15  C   UNL     1      -3.476  12.181  19.554  0.00  0.00    +0.000 A 
ATOM     16  C   UNL     1      -4.849  12.401  19.392  0.00  0.00    +0.000 A 
ATOM     17  C   UNL     1      -5.471  12.090  18.187  0.00  0.00    +0.000 A 
ATOM     18  C   UNL     1      -4.712  11.567  17.151  0.00  0.00    +0.000 A 
ATOM     19  C   UNL     1      -3.326  11.393  17.296  0.00  0.00    +0.000 A 
ATOM     20 CL   UNL     1      -2.512  10.859  15.856  0.00  0.00    +0.000 Cl
ENDBRANCH   3  14
BRANCH   1  25
ATOM     21  C   UNL     1       2.851   6.934  18.447  0.00  0.00    +0.000 A 
ATOM     22  C   UNL     1       2.669   6.316  19.676  0.00  0.00    +0.000 A 
ATOM     23  C   UNL     1       1.885   6.943  20.640  0.00  0.00    +0.000 A 
ATOM     24  C   UNL     1       1.302   8.188  20.371  0.00  0.00    +0.000 A 
ATOM     25  C   UNL     1       1.482   8.833  19.133  0.00  0.00    +0.000 A 
ATOM     26  C   UNL     1       2.267   8.168  18.172  0.00  0.00    +0.000 A 
BRANCH  21  27
ATOM     27  O   UNL     1       3.596   6.357  17.461  0.00  0.00    +0.000 OA
ATOM     28  H   UNL     1       4.247   5.764  17.872  0.00  0.00    +0.000 HD
ENDBRANCH  21  27
ENDBRANCH   1  25
BRANCH   9  29
ATOM     29  O   UNL     1       4.799  15.558  17.831  0.00  0.00    +0.000 OA
ATOM     30  H   UNL     1       5.397  15.534  18.599  0.00  0.00    +0.000 HD
ENDBRANCH   9  29
TORSDOF 4
ENDMDL
MODEL 9
REMARK VINA RESULT:      -7.8      4.827      9.024
REMARK  Name = 
REMARK  4 active torsions:
REMARK  status: ('A' for Active; 'I' for Inactive)
REMARK    1  A    between atoms: O_1  and  C_2
REMARK    2  A    between atoms: C_6  and  C_7
REMARK    3  A    between atoms: C_9  and  C_10
REMARK    4  A    between atoms: C_22  and  O_23
REMARK                            x       y       z     vdW  Elec       q    Type
REMARK                         _______ _______ _______ _____ _____    ______ ____
ROOT
ATOM      1  C   UNL     1      -1.647  11.774  18.671  0.00  0.00    +0.000 A 
ATOM      2  C   UNL     1      -0.913  10.573  18.625  0.00  0.00    +0.000 A 
ATOM      3  C   UNL     1       0.499  10.547  18.678  0.00  0.00    +0.000 A 
ATOM      4  C   UNL     1       1.087  11.800  18.596  0.00  0.00    +0.000 A 
ATOM      5  C   UNL     1       0.297  12.944  18.778  0.00  0.00    +0.000 A 
ATOM      6  N   UNL     1      -1.040  12.974  18.834  0.00  0.00    +0.000 NA
ATOM      7  C   UNL     1       1.116  14.130  18.732  0.00  0.00    +0.000 A 
ATOM      8  C   UNL     1       0.834  15.442  19.064  0.00  0.00    +0.000 A 
ATOM      9  C   UNL     1       1.834  16.386  18.845  0.00  0.00    +0.000 A 
ATOM     10  C   UNL     1       3.044  16.047  18.224  0.00  0.00    +0.000 A 
ATOM     11  C   UNL     1       3.344  14.710  17.952  0.00  0.00    +0.000 A 
ATOM     12  C   UNL     1       2.396  13.758  18.285  0.00  0.00    +0.000 A 
ATOM     13  C   UNL     1       2.505  12.243  18.267  0.00  0.00    +0.000 C 
ENDROOT
BRANCH   3  14
ATOM     14  C   UNL     1       1.247   9.269  18.847  0.00  0.00    +0.000 A 
ATOM     15  C   UNL     1       1.993   8.726  17.781  0.00  0.00    +0.000 A 
ATOM     16  C   UNL     1       2.780   7.577  17.919  0.00  0.00    +0.000 A 
ATOM     17  C   UNL     1       2.816   6.894  19.130  0.00  0.00    +0.000 A 
ATOM     18  C   UNL     1       2.069   7.371  20.196  0.00  0.00    +0.000 A 
ATOM     19  C   UNL     1       1.319   8.553  20.074  0.00  0.00    +0.000 A 
ATOM     20 CL   UNL     1       0.557   9.079  21.545  0.00  0.00    +0.000 Cl
ENDBRANCH   3  14
BRANCH   1  25
ATOM     21  C   UNL     1      -5.360  12.229  19.362  0.00  0.00    +0.000 A 
ATOM     22  C   UNL     1      -5.933  11.828  18.163  0.00  0.00    +0.000 A 
ATOM     23  C   UNL     1      -5.107  11.409  17.125  0.00  0.00    +0.000 A 
ATOM     24  C   UNL     1      -3.716  11.407  17.288  0.00  0.00    +0.000 A 
ATOM     25  C   UNL     1      -3.117  11.818  18.494  0.00  0.00    +0.000 A 
ATOM     26  C   UNL     1      -3.977  12.222  19.532  0.00  0.00    +0.000 A 
BRANCH  21  27
ATOM     27  O   UNL     1      -6.122  12.633  20.418  0.00  0.00    +0.000 OA
ATOM     28  H   UNL     1      -6.484  13.513  20.219  0.00  0.00    +0.000 HD
ENDBRANCH  21  27
ENDBRANCH   1  25
BRANCH   9  29
ATOM     29  O   UNL     1       1.679  17.678  19.260  0.00  0.00    +0.000 OA
ATOM     30  H   UNL     1       0.784  17.757  19.636  0.00  0.00    +0.000 HD
ENDBRANCH   9  29
TORSDOF 4
ENDMDL
