MODEL 1
REMARK VINA RESULT:      -6.6      0.000      0.000
REMARK  Name = 
REMARK  5 active torsions:
REMARK  status: ('A' for Active; 'I' for Inactive)
REMARK    1  A    between atoms: C_1  and  O_2
REMARK    2  A    between atoms: O_2  and  C_3
REMARK    3  A    between atoms: C_6  and  C_7
REMARK    4  A    between atoms: C_7  and  N_8
REMARK    5  A    between atoms: C_15  and  O_16
REMARK                            x       y       z     vdW  Elec       q    Type
REMARK                         _______ _______ _______ _____ _____    ______ ____
ROOT
ATOM      1  C   UNL     1       6.799   5.365  16.086  0.00  0.00    +0.000 A 
ATOM      2  C   UNL     1       5.575   6.035  15.983  0.00  0.00    +0.000 A 
ATOM      3  C   UNL     1       4.681   6.074  17.060  0.00  0.00    +0.000 A 
ATOM      4  C   UNL     1       4.990   5.425  18.260  0.00  0.00    +0.000 A 
ATOM      5  C   UNL     1       6.206   4.737  18.358  0.00  0.00    +0.000 A 
ATOM      6  C   UNL     1       7.108   4.716  17.283  0.00  0.00    +0.000 A 
ENDROOT
BRANCH   1   8
ATOM      7  C   UNL     1       7.088   4.759  13.791  0.00  0.00    +0.000 C 
ATOM      8  O   UNL     1       7.550   5.451  14.942  0.00  0.00    +0.000 OA
ENDBRANCH   1   8
BRANCH   6   9
ATOM      9  O   UNL     1       8.291   4.049  17.455  0.00  0.00    +0.000 OA
ATOM     10  H   UNL     1       8.301   3.270  16.877  0.00  0.00    +0.000 HD
ENDBRANCH   6   9
BRANCH   4  11
ATOM     11  C   UNL     1       4.051   5.484  19.445  0.00  0.00    +0.000 C 
BRANCH  11  12
ATOM     12  N   UNL     1       3.416   4.192  19.809  0.00  0.00    +0.000 NA
ATOM     13  C   UNL     1       3.177   3.384  18.593  0.00  0.00    +0.000 C 
ATOM     14  C   UNL     1       2.344   2.106  18.758  0.00  0.00    +0.000 C 
ATOM     15  S   UNL     1       0.690   2.457  19.405  0.00  0.00    +0.000 S 
ATOM     16  C   UNL     1       1.254   3.316  20.896  0.00  0.00    +0.000 C 
ATOM     17  C   UNL     1       2.171   4.497  20.555  0.00  0.00    +0.000 C 
ENDBRANCH  11  12
ENDBRANCH   4  11
TORSDOF 4
ENDMDL
MODEL 2
REMARK VINA RESULT:      -6.6      0.802      1.395
REMARK  Name = 
REMARK  5 active torsions:
REMARK  status: ('A' for Active; 'I' for Inactive)
REMARK    1  A    between atoms: C_1  and  O_2
REMARK    2  A    between atoms: O_2  and  C_3
REMARK    3  A    between atoms: C_6  and  C_7
REMARK    4  A    between atoms: C_7  and  N_8
REMARK    5  A    between atoms: C_15  and  O_16
REMARK                            x       y       z     vdW  Elec       q    Type
REMARK                         _______ _______ _______ _____ _____    ______ ____
ROOT
ATOM      1  C   UNL     1       6.867   5.235  15.890  0.00  0.00    +0.000 A 
ATOM      2  C   UNL     1       5.641   5.887  15.718  0.00  0.00    +0.000 A 
ATOM      3  C   UNL     1       4.750   6.040  16.787  0.00  0.00    +0.000 A 
ATOM      4  C   UNL     1       5.062   5.527  18.050  0.00  0.00    +0.000 A 
ATOM      5  C   UNL     1       6.281   4.857  18.219  0.00  0.00    +0.000 A 
ATOM      6  C   UNL     1       7.181   4.722  17.150  0.00  0.00    +0.000 A 
ENDROOT
BRANCH   1   8
ATOM      7  C   UNL     1       7.005   4.683  13.568  0.00  0.00    +0.000 C 
ATOM      8  O   UNL     1       7.616   5.198  14.743  0.00  0.00    +0.000 OA
ENDBRANCH   1   8
BRANCH   6   9
ATOM      9  O   UNL     1       8.366   4.080  17.392  0.00  0.00    +0.000 OA
ATOM     10  H   UNL     1       9.092   4.610  17.025  0.00  0.00    +0.000 HD
ENDBRANCH   6   9
BRANCH   4  11
ATOM     11  C   UNL     1       4.126   5.711  19.224  0.00  0.00    +0.000 C 
BRANCH  11  12
ATOM     12  N   UNL     1       3.008   4.737  19.296  0.00  0.00    +0.000 NA
ATOM     13  C   UNL     1       1.989   5.205  20.259  0.00  0.00    +0.000 C 
ATOM     14  C   UNL     1       0.861   4.226  20.612  0.00  0.00    +0.000 C 
ATOM     15  S   UNL     1       1.499   2.693  21.332  0.00  0.00    +0.000 S 
ATOM     16  C   UNL     1       2.595   2.283  19.951  0.00  0.00    +0.000 C 
ATOM     17  C   UNL     1       3.583   3.418  19.657  0.00  0.00    +0.000 C 
ENDBRANCH  11  12
ENDBRANCH   4  11
TORSDOF 4
ENDMDL
MODEL 3
REMARK VINA RESULT:      -6.4      1.615      2.237
REMARK  Name = 
REMARK  5 active torsions:
REMARK  status: ('A' for Active; 'I' for Inactive)
REMARK    1  A    between atoms: C_1  and  O_2
REMARK    2  A    between atoms: O_2  and  C_3
REMARK    3  A    between atoms: C_6  and  C_7
REMARK    4  A    between atoms: C_7  and  N_8
REMARK    5  A    between atoms: C_15  and  O_16
REMARK                            x       y       z     vdW  Elec       q    Type
REMARK                         _______ _______ _______ _____ _____    ______ ____
ROOT
ATOM      1  C   UNL     1       6.701   6.369  16.861  0.00  0.00    +0.000 A 
ATOM      2  C   UNL     1       5.405   6.897  16.851  0.00  0.00    +0.000 A 
ATOM      3  C   UNL     1       4.287   6.065  16.987  0.00  0.00    +0.000 A 
ATOM      4  C   UNL     1       4.444   4.682  17.119  0.00  0.00    +0.000 A 
ATOM      5  C   UNL     1       5.740   4.150  17.110  0.00  0.00    +0.000 A 
ATOM      6  C   UNL     1       6.860   4.988  16.993  0.00  0.00    +0.000 A 
ENDROOT
BRANCH   1   8
ATOM      7  C   UNL     1       7.963   8.128  17.877  0.00  0.00    +0.000 C 
ATOM      8  O   UNL     1       7.669   7.332  16.738  0.00  0.00    +0.000 OA
ENDBRANCH   1   8
BRANCH   6   9
ATOM      9  O   UNL     1       8.099   4.405  17.019  0.00  0.00    +0.000 OA
ATOM     10  H   UNL     1       8.552   4.665  17.837  0.00  0.00    +0.000 HD
ENDBRANCH   6   9
BRANCH   4  11
ATOM     11  C   UNL     1       3.250   3.772  17.299  0.00  0.00    +0.000 C 
BRANCH  11  12
ATOM     12  N   UNL     1       2.411   4.062  18.489  0.00  0.00    +0.000 NA
ATOM     13  C   UNL     1       3.267   4.249  19.681  0.00  0.00    +0.000 C 
ATOM     14  C   UNL     1       2.559   4.356  21.038  0.00  0.00    +0.000 C 
ATOM     15  S   UNL     1       1.580   2.879  21.407  0.00  0.00    +0.000 S 
ATOM     16  C   UNL     1       0.573   2.946  19.903  0.00  0.00    +0.000 C 
ATOM     17  C   UNL     1       1.444   2.948  18.640  0.00  0.00    +0.000 C 
ENDBRANCH  11  12
ENDBRANCH   4  11
TORSDOF 4
ENDMDL
MODEL 4
REMARK VINA RESULT:      -6.2      1.597      1.876
REMARK  Name = 
REMARK  5 active torsions:
REMARK  status: ('A' for Active; 'I' for Inactive)
REMARK    1  A    between atoms: C_1  and  O_2
REMARK    2  A    between atoms: O_2  and  C_3
REMARK    3  A    between atoms: C_6  and  C_7
REMARK    4  A    between atoms: C_7  and  N_8
REMARK    5  A    between atoms: C_15  and  O_16
REMARK                            x       y       z     vdW  Elec       q    Type
REMARK                         _______ _______ _______ _____ _____    ______ ____
ROOT
ATOM      1  C   UNL     1       6.824   5.066  15.521  0.00  0.00    +0.000 A 
ATOM      2  C   UNL     1       5.793   4.133  15.363  0.00  0.00    +0.000 A 
ATOM      3  C   UNL     1       4.637   4.197  16.150  0.00  0.00    +0.000 A 
ATOM      4  C   UNL     1       4.497   5.189  17.125  0.00  0.00    +0.000 A 
ATOM      5  C   UNL     1       5.537   6.111  17.299  0.00  0.00    +0.000 A 
ATOM      6  C   UNL     1       6.687   6.056  16.495  0.00  0.00    +0.000 A 
ENDROOT
BRANCH   1   8
ATOM      7  C   UNL     1       7.657   5.167  13.283  0.00  0.00    +0.000 C 
ATOM      8  O   UNL     1       7.865   4.860  14.654  0.00  0.00    +0.000 OA
ENDBRANCH   1   8
BRANCH   6   9
ATOM      9  O   UNL     1       7.653   7.006  16.699  0.00  0.00    +0.000 OA
ATOM     10  H   UNL     1       8.428   6.585  17.102  0.00  0.00    +0.000 HD
ENDBRANCH   6   9
BRANCH   4  11
ATOM     11  C   UNL     1       3.241   5.292  17.962  0.00  0.00    +0.000 C 
BRANCH  11  12
ATOM     12  N   UNL     1       2.813   4.029  18.614  0.00  0.00    +0.000 NA
ATOM     13  C   UNL     1       1.436   4.168  19.135  0.00  0.00    +0.000 C 
ATOM     14  C   UNL     1       0.906   3.030  20.017  0.00  0.00    +0.000 C 
ATOM     15  S   UNL     1       1.928   2.787  21.491  0.00  0.00    +0.000 S 
ATOM     16  C   UNL     1       3.482   2.532  20.597  0.00  0.00    +0.000 C 
ATOM     17  C   UNL     1       3.803   3.713  19.673  0.00  0.00    +0.000 C 
ENDBRANCH  11  12
ENDBRANCH   4  11
TORSDOF 4
ENDMDL
MODEL 5
REMARK VINA RESULT:      -6.2      0.751      1.734
REMARK  Name = 
REMARK  5 active torsions:
REMARK  status: ('A' for Active; 'I' for Inactive)
REMARK    1  A    between atoms: C_1  and  O_2
REMARK    2  A    between atoms: O_2  and  C_3
REMARK    3  A    between atoms: C_6  and  C_7
REMARK    4  A    between atoms: C_7  and  N_8
REMARK    5  A    between atoms: C_15  and  O_16
REMARK                            x       y       z     vdW  Elec       q    Type
REMARK                         _______ _______ _______ _____ _____    ______ ____
ROOT
ATOM      1  C   UNL     1       6.703   5.496  16.052  0.00  0.00    +0.000 A 
ATOM      2  C   UNL     1       7.067   4.715  17.155  0.00  0.00    +0.000 A 
ATOM      3  C   UNL     1       6.261   4.662  18.299  0.00  0.00    +0.000 A 
ATOM      4  C   UNL     1       5.078   5.405  18.367  0.00  0.00    +0.000 A 
ATOM      5  C   UNL     1       4.722   6.203  17.272  0.00  0.00    +0.000 A 
ATOM      6  C   UNL     1       5.523   6.239  16.120  0.00  0.00    +0.000 A 
ENDROOT
BRANCH   1   8
ATOM      7  C   UNL     1       7.189   4.738  13.838  0.00  0.00    +0.000 C 
ATOM      8  O   UNL     1       7.600   5.409  15.020  0.00  0.00    +0.000 OA
ENDBRANCH   1   8
BRANCH   6   9
ATOM      9  O   UNL     1       5.102   7.018  15.075  0.00  0.00    +0.000 OA
ATOM     10  H   UNL     1       4.436   6.529  14.566  0.00  0.00    +0.000 HD
ENDBRANCH   6   9
BRANCH   4  11
ATOM     11  C   UNL     1       4.179   5.334  19.582  0.00  0.00    +0.000 C 
BRANCH  11  12
ATOM     12  N   UNL     1       3.498   4.032  19.785  0.00  0.00    +0.000 NA
ATOM     13  C   UNL     1       3.206   3.402  18.479  0.00  0.00    +0.000 C 
ATOM     14  C   UNL     1       2.324   2.146  18.492  0.00  0.00    +0.000 C 
ATOM     15  S   UNL     1       0.697   2.472  19.214  0.00  0.00    +0.000 S 
ATOM     16  C   UNL     1       1.319   3.103  20.793  0.00  0.00    +0.000 C 
ATOM     17  C   UNL     1       2.278   4.283  20.591  0.00  0.00    +0.000 C 
ENDBRANCH  11  12
ENDBRANCH   4  11
TORSDOF 4
ENDMDL
MODEL 6
REMARK VINA RESULT:      -6.2      1.180      2.235
REMARK  Name = 
REMARK  5 active torsions:
REMARK  status: ('A' for Active; 'I' for Inactive)
REMARK    1  A    between atoms: C_1  and  O_2
REMARK    2  A    between atoms: O_2  and  C_3
REMARK    3  A    between atoms: C_6  and  C_7
REMARK    4  A    between atoms: C_7  and  N_8
REMARK    5  A    between atoms: C_15  and  O_16
REMARK                            x       y       z     vdW  Elec       q    Type
REMARK                         _______ _______ _______ _____ _____    ______ ____
ROOT
ATOM      1  C   UNL     1       6.763   5.424  15.669  0.00  0.00    +0.000 A 
ATOM      2  C   UNL     1       7.247   4.613  16.702  0.00  0.00    +0.000 A 
ATOM      3  C   UNL     1       6.593   4.555  17.939  0.00  0.00    +0.000 A 
ATOM      4  C   UNL     1       5.448   5.323  18.172  0.00  0.00    +0.000 A 
ATOM      5  C   UNL     1       4.974   6.151  17.146  0.00  0.00    +0.000 A 
ATOM      6  C   UNL     1       5.621   6.192  15.901  0.00  0.00    +0.000 A 
ENDROOT
BRANCH   1   8
ATOM      7  C   UNL     1       7.106   4.418  13.528  0.00  0.00    +0.000 C 
ATOM      8  O   UNL     1       7.518   5.338  14.528  0.00  0.00    +0.000 OA
ENDBRANCH   1   8
BRANCH   6   9
ATOM      9  O   UNL     1       5.088   7.001  14.933  0.00  0.00    +0.000 OA
ATOM     10  H   UNL     1       4.234   6.637  14.652  0.00  0.00    +0.000 HD
ENDBRANCH   6   9
BRANCH   4  11
ATOM     11  C   UNL     1       4.711   5.249  19.491  0.00  0.00    +0.000 C 
BRANCH  11  12
ATOM     12  N   UNL     1       3.410   4.535  19.446  0.00  0.00    +0.000 NA
ATOM     13  C   UNL     1       2.451   5.167  20.378  0.00  0.00    +0.000 C 
ATOM     14  C   UNL     1       1.121   4.438  20.611  0.00  0.00    +0.000 C 
ATOM     15  S   UNL     1       1.373   2.773  21.276  0.00  0.00    +0.000 S 
ATOM     16  C   UNL     1       2.446   2.199  19.935  0.00  0.00    +0.000 C 
ATOM     17  C   UNL     1       3.669   3.109  19.761  0.00  0.00    +0.000 C 
ENDBRANCH  11  12
ENDBRANCH   4  11
TORSDOF 4
ENDMDL
MODEL 7
REMARK VINA RESULT:      -6.1      1.634      2.051
REMARK  Name = 
REMARK  5 active torsions:
REMARK  status: ('A' for Active; 'I' for Inactive)
REMARK    1  A    between atoms: C_1  and  O_2
REMARK    2  A    between atoms: O_2  and  C_3
REMARK    3  A    between atoms: C_6  and  C_7
REMARK    4  A    between atoms: C_7  and  N_8
REMARK    5  A    between atoms: C_15  and  O_16
REMARK                            x       y       z     vdW  Elec       q    Type
REMARK                         _______ _______ _______ _____ _____    ______ ____
ROOT
ATOM      1  C   UNL     1       7.093   5.159  14.946  0.00  0.00    +0.000 A 
ATOM      2  C   UNL     1       6.251   4.172  14.421  0.00  0.00    +0.000 A 
ATOM      3  C   UNL     1       5.127   3.731  15.130  0.00  0.00    +0.000 A 
ATOM      4  C   UNL     1       4.832   4.260  16.391  0.00  0.00    +0.000 A 
ATOM      5  C   UNL     1       5.686   5.233  16.927  0.00  0.00    +0.000 A 
ATOM      6  C   UNL     1       6.801   5.687  16.205  0.00  0.00    +0.000 A 
ENDROOT
BRANCH   1   8
ATOM      7  C   UNL     1       7.918   5.328  12.709  0.00  0.00    +0.000 C 
ATOM      8  O   UNL     1       8.128   5.477  14.105  0.00  0.00    +0.000 OA
ENDBRANCH   1   8
BRANCH   6   9
ATOM      9  O   UNL     1       7.577   6.660  16.775  0.00  0.00    +0.000 OA
ATOM     10  H   UNL     1       7.432   6.658  17.734  0.00  0.00    +0.000 HD
ENDBRANCH   6   9
BRANCH   4  11
ATOM     11  C   UNL     1       3.605   3.819  17.157  0.00  0.00    +0.000 C 
BRANCH  11  12
ATOM     12  N   UNL     1       3.721   3.905  18.635  0.00  0.00    +0.000 NA
ATOM     13  C   UNL     1       3.759   2.547  19.220  0.00  0.00    +0.000 C 
ATOM     14  C   UNL     1       3.673   2.444  20.749  0.00  0.00    +0.000 C 
ATOM     15  S   UNL     1       2.145   3.174  21.389  0.00  0.00    +0.000 S 
ATOM     16  C   UNL     1       2.397   4.807  20.649  0.00  0.00    +0.000 C 
ATOM     17  C   UNL     1       2.582   4.716  19.129  0.00  0.00    +0.000 C 
ENDBRANCH  11  12
ENDBRANCH   4  11
TORSDOF 4
ENDMDL
MODEL 8
REMARK VINA RESULT:      -6.1      1.954      2.909
REMARK  Name = 
REMARK  5 active torsions:
REMARK  status: ('A' for Active; 'I' for Inactive)
REMARK    1  A    between atoms: C_1  and  O_2
REMARK    2  A    between atoms: O_2  and  C_3
REMARK    3  A    between atoms: C_6  and  C_7
REMARK    4  A    between atoms: C_7  and  N_8
REMARK    5  A    between atoms: C_15  and  O_16
REMARK                            x       y       z     vdW  Elec       q    Type
REMARK                         _______ _______ _______ _____ _____    ______ ____
ROOT
ATOM      1  C   UNL     1       7.176   7.040  17.410  0.00  0.00    +0.000 A 
ATOM      2  C   UNL     1       7.624   6.465  18.605  0.00  0.00    +0.000 A 
ATOM      3  C   UNL     1       6.965   5.365  19.167  0.00  0.00    +0.000 A 
ATOM      4  C   UNL     1       5.831   4.827  18.550  0.00  0.00    +0.000 A 
ATOM      5  C   UNL     1       5.370   5.414  17.365  0.00  0.00    +0.000 A 
ATOM      6  C   UNL     1       6.044   6.505  16.794  0.00  0.00    +0.000 A 
ENDROOT
BRANCH   1   8
ATOM      7  C   UNL     1       8.187   9.144  17.927  0.00  0.00    +0.000 C 
ATOM      8  O   UNL     1       7.954   8.092  17.002  0.00  0.00    +0.000 OA
ENDBRANCH   1   8
BRANCH   6   9
ATOM      9  O   UNL     1       5.556   7.012  15.619  0.00  0.00    +0.000 OA
ATOM     10  H   UNL     1       5.224   7.910  15.777  0.00  0.00    +0.000 HD
ENDBRANCH   6   9
BRANCH   4  11
ATOM     11  C   UNL     1       5.126   3.619  19.125  0.00  0.00    +0.000 C 
BRANCH  11  12
ATOM     12  N   UNL     1       3.643   3.687  19.106  0.00  0.00    +0.000 NA
ATOM     13  C   UNL     1       3.162   4.578  20.184  0.00  0.00    +0.000 C 
ATOM     14  C   UNL     1       1.649   4.608  20.442  0.00  0.00    +0.000 C 
ATOM     15  S   UNL     1       1.008   2.973  20.881  0.00  0.00    +0.000 S 
ATOM     16  C   UNL     1       1.613   2.133  19.395  0.00  0.00    +0.000 C 
ATOM     17  C   UNL     1       3.128   2.302  19.228  0.00  0.00    +0.000 C 
ENDBRANCH  11  12
ENDBRANCH   4  11
TORSDOF 4
ENDMDL
MODEL 9
REMARK VINA RESULT:      -6.0      1.830      2.504
REMARK  Name = 
REMARK  5 active torsions:
REMARK  status: ('A' for Active; 'I' for Inactive)
REMARK    1  A    between atoms: C_1  and  O_2
REMARK    2  A    between atoms: O_2  and  C_3
REMARK    3  A    between atoms: C_6  and  C_7
REMARK    4  A    between atoms: C_7  and  N_8
REMARK    5  A    between atoms: C_15  and  O_16
REMARK                            x       y       z     vdW  Elec       q    Type
REMARK                         _______ _______ _______ _____ _____    ______ ____
ROOT
ATOM      1  C   UNL     1       6.083   6.245  16.927  0.00  0.00    +0.000 A 
ATOM      2  C   UNL     1       4.816   6.577  17.420  0.00  0.00    +0.000 A 
ATOM      3  C   UNL     1       3.778   5.637  17.430  0.00  0.00    +0.000 A 
ATOM      4  C   UNL     1       3.984   4.347  16.930  0.00  0.00    +0.000 A 
ATOM      5  C   UNL     1       5.246   4.020  16.418  0.00  0.00    +0.000 A 
ATOM      6  C   UNL     1       6.291   4.958  16.426  0.00  0.00    +0.000 A 
ENDROOT
BRANCH   1   8
ATOM      7  C   UNL     1       7.851   7.310  18.133  0.00  0.00    +0.000 C 
ATOM      8  O   UNL     1       6.976   7.281  17.015  0.00  0.00    +0.000 OA
ENDBRANCH   1   8
BRANCH   6   9
ATOM      9  O   UNL     1       7.507   4.563  15.937  0.00  0.00    +0.000 OA
ATOM     10  H   UNL     1       7.594   3.603  16.046  0.00  0.00    +0.000 HD
ENDBRANCH   6   9
BRANCH   4  11
ATOM     11  C   UNL     1       2.884   3.310  16.962  0.00  0.00    +0.000 C 
BRANCH  11  12
ATOM     12  N   UNL     1       2.570   2.768  18.307  0.00  0.00    +0.000 NA
ATOM     13  C   UNL     1       1.336   3.394  18.832  0.00  0.00    +0.000 C 
ATOM     14  C   UNL     1       0.973   3.103  20.294  0.00  0.00    +0.000 C 
ATOM     15  S   UNL     1       2.276   3.637  21.432  0.00  0.00    +0.000 S 
ATOM     16  C   UNL     1       3.600   2.670  20.664  0.00  0.00    +0.000 C 
ATOM     17  C   UNL     1       3.750   3.002  19.174  0.00  0.00    +0.000 C 
ENDBRANCH  11  12
ENDBRANCH   4  11
TORSDOF 4
ENDMDL
