MODEL 1
REMARK VINA RESULT:      -8.1      0.000      0.000
REMARK  Name = 
REMARK  5 active torsions:
REMARK  status: ('A' for Active; 'I' for Inactive)
REMARK    1  A    between atoms: C_1  and  C_2
REMARK    2  A    between atoms: C_3  and  C_4
REMARK    3  A    between atoms: N_6  and  C_7
REMARK    4  A    between atoms: N_6  and  C_14
REMARK    5  A    between atoms: C_7  and  C_8
REMARK                            x       y       z     vdW  Elec       q    Type
REMARK                         _______ _______ _______ _____ _____    ______ ____
ROOT
ATOM      1  C   UNL     1       2.624   7.584  18.285  0.00  0.00    +0.000 C 
ATOM      2  O   UNL     1       3.096   8.182  17.311  0.00  0.00    +0.000 OA
ATOM      3  N   UNL     1       2.813   6.164  18.392  0.00  0.00    +0.000 N 
ENDROOT
BRANCH   1   6
ATOM      4  C   UNL     1       0.299   9.944  17.918  0.00  0.00    +0.000 C 
ATOM      5  C   UNL     1       0.848   9.305  19.148  0.00  0.00    +0.000 A 
ATOM      6  C   UNL     1       1.845   8.333  19.287  0.00  0.00    +0.000 A 
ATOM      7  O   UNL     1       2.081   8.150  20.625  0.00  0.00    +0.000 OA
ATOM      8  C   UNL     1       1.178   8.874  21.328  0.00  0.00    +0.000 A 
ATOM      9  C   UNL     1       1.055   8.888  22.714  0.00  0.00    +0.000 A 
ATOM     10  C   UNL     1      -0.003   9.637  23.239  0.00  0.00    +0.000 A 
ATOM     11  C   UNL     1      -0.861  10.356  22.404  0.00  0.00    +0.000 A 
ATOM     12  C   UNL     1      -0.674  10.362  21.015  0.00  0.00    +0.000 A 
ATOM     13  C   UNL     1       0.365   9.584  20.466  0.00  0.00    +0.000 A 
ENDBRANCH   1   6
BRANCH   3  14
ATOM     14  C   UNL     1       2.143   5.298  19.399  0.00  0.00    +0.000 C 
ATOM     15  C   UNL     1       1.431   4.104  18.733  0.00  0.00    +0.000 C 
ATOM     16  C   UNL     1       0.991   3.189  19.861  0.00  0.00    +0.000 C 
ATOM     17  S   UNL     1       2.369   3.171  20.976  0.00  0.00    +0.000 S 
ATOM     18  O   UNL     1       3.298   2.150  20.528  0.00  0.00    +0.000 OA
ATOM     19  O   UNL     1       1.874   3.216  22.336  0.00  0.00    +0.000 OA
ATOM     20  C   UNL     1       3.033   4.758  20.534  0.00  0.00    +0.000 C 
ENDBRANCH   3  14
BRANCH   3  21
ATOM     21  C   UNL     1       3.367   5.496  17.195  0.00  0.00    +0.000 C 
BRANCH  21  22
ATOM     22  C   UNL     1       4.831   5.106  17.268  0.00  0.00    +0.000 A 
ATOM     23  C   UNL     1       5.452   4.508  16.151  0.00  0.00    +0.000 A 
ATOM     24  C   UNL     1       6.832   4.276  16.134  0.00  0.00    +0.000 A 
ATOM     25  C   UNL     1       7.609   4.640  17.227  0.00  0.00    +0.000 A 
ATOM     26  C   UNL     1       7.007   5.208  18.349  0.00  0.00    +0.000 A 
ATOM     27  C   UNL     1       5.627   5.437  18.369  0.00  0.00    +0.000 A 
ENDBRANCH  21  22
ENDBRANCH   3  21
TORSDOF 4
ENDMDL
MODEL 2
REMARK VINA RESULT:      -7.5      2.701      4.786
REMARK  Name = 
REMARK  5 active torsions:
REMARK  status: ('A' for Active; 'I' for Inactive)
REMARK    1  A    between atoms: C_1  and  C_2
REMARK    2  A    between atoms: C_3  and  C_4
REMARK    3  A    between atoms: N_6  and  C_7
REMARK    4  A    between atoms: N_6  and  C_14
REMARK    5  A    between atoms: C_7  and  C_8
REMARK                            x       y       z     vdW  Elec       q    Type
REMARK                         _______ _______ _______ _____ _____    ______ ____
ROOT
ATOM      1  C   UNL     1       3.387   5.020  17.586  0.00  0.00    +0.000 C 
ATOM      2  O   UNL     1       2.752   4.061  17.131  0.00  0.00    +0.000 OA
ATOM      3  N   UNL     1       4.787   5.135  17.290  0.00  0.00    +0.000 N 
ENDROOT
BRANCH   1   6
ATOM      4  C   UNL     1       2.341   4.772  20.741  0.00  0.00    +0.000 C 
ATOM      5  C   UNL     1       2.282   5.915  19.787  0.00  0.00    +0.000 A 
ATOM      6  C   UNL     1       2.702   5.995  18.454  0.00  0.00    +0.000 A 
ATOM      7  O   UNL     1       2.331   7.219  17.961  0.00  0.00    +0.000 OA
ATOM      8  C   UNL     1       1.813   7.956  18.972  0.00  0.00    +0.000 A 
ATOM      9  C   UNL     1       1.391   9.278  18.876  0.00  0.00    +0.000 A 
ATOM     10  C   UNL     1       0.969   9.886  20.063  0.00  0.00    +0.000 A 
ATOM     11  C   UNL     1       0.945   9.178  21.266  0.00  0.00    +0.000 A 
ATOM     12  C   UNL     1       1.326   7.830  21.315  0.00  0.00    +0.000 A 
ATOM     13  C   UNL     1       1.788   7.212  20.136  0.00  0.00    +0.000 A 
ENDBRANCH   1   6
BRANCH   3  14
ATOM     14  C   UNL     1       5.705   6.121  17.923  0.00  0.00    +0.000 C 
ATOM     15  C   UNL     1       7.016   5.457  18.384  0.00  0.00    +0.000 C 
ATOM     16  C   UNL     1       7.943   6.586  18.796  0.00  0.00    +0.000 C 
ATOM     17  S   UNL     1       7.711   7.822  17.546  0.00  0.00    +0.000 S 
ATOM     18  O   UNL     1       8.598   7.516  16.440  0.00  0.00    +0.000 OA
ATOM     19  O   UNL     1       7.688   9.127  18.173  0.00  0.00    +0.000 OA
ATOM     20  C   UNL     1       6.061   7.360  17.079  0.00  0.00    +0.000 C 
ENDBRANCH   3  14
BRANCH   3  21
ATOM     21  C   UNL     1       5.409   3.958  16.647  0.00  0.00    +0.000 C 
BRANCH  21  22
ATOM     22  C   UNL     1       5.833   4.135  15.202  0.00  0.00    +0.000 A 
ATOM     23  C   UNL     1       7.037   4.806  14.902  0.00  0.00    +0.000 A 
ATOM     24  C   UNL     1       7.529   4.853  13.593  0.00  0.00    +0.000 A 
ATOM     25  C   UNL     1       6.829   4.229  12.568  0.00  0.00    +0.000 A 
ATOM     26  C   UNL     1       5.623   3.585  12.842  0.00  0.00    +0.000 A 
ATOM     27  C   UNL     1       5.129   3.540  14.150  0.00  0.00    +0.000 A 
ENDBRANCH  21  22
ENDBRANCH   3  21
TORSDOF 4
ENDMDL
MODEL 3
REMARK VINA RESULT:      -7.4      1.462      2.288
REMARK  Name = 
REMARK  5 active torsions:
REMARK  status: ('A' for Active; 'I' for Inactive)
REMARK    1  A    between atoms: C_1  and  C_2
REMARK    2  A    between atoms: C_3  and  C_4
REMARK    3  A    between atoms: N_6  and  C_7
REMARK    4  A    between atoms: N_6  and  C_14
REMARK    5  A    between atoms: C_7  and  C_8
REMARK                            x       y       z     vdW  Elec       q    Type
REMARK                         _______ _______ _______ _____ _____    ______ ____
ROOT
ATOM      1  C   UNL     1       2.910   7.966  17.889  0.00  0.00    +0.000 C 
ATOM      2  O   UNL     1       3.684   8.597  17.160  0.00  0.00    +0.000 OA
ATOM      3  N   UNL     1       3.150   6.569  18.120  0.00  0.00    +0.000 N 
ENDROOT
BRANCH   1   6
ATOM      4  C   UNL     1       1.908   8.271  21.053  0.00  0.00    +0.000 C 
ATOM      5  C   UNL     1       1.321   8.810  19.794  0.00  0.00    +0.000 A 
ATOM      6  C   UNL     1       1.740   8.650  18.467  0.00  0.00    +0.000 A 
ATOM      7  O   UNL     1       0.810   9.240  17.651  0.00  0.00    +0.000 OA
ATOM      8  C   UNL     1      -0.104   9.876  18.422  0.00  0.00    +0.000 A 
ATOM      9  C   UNL     1      -1.162  10.648  17.953  0.00  0.00    +0.000 A 
ATOM     10  C   UNL     1      -1.941  11.293  18.919  0.00  0.00    +0.000 A 
ATOM     11  C   UNL     1      -1.678  11.131  20.282  0.00  0.00    +0.000 A 
ATOM     12  C   UNL     1      -0.636  10.303  20.720  0.00  0.00    +0.000 A 
ATOM     13  C   UNL     1       0.180   9.673  19.759  0.00  0.00    +0.000 A 
ENDBRANCH   1   6
BRANCH   3  14
ATOM     14  C   UNL     1       2.203   5.653  18.811  0.00  0.00    +0.000 C 
ATOM     15  C   UNL     1       1.694   4.547  17.867  0.00  0.00    +0.000 C 
ATOM     16  C   UNL     1       0.930   3.564  18.735  0.00  0.00    +0.000 C 
ATOM     17  S   UNL     1       1.926   3.401  20.193  0.00  0.00    +0.000 S 
ATOM     18  O   UNL     1       2.927   2.380  19.942  0.00  0.00    +0.000 OA
ATOM     19  O   UNL     1       1.060   3.357  21.352  0.00  0.00    +0.000 OA
ATOM     20  C   UNL     1       2.717   4.988  20.102  0.00  0.00    +0.000 C 
ENDBRANCH   3  14
BRANCH   3  21
ATOM     21  C   UNL     1       4.186   5.944  17.270  0.00  0.00    +0.000 C 
BRANCH  21  22
ATOM     22  C   UNL     1       5.615   6.071  17.761  0.00  0.00    +0.000 A 
ATOM     23  C   UNL     1       6.470   7.034  17.186  0.00  0.00    +0.000 A 
ATOM     24  C   UNL     1       7.741   7.278  17.717  0.00  0.00    +0.000 A 
ATOM     25  C   UNL     1       8.175   6.566  18.830  0.00  0.00    +0.000 A 
ATOM     26  C   UNL     1       7.353   5.592  19.394  0.00  0.00    +0.000 A 
ATOM     27  C   UNL     1       6.082   5.346  18.862  0.00  0.00    +0.000 A 
ENDBRANCH  21  22
ENDBRANCH   3  21
TORSDOF 4
ENDMDL
MODEL 4
REMARK VINA RESULT:      -6.9      4.068      8.931
REMARK  Name = 
REMARK  5 active torsions:
REMARK  status: ('A' for Active; 'I' for Inactive)
REMARK    1  A    between atoms: C_1  and  C_2
REMARK    2  A    between atoms: C_3  and  C_4
REMARK    3  A    between atoms: N_6  and  C_7
REMARK    4  A    between atoms: N_6  and  C_14
REMARK    5  A    between atoms: C_7  and  C_8
REMARK                            x       y       z     vdW  Elec       q    Type
REMARK                         _______ _______ _______ _____ _____    ______ ____
ROOT
ATOM      1  C   UNL     1       0.331  11.421  20.315  0.00  0.00    +0.000 C 
ATOM      2  O   UNL     1       0.638  12.100  21.302  0.00  0.00    +0.000 OA
ATOM      3  N   UNL     1      -0.638  11.935  19.388  0.00  0.00    +0.000 N 
ENDROOT
BRANCH   1   6
ATOM      4  C   UNL     1       0.562   8.837  22.407  0.00  0.00    +0.000 C 
ATOM      5  C   UNL     1       1.014   8.985  20.994  0.00  0.00    +0.000 A 
ATOM      6  C   UNL     1       0.933  10.088  20.136  0.00  0.00    +0.000 A 
ATOM      7  O   UNL     1       1.590   9.776  18.974  0.00  0.00    +0.000 OA
ATOM      8  C   UNL     1       1.962   8.474  19.022  0.00  0.00    +0.000 A 
ATOM      9  C   UNL     1       2.590   7.774  17.997  0.00  0.00    +0.000 A 
ATOM     10  C   UNL     1       2.811   6.410  18.217  0.00  0.00    +0.000 A 
ATOM     11  C   UNL     1       2.446   5.807  19.423  0.00  0.00    +0.000 A 
ATOM     12  C   UNL     1       1.864   6.556  20.455  0.00  0.00    +0.000 A 
ATOM     13  C   UNL     1       1.603   7.923  20.237  0.00  0.00    +0.000 A 
ENDBRANCH   1   6
BRANCH   3  14
ATOM     14  C   UNL     1      -1.237  11.153  18.273  0.00  0.00    +0.000 C 
ATOM     15  C   UNL     1      -2.292  10.154  18.787  0.00  0.00    +0.000 C 
ATOM     16  C   UNL     1      -2.979   9.591  17.556  0.00  0.00    +0.000 C 
ATOM     17  S   UNL     1      -3.209  10.997  16.500  0.00  0.00    +0.000 S 
ATOM     18  O   UNL     1      -4.451  11.646  16.879  0.00  0.00    +0.000 OA
ATOM     19  O   UNL     1      -2.933  10.608  15.133  0.00  0.00    +0.000 OA
ATOM     20  C   UNL     1      -1.861  11.968  17.125  0.00  0.00    +0.000 C 
ENDBRANCH   3  14
BRANCH   3  21
ATOM     21  C   UNL     1      -1.365  13.147  19.822  0.00  0.00    +0.000 C 
BRANCH  21  22
ATOM     22  C   UNL     1      -2.598  12.915  20.675  0.00  0.00    +0.000 A 
ATOM     23  C   UNL     1      -2.470  12.809  22.075  0.00  0.00    +0.000 A 
ATOM     24  C   UNL     1      -3.599  12.747  22.899  0.00  0.00    +0.000 A 
ATOM     25  C   UNL     1      -4.870  12.793  22.337  0.00  0.00    +0.000 A 
ATOM     26  C   UNL     1      -5.014  12.871  20.952  0.00  0.00    +0.000 A 
ATOM     27  C   UNL     1      -3.885  12.930  20.128  0.00  0.00    +0.000 A 
ENDBRANCH  21  22
ENDBRANCH   3  21
TORSDOF 4
ENDMDL
MODEL 5
REMARK VINA RESULT:      -6.9      1.252      2.195
REMARK  Name = 
REMARK  5 active torsions:
REMARK  status: ('A' for Active; 'I' for Inactive)
REMARK    1  A    between atoms: C_1  and  C_2
REMARK    2  A    between atoms: C_3  and  C_4
REMARK    3  A    between atoms: N_6  and  C_7
REMARK    4  A    between atoms: N_6  and  C_14
REMARK    5  A    between atoms: C_7  and  C_8
REMARK                            x       y       z     vdW  Elec       q    Type
REMARK                         _______ _______ _______ _____ _____    ______ ____
ROOT
ATOM      1  C   UNL     1       3.034   7.506  17.886  0.00  0.00    +0.000 C 
ATOM      2  O   UNL     1       3.828   8.084  17.134  0.00  0.00    +0.000 OA
ATOM      3  N   UNL     1       3.151   6.086  18.068  0.00  0.00    +0.000 N 
ENDROOT
BRANCH   1   6
ATOM      4  C   UNL     1       2.070   7.618  21.075  0.00  0.00    +0.000 C 
ATOM      5  C   UNL     1       1.567   8.357  19.882  0.00  0.00    +0.000 A 
ATOM      6  C   UNL     1       1.966   8.280  18.543  0.00  0.00    +0.000 A 
ATOM      7  O   UNL     1       1.128   9.070  17.800  0.00  0.00    +0.000 OA
ATOM      8  C   UNL     1       0.305   9.742  18.641  0.00  0.00    +0.000 A 
ATOM      9  C   UNL     1      -0.636  10.694  18.264  0.00  0.00    +0.000 A 
ATOM     10  C   UNL     1      -1.324  11.336  19.299  0.00  0.00    +0.000 A 
ATOM     11  C   UNL     1      -1.092  11.001  20.635  0.00  0.00    +0.000 A 
ATOM     12  C   UNL     1      -0.174   9.998  20.975  0.00  0.00    +0.000 A 
ATOM     13  C   UNL     1       0.554   9.366  19.947  0.00  0.00    +0.000 A 
ENDBRANCH   1   6
BRANCH   3  14
ATOM     14  C   UNL     1       2.157   5.243  18.784  0.00  0.00    +0.000 C 
ATOM     15  C   UNL     1       1.440   4.274  17.823  0.00  0.00    +0.000 C 
ATOM     16  C   UNL     1       0.633   3.330  18.695  0.00  0.00    +0.000 C 
ATOM     17  S   UNL     1       1.715   2.947  20.047  0.00  0.00    +0.000 S 
ATOM     18  O   UNL     1       2.558   1.836  19.648  0.00  0.00    +0.000 OA
ATOM     19  O   UNL     1       0.946   2.925  21.273  0.00  0.00    +0.000 OA
ATOM     20  C   UNL     1       2.686   4.433  19.982  0.00  0.00    +0.000 C 
ENDBRANCH   3  14
BRANCH   3  21
ATOM     21  C   UNL     1       4.079   5.393  17.149  0.00  0.00    +0.000 C 
BRANCH  21  22
ATOM     22  C   UNL     1       5.525   5.313  17.598  0.00  0.00    +0.000 A 
ATOM     23  C   UNL     1       5.882   5.752  18.890  0.00  0.00    +0.000 A 
ATOM     24  C   UNL     1       7.175   5.552  19.388  0.00  0.00    +0.000 A 
ATOM     25  C   UNL     1       8.126   4.910  18.604  0.00  0.00    +0.000 A 
ATOM     26  C   UNL     1       7.797   4.493  17.315  0.00  0.00    +0.000 A 
ATOM     27  C   UNL     1       6.506   4.695  16.816  0.00  0.00    +0.000 A 
ENDBRANCH  21  22
ENDBRANCH   3  21
TORSDOF 4
ENDMDL
MODEL 6
REMARK VINA RESULT:      -6.9      3.815      8.617
REMARK  Name = 
REMARK  5 active torsions:
REMARK  status: ('A' for Active; 'I' for Inactive)
REMARK    1  A    between atoms: C_1  and  C_2
REMARK    2  A    between atoms: C_3  and  C_4
REMARK    3  A    between atoms: N_6  and  C_7
REMARK    4  A    between atoms: N_6  and  C_14
REMARK    5  A    between atoms: C_7  and  C_8
REMARK                            x       y       z     vdW  Elec       q    Type
REMARK                         _______ _______ _______ _____ _____    ______ ____
ROOT
ATOM      1  C   UNL     1       0.777  10.870  20.413  0.00  0.00    +0.000 C 
ATOM      2  O   UNL     1       1.215  11.380  21.451  0.00  0.00    +0.000 OA
ATOM      3  N   UNL     1      -0.172  11.602  19.621  0.00  0.00    +0.000 N 
ENDROOT
BRANCH   1   6
ATOM      4  C   UNL     1       2.225   9.735  17.634  0.00  0.00    +0.000 C 
ATOM      5  C   UNL     1       1.839   9.025  18.886  0.00  0.00    +0.000 A 
ATOM      6  C   UNL     1       1.206   9.512  20.036  0.00  0.00    +0.000 A 
ATOM      7  O   UNL     1       0.960   8.452  20.870  0.00  0.00    +0.000 OA
ATOM      8  C   UNL     1       1.533   7.343  20.345  0.00  0.00    +0.000 A 
ATOM      9  C   UNL     1       1.559   6.086  20.940  0.00  0.00    +0.000 A 
ATOM     10  C   UNL     1       2.281   5.093  20.270  0.00  0.00    +0.000 A 
ATOM     11  C   UNL     1       2.908   5.357  19.050  0.00  0.00    +0.000 A 
ATOM     12  C   UNL     1       2.815   6.622  18.453  0.00  0.00    +0.000 A 
ATOM     13  C   UNL     1       2.122   7.644  19.132  0.00  0.00    +0.000 A 
ENDBRANCH   1   6
BRANCH   3  14
ATOM     14  C   UNL     1      -0.918  11.038  18.464  0.00  0.00    +0.000 C 
ATOM     15  C   UNL     1      -1.951   9.987  18.915  0.00  0.00    +0.000 C 
ATOM     16  C   UNL     1      -2.789   9.661  17.692  0.00  0.00    +0.000 C 
ATOM     17  S   UNL     1      -3.076  11.234  16.925  0.00  0.00    +0.000 S 
ATOM     18  O   UNL     1      -4.242  11.832  17.548  0.00  0.00    +0.000 OA
ATOM     19  O   UNL     1      -2.964  11.084  15.490  0.00  0.00    +0.000 OA
ATOM     20  C   UNL     1      -1.630  12.054  17.551  0.00  0.00    +0.000 C 
ENDBRANCH   3  14
BRANCH   3  21
ATOM     21  C   UNL     1      -0.726  12.823  20.244  0.00  0.00    +0.000 C 
BRANCH  21  22
ATOM     22  C   UNL     1      -1.948  12.628  21.122  0.00  0.00    +0.000 A 
ATOM     23  C   UNL     1      -1.790  12.209  22.459  0.00  0.00    +0.000 A 
ATOM     24  C   UNL     1      -2.880  12.166  23.334  0.00  0.00    +0.000 A 
ATOM     25  C   UNL     1      -4.142  12.543  22.887  0.00  0.00    +0.000 A 
ATOM     26  C   UNL     1      -4.320  12.934  21.562  0.00  0.00    +0.000 A 
ATOM     27  C   UNL     1      -3.230  12.974  20.685  0.00  0.00    +0.000 A 
ENDBRANCH  21  22
ENDBRANCH   3  21
TORSDOF 4
ENDMDL
MODEL 7
REMARK VINA RESULT:      -6.6      3.925      8.774
REMARK  Name = 
REMARK  5 active torsions:
REMARK  status: ('A' for Active; 'I' for Inactive)
REMARK    1  A    between atoms: C_1  and  C_2
REMARK    2  A    between atoms: C_3  and  C_4
REMARK    3  A    between atoms: N_6  and  C_7
REMARK    4  A    between atoms: N_6  and  C_14
REMARK    5  A    between atoms: C_7  and  C_8
REMARK                            x       y       z     vdW  Elec       q    Type
REMARK                         _______ _______ _______ _____ _____    ______ ____
ROOT
ATOM      1  C   UNL     1       0.084  10.050  18.273  0.00  0.00    +0.000 C 
ATOM      2  O   UNL     1      -0.952   9.713  17.689  0.00  0.00    +0.000 OA
ATOM      3  N   UNL     1       0.213  11.401  18.745  0.00  0.00    +0.000 N 
ENDROOT
BRANCH   1   6
ATOM      4  C   UNL     1       0.998   8.217  20.902  0.00  0.00    +0.000 C 
ATOM      5  C   UNL     1       1.555   8.277  19.521  0.00  0.00    +0.000 A 
ATOM      6  C   UNL     1       1.176   9.073  18.434  0.00  0.00    +0.000 A 
ATOM      7  O   UNL     1       2.061   8.851  17.411  0.00  0.00    +0.000 OA
ATOM      8  C   UNL     1       2.899   7.849  17.772  0.00  0.00    +0.000 A 
ATOM      9  C   UNL     1       3.889   7.294  16.968  0.00  0.00    +0.000 A 
ATOM     10  C   UNL     1       4.588   6.206  17.501  0.00  0.00    +0.000 A 
ATOM     11  C   UNL     1       4.318   5.737  18.789  0.00  0.00    +0.000 A 
ATOM     12  C   UNL     1       3.350   6.356  19.591  0.00  0.00    +0.000 A 
ATOM     13  C   UNL     1       2.612   7.431  19.057  0.00  0.00    +0.000 A 
ENDBRANCH   1   6
BRANCH   3  14
ATOM     14  C   UNL     1       1.467  11.989  19.288  0.00  0.00    +0.000 C 
ATOM     15  C   UNL     1       2.012  13.101  18.372  0.00  0.00    +0.000 C 
ATOM     16  C   UNL     1       3.143  13.765  19.136  0.00  0.00    +0.000 C 
ATOM     17  S   UNL     1       2.533  13.900  20.795  0.00  0.00    +0.000 S 
ATOM     18  O   UNL     1       1.766  15.127  20.894  0.00  0.00    +0.000 OA
ATOM     19  O   UNL     1       3.605  13.589  21.716  0.00  0.00    +0.000 OA
ATOM     20  C   UNL     1       1.396  12.537  20.725  0.00  0.00    +0.000 C 
ENDBRANCH   3  14
BRANCH   3  21
ATOM     21  C   UNL     1      -0.825  12.346  18.282  0.00  0.00    +0.000 C 
BRANCH  21  22
ATOM     22  C   UNL     1      -2.114  12.365  19.082  0.00  0.00    +0.000 A 
ATOM     23  C   UNL     1      -2.134  12.955  20.363  0.00  0.00    +0.000 A 
ATOM     24  C   UNL     1      -3.335  13.123  21.061  0.00  0.00    +0.000 A 
ATOM     25  C   UNL     1      -4.532  12.706  20.488  0.00  0.00    +0.000 A 
ATOM     26  C   UNL     1      -4.526  12.097  19.234  0.00  0.00    +0.000 A 
ATOM     27  C   UNL     1      -3.325  11.926  18.538  0.00  0.00    +0.000 A 
ENDBRANCH  21  22
ENDBRANCH   3  21
TORSDOF 4
ENDMDL
MODEL 8
REMARK VINA RESULT:      -6.5      5.048      7.359
REMARK  Name = 
REMARK  5 active torsions:
REMARK  status: ('A' for Active; 'I' for Inactive)
REMARK    1  A    between atoms: C_1  and  C_2
REMARK    2  A    between atoms: C_3  and  C_4
REMARK    3  A    between atoms: N_6  and  C_7
REMARK    4  A    between atoms: N_6  and  C_14
REMARK    5  A    between atoms: C_7  and  C_8
REMARK                            x       y       z     vdW  Elec       q    Type
REMARK                         _______ _______ _______ _____ _____    ______ ____
ROOT
ATOM      1  C   UNL     1      -0.738  12.571  18.454  0.00  0.00    +0.000 C 
ATOM      2  O   UNL     1      -0.386  13.501  17.718  0.00  0.00    +0.000 OA
ATOM      3  N   UNL     1       0.266  11.786  19.116  0.00  0.00    +0.000 N 
ENDROOT
BRANCH   1   6
ATOM      4  C   UNL     1      -2.815  10.867  16.482  0.00  0.00    +0.000 C 
ATOM      5  C   UNL     1      -3.050  11.530  17.796  0.00  0.00    +0.000 A 
ATOM      6  C   UNL     1      -2.172  12.267  18.600  0.00  0.00    +0.000 A 
ATOM      7  O   UNL     1      -2.883  12.773  19.657  0.00  0.00    +0.000 OA
ATOM      8  C   UNL     1      -4.140  12.272  19.615  0.00  0.00    +0.000 A 
ATOM      9  C   UNL     1      -5.135  12.501  20.561  0.00  0.00    +0.000 A 
ATOM     10  C   UNL     1      -6.341  11.816  20.377  0.00  0.00    +0.000 A 
ATOM     11  C   UNL     1      -6.533  10.979  19.275  0.00  0.00    +0.000 A 
ATOM     12  C   UNL     1      -5.527  10.815  18.313  0.00  0.00    +0.000 A 
ATOM     13  C   UNL     1      -4.293  11.469  18.502  0.00  0.00    +0.000 A 
ENDBRANCH   1   6
BRANCH   3  14
ATOM     14  C   UNL     1      -0.005  10.533  19.870  0.00  0.00    +0.000 C 
ATOM     15  C   UNL     1       1.149   9.522  19.721  0.00  0.00    +0.000 C 
ATOM     16  C   UNL     1       0.862   8.401  20.703  0.00  0.00    +0.000 C 
ATOM     17  S   UNL     1       0.302   9.231  22.166  0.00  0.00    +0.000 S 
ATOM     18  O   UNL     1       1.467   9.599  22.949  0.00  0.00    +0.000 OA
ATOM     19  O   UNL     1      -0.801   8.486  22.736  0.00  0.00    +0.000 OA
ATOM     20  C   UNL     1      -0.317  10.693  21.370  0.00  0.00    +0.000 C 
ENDBRANCH   3  14
BRANCH   3  21
ATOM     21  C   UNL     1       1.658  12.014  18.674  0.00  0.00    +0.000 C 
BRANCH  21  22
ATOM     22  C   UNL     1       2.368  13.203  19.295  0.00  0.00    +0.000 A 
ATOM     23  C   UNL     1       2.365  13.366  20.696  0.00  0.00    +0.000 A 
ATOM     24  C   UNL     1       3.134  14.363  21.306  0.00  0.00    +0.000 A 
ATOM     25  C   UNL     1       3.918  15.207  20.528  0.00  0.00    +0.000 A 
ATOM     26  C   UNL     1       3.912  15.076  19.140  0.00  0.00    +0.000 A 
ATOM     27  C   UNL     1       3.140  14.081  18.528  0.00  0.00    +0.000 A 
ENDBRANCH  21  22
ENDBRANCH   3  21
TORSDOF 4
ENDMDL
MODEL 9
REMARK VINA RESULT:      -6.5      4.490      6.789
REMARK  Name = 
REMARK  5 active torsions:
REMARK  status: ('A' for Active; 'I' for Inactive)
REMARK    1  A    between atoms: C_1  and  C_2
REMARK    2  A    between atoms: C_3  and  C_4
REMARK    3  A    between atoms: N_6  and  C_7
REMARK    4  A    between atoms: N_6  and  C_14
REMARK    5  A    between atoms: C_7  and  C_8
REMARK                            x       y       z     vdW  Elec       q    Type
REMARK                         _______ _______ _______ _____ _____    ______ ____
ROOT
ATOM      1  C   UNL     1       0.545  11.817  20.980  0.00  0.00    +0.000 C 
ATOM      2  O   UNL     1       1.755  12.002  21.153  0.00  0.00    +0.000 OA
ATOM      3  N   UNL     1       0.112  11.029  19.861  0.00  0.00    +0.000 N 
ENDROOT
BRANCH   1   6
ATOM      4  C   UNL     1       0.360  14.929  22.160  0.00  0.00    +0.000 C 
ATOM      5  C   UNL     1      -0.528  13.753  22.382  0.00  0.00    +0.000 A 
ATOM      6  C   UNL     1      -0.422  12.443  21.900  0.00  0.00    +0.000 A 
ATOM      7  O   UNL     1      -1.416  11.694  22.473  0.00  0.00    +0.000 OA
ATOM      8  C   UNL     1      -2.220  12.514  23.191  0.00  0.00    +0.000 A 
ATOM      9  C   UNL     1      -3.378  12.131  23.860  0.00  0.00    +0.000 A 
ATOM     10  C   UNL     1      -4.113  13.152  24.471  0.00  0.00    +0.000 A 
ATOM     11  C   UNL     1      -3.673  14.478  24.433  0.00  0.00    +0.000 A 
ATOM     12  C   UNL     1      -2.473  14.819  23.796  0.00  0.00    +0.000 A 
ATOM     13  C   UNL     1      -1.738  13.808  23.145  0.00  0.00    +0.000 A 
ENDBRANCH   1   6
BRANCH   3  14
ATOM     14  C   UNL     1      -1.305  10.887  19.427  0.00  0.00    +0.000 C 
ATOM     15  C   UNL     1      -1.928  12.251  19.076  0.00  0.00    +0.000 C 
ATOM     16  C   UNL     1      -3.274  11.953  18.442  0.00  0.00    +0.000 C 
ATOM     17  S   UNL     1      -2.960  10.574  17.373  0.00  0.00    +0.000 S 
ATOM     18  O   UNL     1      -2.490  11.089  16.100  0.00  0.00    +0.000 OA
ATOM     19  O   UNL     1      -4.069   9.648  17.463  0.00  0.00    +0.000 OA
ATOM     20  C   UNL     1      -1.566   9.920  18.257  0.00  0.00    +0.000 C 
ENDBRANCH   3  14
BRANCH   3  21
ATOM     21  C   UNL     1       1.153  10.693  18.867  0.00  0.00    +0.000 C 
BRANCH  21  22
ATOM     22  C   UNL     1       1.737   9.296  18.960  0.00  0.00    +0.000 A 
ATOM     23  C   UNL     1       1.544   8.533  20.131  0.00  0.00    +0.000 A 
ATOM     24  C   UNL     1       1.938   7.192  20.190  0.00  0.00    +0.000 A 
ATOM     25  C   UNL     1       2.525   6.594  19.081  0.00  0.00    +0.000 A 
ATOM     26  C   UNL     1       2.746   7.340  17.925  0.00  0.00    +0.000 A 
ATOM     27  C   UNL     1       2.356   8.683  17.867  0.00  0.00    +0.000 A 
ENDBRANCH  21  22
ENDBRANCH   3  21
TORSDOF 4
ENDMDL
