MODEL 1
REMARK VINA RESULT:      -8.3      0.000      0.000
REMARK  Name = 
REMARK  6 active torsions:
REMARK  status: ('A' for Active; 'I' for Inactive)
REMARK    1  A    between atoms: C_1  and  C_2
REMARK    2  A    between atoms: C_2  and  O_3
REMARK    3  A    between atoms: O_3  and  C_4
REMARK    4  A    between atoms: C_4  and  C_6
REMARK    5  A    between atoms: N_10  and  S_11
REMARK    6  A    between atoms: S_11  and  C_14
REMARK                            x       y       z     vdW  Elec       q    Type
REMARK                         _______ _______ _______ _____ _____    ______ ____
ROOT
ATOM      1  S   UNL     1       4.618   5.811  17.841  0.00  0.00    +0.000 S 
ATOM      2  O   UNL     1       5.785   6.046  18.666  0.00  0.00    +0.000 OA
ATOM      3  O   UNL     1       4.698   5.852  16.397  0.00  0.00    +0.000 OA
ENDROOT
BRANCH   1   4
ATOM      4  C   UNL     1       3.350   6.965  18.303  0.00  0.00    +0.000 A 
ATOM      5  C   UNL     1       3.016   7.978  17.401  0.00  0.00    +0.000 A 
ATOM      6  C   UNL     1       2.077   8.941  17.767  0.00  0.00    +0.000 A 
ATOM      7  C   UNL     1       1.458   8.895  19.026  0.00  0.00    +0.000 A 
ATOM      8  C   UNL     1       0.501   9.850  19.398  0.00  0.00    +0.000 A 
ATOM      9  C   UNL     1      -0.125   9.785  20.643  0.00  0.00    +0.000 A 
ATOM     10  C   UNL     1       0.211   8.772  21.538  0.00  0.00    +0.000 A 
ATOM     11  C   UNL     1       1.176   7.825  21.192  0.00  0.00    +0.000 A 
ATOM     12  C   UNL     1       1.805   7.866  19.938  0.00  0.00    +0.000 A 
ATOM     13  C   UNL     1       2.764   6.909  19.569  0.00  0.00    +0.000 A 
ENDBRANCH   1   4
BRANCH   1  18
ATOM     14  C   UNL     1       2.507   2.359  17.683  0.00  0.00    +0.000 C 
ATOM     15  C   UNL     1       3.449   1.428  18.448  0.00  0.00    +0.000 C 
ATOM     16  C   UNL     1       4.162   2.164  19.579  0.00  0.00    +0.000 C 
ATOM     17  C   UNL     1       4.862   3.429  19.091  0.00  0.00    +0.000 C 
ATOM     18  N   UNL     1       3.929   4.302  18.317  0.00  0.00    +0.000 NA
ATOM     19  C   UNL     1       3.252   3.595  17.196  0.00  0.00    +0.000 C 
BRANCH  14  20
ATOM     20  C   UNL     1       1.272   2.696  18.503  0.00  0.00    +0.000 C 
ATOM     21  O   UNL     1       0.259   2.012  18.549  0.00  0.00    +0.000 OA
BRANCH  20  22
ATOM     22  O   UNL     1       1.380   3.948  19.032  0.00  0.00    +0.000 OA
BRANCH  22  24
ATOM     23  C   UNL     1       1.781   3.576  21.352  0.00  0.00    +0.000 C 
ATOM     24  C   UNL     1       0.791   4.106  20.330  0.00  0.00    +0.000 C 
ENDBRANCH  22  24
ENDBRANCH  20  22
ENDBRANCH  14  20
ENDBRANCH   1  18
TORSDOF 5
ENDMDL
MODEL 2
REMARK VINA RESULT:      -8.2      2.575      4.830
REMARK  Name = 
REMARK  6 active torsions:
REMARK  status: ('A' for Active; 'I' for Inactive)
REMARK    1  A    between atoms: C_1  and  C_2
REMARK    2  A    between atoms: C_2  and  O_3
REMARK    3  A    between atoms: O_3  and  C_4
REMARK    4  A    between atoms: C_4  and  C_6
REMARK    5  A    between atoms: N_10  and  S_11
REMARK    6  A    between atoms: S_11  and  C_14
REMARK                            x       y       z     vdW  Elec       q    Type
REMARK                         _______ _______ _______ _____ _____    ______ ____
ROOT
ATOM      1  S   UNL     1       3.313   4.142  18.523  0.00  0.00    +0.000 S 
ATOM      2  O   UNL     1       2.412   3.586  17.533  0.00  0.00    +0.000 OA
ATOM      3  O   UNL     1       3.667   3.403  19.715  0.00  0.00    +0.000 OA
ENDROOT
BRANCH   1   4
ATOM      4  C   UNL     1       2.663   5.698  19.076  0.00  0.00    +0.000 A 
ATOM      5  C   UNL     1       2.082   5.761  20.344  0.00  0.00    +0.000 A 
ATOM      6  C   UNL     1       1.499   6.951  20.775  0.00  0.00    +0.000 A 
ATOM      7  C   UNL     1       1.499   8.087  19.951  0.00  0.00    +0.000 A 
ATOM      8  C   UNL     1       0.928   9.295  20.380  0.00  0.00    +0.000 A 
ATOM      9  C   UNL     1       0.952  10.425  19.563  0.00  0.00    +0.000 A 
ATOM     10  C   UNL     1       1.533  10.358  18.300  0.00  0.00    +0.000 A 
ATOM     11  C   UNL     1       2.088   9.160  17.849  0.00  0.00    +0.000 A 
ATOM     12  C   UNL     1       2.087   8.016  18.663  0.00  0.00    +0.000 A 
ATOM     13  C   UNL     1       2.658   6.809  18.229  0.00  0.00    +0.000 A 
ENDBRANCH   1   4
BRANCH   1  18
ATOM     14  C   UNL     1       7.142   5.315  17.921  0.00  0.00    +0.000 C 
ATOM     15  C   UNL     1       7.482   4.503  16.670  0.00  0.00    +0.000 C 
ATOM     16  C   UNL     1       6.274   4.371  15.746  0.00  0.00    +0.000 C 
ATOM     17  C   UNL     1       5.049   3.830  16.477  0.00  0.00    +0.000 C 
ATOM     18  N   UNL     1       4.760   4.618  17.712  0.00  0.00    +0.000 NA
ATOM     19  C   UNL     1       5.928   4.726  18.629  0.00  0.00    +0.000 C 
BRANCH  14  20
ATOM     20  C   UNL     1       6.982   6.791  17.599  0.00  0.00    +0.000 C 
ATOM     21  O   UNL     1       6.119   7.254  16.865  0.00  0.00    +0.000 OA
BRANCH  20  22
ATOM     22  O   UNL     1       8.036   7.503  18.091  0.00  0.00    +0.000 OA
BRANCH  22  24
ATOM     23  C   UNL     1       8.886   9.618  18.790  0.00  0.00    +0.000 C 
ATOM     24  C   UNL     1       8.021   8.900  17.768  0.00  0.00    +0.000 C 
ENDBRANCH  22  24
ENDBRANCH  20  22
ENDBRANCH  14  20
ENDBRANCH   1  18
TORSDOF 5
ENDMDL
MODEL 3
REMARK VINA RESULT:      -8.1      2.601      4.638
REMARK  Name = 
REMARK  6 active torsions:
REMARK  status: ('A' for Active; 'I' for Inactive)
REMARK    1  A    between atoms: C_1  and  C_2
REMARK    2  A    between atoms: C_2  and  O_3
REMARK    3  A    between atoms: O_3  and  C_4
REMARK    4  A    between atoms: C_4  and  C_6
REMARK    5  A    between atoms: N_10  and  S_11
REMARK    6  A    between atoms: S_11  and  C_14
REMARK                            x       y       z     vdW  Elec       q    Type
REMARK                         _______ _______ _______ _____ _____    ______ ____
ROOT
ATOM      1  S   UNL     1       3.373   4.651  18.770  0.00  0.00    +0.000 S 
ATOM      2  O   UNL     1       2.528   3.838  17.918  0.00  0.00    +0.000 OA
ATOM      3  O   UNL     1       3.676   4.252  20.127  0.00  0.00    +0.000 OA
ENDROOT
BRANCH   1   4
ATOM      4  C   UNL     1       2.679   6.282  18.872  0.00  0.00    +0.000 A 
ATOM      5  C   UNL     1       2.805   7.126  17.767  0.00  0.00    +0.000 A 
ATOM      6  C   UNL     1       2.334   8.436  17.846  0.00  0.00    +0.000 A 
ATOM      7  C   UNL     1       1.726   8.908  19.020  0.00  0.00    +0.000 A 
ATOM      8  C   UNL     1       1.234  10.219  19.105  0.00  0.00    +0.000 A 
ATOM      9  C   UNL     1       0.612  10.674  20.267  0.00  0.00    +0.000 A 
ATOM     10  C   UNL     1       0.487   9.827  21.366  0.00  0.00    +0.000 A 
ATOM     11  C   UNL     1       0.988   8.526  21.306  0.00  0.00    +0.000 A 
ATOM     12  C   UNL     1       1.604   8.047  20.139  0.00  0.00    +0.000 A 
ATOM     13  C   UNL     1       2.096   6.734  20.058  0.00  0.00    +0.000 A 
ENDBRANCH   1   4
BRANCH   1  18
ATOM     14  C   UNL     1       7.279   5.475  18.090  0.00  0.00    +0.000 C 
ATOM     15  C   UNL     1       7.561   4.519  16.930  0.00  0.00    +0.000 C 
ATOM     16  C   UNL     1       6.349   4.383  16.013  0.00  0.00    +0.000 C 
ATOM     17  C   UNL     1       5.085   4.009  16.782  0.00  0.00    +0.000 C 
ATOM     18  N   UNL     1       4.853   4.936  17.930  0.00  0.00    +0.000 NA
ATOM     19  C   UNL     1       6.024   5.051  18.842  0.00  0.00    +0.000 C 
BRANCH  14  20
ATOM     20  C   UNL     1       7.229   6.919  17.621  0.00  0.00    +0.000 C 
ATOM     21  O   UNL     1       6.624   7.309  16.632  0.00  0.00    +0.000 OA
BRANCH  20  22
ATOM     22  O   UNL     1       8.093   7.686  18.346  0.00  0.00    +0.000 OA
BRANCH  22  24
ATOM     23  C   UNL     1       9.021   9.799  18.942  0.00  0.00    +0.000 C 
ATOM     24  C   UNL     1       8.202   9.047  17.907  0.00  0.00    +0.000 C 
ENDBRANCH  22  24
ENDBRANCH  20  22
ENDBRANCH  14  20
ENDBRANCH   1  18
TORSDOF 5
ENDMDL
MODEL 4
REMARK VINA RESULT:      -8.0      2.568      4.748
REMARK  Name = 
REMARK  6 active torsions:
REMARK  status: ('A' for Active; 'I' for Inactive)
REMARK    1  A    between atoms: C_1  and  C_2
REMARK    2  A    between atoms: C_2  and  O_3
REMARK    3  A    between atoms: O_3  and  C_4
REMARK    4  A    between atoms: C_4  and  C_6
REMARK    5  A    between atoms: N_10  and  S_11
REMARK    6  A    between atoms: S_11  and  C_14
REMARK                            x       y       z     vdW  Elec       q    Type
REMARK                         _______ _______ _______ _____ _____    ______ ____
ROOT
ATOM      1  S   UNL     1       3.325   4.552  18.488  0.00  0.00    +0.000 S 
ATOM      2  O   UNL     1       2.647   4.195  17.259  0.00  0.00    +0.000 OA
ATOM      3  O   UNL     1       3.370   3.642  19.612  0.00  0.00    +0.000 OA
ENDROOT
BRANCH   1   4
ATOM      4  C   UNL     1       2.635   6.068  19.102  0.00  0.00    +0.000 A 
ATOM      5  C   UNL     1       2.106   6.079  20.394  0.00  0.00    +0.000 A 
ATOM      6  C   UNL     1       1.493   7.235  20.875  0.00  0.00    +0.000 A 
ATOM      7  C   UNL     1       1.411   8.387  20.076  0.00  0.00    +0.000 A 
ATOM      8  C   UNL     1       0.809   9.560  20.556  0.00  0.00    +0.000 A 
ATOM      9  C   UNL     1       0.751  10.707  19.763  0.00  0.00    +0.000 A 
ATOM     10  C   UNL     1       1.280  10.690  18.476  0.00  0.00    +0.000 A 
ATOM     11  C   UNL     1       1.865   9.525  17.975  0.00  0.00    +0.000 A 
ATOM     12  C   UNL     1       1.946   8.367  18.764  0.00  0.00    +0.000 A 
ATOM     13  C   UNL     1       2.548   7.194  18.280  0.00  0.00    +0.000 A 
ENDBRANCH   1   4
BRANCH   1  18
ATOM     14  C   UNL     1       6.416   6.354  16.592  0.00  0.00    +0.000 C 
ATOM     15  C   UNL     1       7.312   6.687  17.786  0.00  0.00    +0.000 C 
ATOM     16  C   UNL     1       7.235   5.604  18.859  0.00  0.00    +0.000 C 
ATOM     17  C   UNL     1       5.797   5.306  19.273  0.00  0.00    +0.000 C 
ATOM     18  N   UNL     1       4.936   5.020  18.087  0.00  0.00    +0.000 NA
ATOM     19  C   UNL     1       4.988   6.087  17.050  0.00  0.00    +0.000 C 
BRANCH  14  20
ATOM     20  C   UNL     1       6.993   5.219  15.763  0.00  0.00    +0.000 C 
ATOM     21  O   UNL     1       7.899   4.481  16.127  0.00  0.00    +0.000 OA
BRANCH  20  22
ATOM     22  O   UNL     1       6.491   5.251  14.495  0.00  0.00    +0.000 OA
BRANCH  22  24
ATOM     23  C   UNL     1       6.460   3.705  12.682  0.00  0.00    +0.000 C 
ATOM     24  C   UNL     1       5.893   4.025  14.053  0.00  0.00    +0.000 C 
ENDBRANCH  22  24
ENDBRANCH  20  22
ENDBRANCH  14  20
ENDBRANCH   1  18
TORSDOF 5
ENDMDL
MODEL 5
REMARK VINA RESULT:      -7.8      2.574      4.506
REMARK  Name = 
REMARK  6 active torsions:
REMARK  status: ('A' for Active; 'I' for Inactive)
REMARK    1  A    between atoms: C_1  and  C_2
REMARK    2  A    between atoms: C_2  and  O_3
REMARK    3  A    between atoms: O_3  and  C_4
REMARK    4  A    between atoms: C_4  and  C_6
REMARK    5  A    between atoms: N_10  and  S_11
REMARK    6  A    between atoms: S_11  and  C_14
REMARK                            x       y       z     vdW  Elec       q    Type
REMARK                         _______ _______ _______ _____ _____    ______ ____
ROOT
ATOM      1  S   UNL     1       3.355   4.731  18.541  0.00  0.00    +0.000 S 
ATOM      2  O   UNL     1       2.760   4.127  17.366  0.00  0.00    +0.000 OA
ATOM      3  O   UNL     1       3.340   4.056  19.820  0.00  0.00    +0.000 OA
ENDROOT
BRANCH   1   4
ATOM      4  C   UNL     1       2.606   6.318  18.807  0.00  0.00    +0.000 A 
ATOM      5  C   UNL     1       2.496   7.189  17.721  0.00  0.00    +0.000 A 
ATOM      6  C   UNL     1       1.979   8.469  17.915  0.00  0.00    +0.000 A 
ATOM      7  C   UNL     1       1.561   8.885  19.189  0.00  0.00    +0.000 A 
ATOM      8  C   UNL     1       1.025  10.166  19.394  0.00  0.00    +0.000 A 
ATOM      9  C   UNL     1       0.592  10.563  20.659  0.00  0.00    +0.000 A 
ATOM     10  C   UNL     1       0.704   9.692  21.738  0.00  0.00    +0.000 A 
ATOM     11  C   UNL     1       1.252   8.421  21.557  0.00  0.00    +0.000 A 
ATOM     12  C   UNL     1       1.679   7.998  20.288  0.00  0.00    +0.000 A 
ATOM     13  C   UNL     1       2.216   6.716  20.088  0.00  0.00    +0.000 A 
ENDBRANCH   1   4
BRANCH   1  18
ATOM     14  C   UNL     1       6.520   6.339  16.593  0.00  0.00    +0.000 C 
ATOM     15  C   UNL     1       7.377   6.776  17.781  0.00  0.00    +0.000 C 
ATOM     16  C   UNL     1       7.257   5.797  18.946  0.00  0.00    +0.000 C 
ATOM     17  C   UNL     1       5.804   5.545  19.337  0.00  0.00    +0.000 C 
ATOM     18  N   UNL     1       4.981   5.154  18.153  0.00  0.00    +0.000 NA
ATOM     19  C   UNL     1       5.075   6.121  17.025  0.00  0.00    +0.000 C 
BRANCH  14  20
ATOM     20  C   UNL     1       7.116   5.130  15.892  0.00  0.00    +0.000 C 
ATOM     21  O   UNL     1       7.893   4.339  16.408  0.00  0.00    +0.000 OA
BRANCH  20  22
ATOM     22  O   UNL     1       6.811   5.152  14.562  0.00  0.00    +0.000 OA
BRANCH  22  24
ATOM     23  C   UNL     1       6.407   3.742  12.684  0.00  0.00    +0.000 C 
ATOM     24  C   UNL     1       6.002   4.057  14.113  0.00  0.00    +0.000 C 
ENDBRANCH  22  24
ENDBRANCH  20  22
ENDBRANCH  14  20
ENDBRANCH   1  18
TORSDOF 5
ENDMDL
MODEL 6
REMARK VINA RESULT:      -7.7      2.655      4.766
REMARK  Name = 
REMARK  6 active torsions:
REMARK  status: ('A' for Active; 'I' for Inactive)
REMARK    1  A    between atoms: C_1  and  C_2
REMARK    2  A    between atoms: C_2  and  O_3
REMARK    3  A    between atoms: O_3  and  C_4
REMARK    4  A    between atoms: C_4  and  C_6
REMARK    5  A    between atoms: N_10  and  S_11
REMARK    6  A    between atoms: S_11  and  C_14
REMARK                            x       y       z     vdW  Elec       q    Type
REMARK                         _______ _______ _______ _____ _____    ______ ____
ROOT
ATOM      1  S   UNL     1       3.981   3.411  18.617  0.00  0.00    +0.000 S 
ATOM      2  O   UNL     1       3.007   2.555  17.972  0.00  0.00    +0.000 OA
ATOM      3  O   UNL     1       4.849   2.908  19.659  0.00  0.00    +0.000 OA
ENDROOT
BRANCH   1   4
ATOM      4  C   UNL     1       3.140   4.815  19.304  0.00  0.00    +0.000 A 
ATOM      5  C   UNL     1       2.530   4.676  20.553  0.00  0.00    +0.000 A 
ATOM      6  C   UNL     1       1.802   5.740  21.084  0.00  0.00    +0.000 A 
ATOM      7  C   UNL     1       1.684   6.948  20.380  0.00  0.00    +0.000 A 
ATOM      8  C   UNL     1       0.965   8.030  20.911  0.00  0.00    +0.000 A 
ATOM      9  C   UNL     1       0.872   9.235  20.215  0.00  0.00    +0.000 A 
ATOM     10  C   UNL     1       1.482   9.368  18.971  0.00  0.00    +0.000 A 
ATOM     11  C   UNL     1       2.184   8.296  18.418  0.00  0.00    +0.000 A 
ATOM     12  C   UNL     1       2.302   7.081  19.111  0.00  0.00    +0.000 A 
ATOM     13  C   UNL     1       3.021   6.001  18.575  0.00  0.00    +0.000 A 
ENDBRANCH   1   4
BRANCH   1  18
ATOM     14  C   UNL     1       6.906   5.575  16.838  0.00  0.00    +0.000 C 
ATOM     15  C   UNL     1       7.241   4.661  15.658  0.00  0.00    +0.000 C 
ATOM     16  C   UNL     1       5.994   3.957  15.128  0.00  0.00    +0.000 C 
ATOM     17  C   UNL     1       5.233   3.228  16.231  0.00  0.00    +0.000 C 
ATOM     18  N   UNL     1       4.950   4.132  17.386  0.00  0.00    +0.000 NA
ATOM     19  C   UNL     1       6.167   4.801  17.923  0.00  0.00    +0.000 C 
BRANCH  14  20
ATOM     20  C   UNL     1       6.158   6.818  16.385  0.00  0.00    +0.000 C 
ATOM     21  O   UNL     1       5.379   6.857  15.443  0.00  0.00    +0.000 OA
BRANCH  20  22
ATOM     22  O   UNL     1       6.612   7.916  17.054  0.00  0.00    +0.000 OA
BRANCH  22  24
ATOM     23  C   UNL     1       8.372   9.117  18.123  0.00  0.00    +0.000 C 
ATOM     24  C   UNL     1       7.878   7.744  17.706  0.00  0.00    +0.000 C 
ENDBRANCH  22  24
ENDBRANCH  20  22
ENDBRANCH  14  20
ENDBRANCH   1  18
TORSDOF 5
ENDMDL
MODEL 7
REMARK VINA RESULT:      -7.5      0.759      1.640
REMARK  Name = 
REMARK  6 active torsions:
REMARK  status: ('A' for Active; 'I' for Inactive)
REMARK    1  A    between atoms: C_1  and  C_2
REMARK    2  A    between atoms: C_2  and  O_3
REMARK    3  A    between atoms: O_3  and  C_4
REMARK    4  A    between atoms: C_4  and  C_6
REMARK    5  A    between atoms: N_10  and  S_11
REMARK    6  A    between atoms: S_11  and  C_14
REMARK                            x       y       z     vdW  Elec       q    Type
REMARK                         _______ _______ _______ _____ _____    ______ ____
ROOT
ATOM      1  S   UNL     1       4.490   5.767  17.892  0.00  0.00    +0.000 S 
ATOM      2  O   UNL     1       5.784   5.989  18.505  0.00  0.00    +0.000 OA
ATOM      3  O   UNL     1       4.302   5.908  16.465  0.00  0.00    +0.000 OA
ENDROOT
BRANCH   1   4
ATOM      4  C   UNL     1       3.304   6.842  18.660  0.00  0.00    +0.000 A 
ATOM      5  C   UNL     1       2.768   6.464  19.893  0.00  0.00    +0.000 A 
ATOM      6  C   UNL     1       1.782   7.252  20.484  0.00  0.00    +0.000 A 
ATOM      7  C   UNL     1       1.331   8.424  19.856  0.00  0.00    +0.000 A 
ATOM      8  C   UNL     1       0.349   9.232  20.449  0.00  0.00    +0.000 A 
ATOM      9  C   UNL     1      -0.078  10.407  19.829  0.00  0.00    +0.000 A 
ATOM     10  C   UNL     1       0.460  10.779  18.600  0.00  0.00    +0.000 A 
ATOM     11  C   UNL     1       1.424   9.977  17.986  0.00  0.00    +0.000 A 
ATOM     12  C   UNL     1       1.876   8.800  18.603  0.00  0.00    +0.000 A 
ATOM     13  C   UNL     1       2.857   7.993  18.005  0.00  0.00    +0.000 A 
ENDBRANCH   1   4
BRANCH   1  18
ATOM     14  C   UNL     1       2.667   2.154  17.760  0.00  0.00    +0.000 C 
ATOM     15  C   UNL     1       3.695   1.302  18.506  0.00  0.00    +0.000 C 
ATOM     16  C   UNL     1       4.365   2.093  19.627  0.00  0.00    +0.000 C 
ATOM     17  C   UNL     1       4.950   3.412  19.131  0.00  0.00    +0.000 C 
ATOM     18  N   UNL     1       3.936   4.207  18.376  0.00  0.00    +0.000 NA
ATOM     19  C   UNL     1       3.300   3.448  17.264  0.00  0.00    +0.000 C 
BRANCH  14  20
ATOM     20  C   UNL     1       1.423   2.387  18.601  0.00  0.00    +0.000 C 
ATOM     21  O   UNL     1       0.406   2.936  18.202  0.00  0.00    +0.000 OA
BRANCH  20  22
ATOM     22  O   UNL     1       1.663   2.067  19.905  0.00  0.00    +0.000 OA
BRANCH  22  24
ATOM     23  C   UNL     1       2.138   3.389  21.830  0.00  0.00    +0.000 C 
ATOM     24  C   UNL     1       1.056   2.945  20.862  0.00  0.00    +0.000 C 
ENDBRANCH  22  24
ENDBRANCH  20  22
ENDBRANCH  14  20
ENDBRANCH   1  18
TORSDOF 5
ENDMDL
MODEL 8
REMARK VINA RESULT:      -7.4      0.815      1.112
REMARK  Name = 
REMARK  6 active torsions:
REMARK  status: ('A' for Active; 'I' for Inactive)
REMARK    1  A    between atoms: C_1  and  C_2
REMARK    2  A    between atoms: C_2  and  O_3
REMARK    3  A    between atoms: O_3  and  C_4
REMARK    4  A    between atoms: C_4  and  C_6
REMARK    5  A    between atoms: N_10  and  S_11
REMARK    6  A    between atoms: S_11  and  C_14
REMARK                            x       y       z     vdW  Elec       q    Type
REMARK                         _______ _______ _______ _____ _____    ______ ____
ROOT
ATOM      1  S   UNL     1       4.302   5.963  17.982  0.00  0.00    +0.000 S 
ATOM      2  O   UNL     1       5.447   6.098  18.860  0.00  0.00    +0.000 OA
ATOM      3  O   UNL     1       4.444   6.047  16.545  0.00  0.00    +0.000 OA
ENDROOT
BRANCH   1   4
ATOM      4  C   UNL     1       3.089   7.177  18.436  0.00  0.00    +0.000 A 
ATOM      5  C   UNL     1       2.803   8.199  17.528  0.00  0.00    +0.000 A 
ATOM      6  C   UNL     1       1.908   9.206  17.886  0.00  0.00    +0.000 A 
ATOM      7  C   UNL     1       1.287   9.196  19.145  0.00  0.00    +0.000 A 
ATOM      8  C   UNL     1       0.374  10.197  19.510  0.00  0.00    +0.000 A 
ATOM      9  C   UNL     1      -0.255  10.168  20.755  0.00  0.00    +0.000 A 
ATOM     10  C   UNL     1       0.033   9.147  21.656  0.00  0.00    +0.000 A 
ATOM     11  C   UNL     1       0.953   8.153  21.317  0.00  0.00    +0.000 A 
ATOM     12  C   UNL     1       1.584   8.158  20.063  0.00  0.00    +0.000 A 
ATOM     13  C   UNL     1       2.499   7.156  19.702  0.00  0.00    +0.000 A 
ENDBRANCH   1   4
BRANCH   1  18
ATOM     14  C   UNL     1       1.438   3.107  18.188  0.00  0.00    +0.000 C 
ATOM     15  C   UNL     1       2.298   1.849  18.050  0.00  0.00    +0.000 C 
ATOM     16  C   UNL     1       3.651   2.021  18.735  0.00  0.00    +0.000 C 
ATOM     17  C   UNL     1       4.377   3.278  18.266  0.00  0.00    +0.000 C 
ATOM     18  N   UNL     1       3.504   4.485  18.377  0.00  0.00    +0.000 NA
ATOM     19  C   UNL     1       2.194   4.331  17.687  0.00  0.00    +0.000 C 
BRANCH  14  20
ATOM     20  C   UNL     1       0.918   3.272  19.606  0.00  0.00    +0.000 C 
ATOM     21  O   UNL     1       0.431   4.301  20.053  0.00  0.00    +0.000 OA
BRANCH  20  22
ATOM     22  O   UNL     1       1.232   2.179  20.359  0.00  0.00    +0.000 OA
BRANCH  22  24
ATOM     23  C   UNL     1       2.530   3.569  21.796  0.00  0.00    +0.000 C 
ATOM     24  C   UNL     1       1.498   2.456  21.740  0.00  0.00    +0.000 C 
ENDBRANCH  22  24
ENDBRANCH  20  22
ENDBRANCH  14  20
ENDBRANCH   1  18
TORSDOF 5
ENDMDL
MODEL 9
REMARK VINA RESULT:      -7.3      2.365      4.683
REMARK  Name = 
REMARK  6 active torsions:
REMARK  status: ('A' for Active; 'I' for Inactive)
REMARK    1  A    between atoms: C_1  and  C_2
REMARK    2  A    between atoms: C_2  and  O_3
REMARK    3  A    between atoms: O_3  and  C_4
REMARK    4  A    between atoms: C_4  and  C_6
REMARK    5  A    between atoms: N_10  and  S_11
REMARK    6  A    between atoms: S_11  and  C_14
REMARK                            x       y       z     vdW  Elec       q    Type
REMARK                         _______ _______ _______ _____ _____    ______ ____
ROOT
ATOM      1  S   UNL     1       2.881   4.728  18.820  0.00  0.00    +0.000 S 
ATOM      2  O   UNL     1       2.017   4.250  17.759  0.00  0.00    +0.000 OA
ATOM      3  O   UNL     1       3.074   3.964  20.032  0.00  0.00    +0.000 OA
ENDROOT
BRANCH   1   4
ATOM      4  C   UNL     1       2.323   6.335  19.327  0.00  0.00    +0.000 A 
ATOM      5  C   UNL     1       1.768   6.472  20.602  0.00  0.00    +0.000 A 
ATOM      6  C   UNL     1       1.256   7.706  21.000  0.00  0.00    +0.000 A 
ATOM      7  C   UNL     1       1.302   8.812  20.136  0.00  0.00    +0.000 A 
ATOM      8  C   UNL     1       0.803  10.062  20.531  0.00  0.00    +0.000 A 
ATOM      9  C   UNL     1       0.872  11.161  19.675  0.00  0.00    +0.000 A 
ATOM     10  C   UNL     1       1.427  11.019  18.406  0.00  0.00    +0.000 A 
ATOM     11  C   UNL     1       1.911   9.778  17.988  0.00  0.00    +0.000 A 
ATOM     12  C   UNL     1       1.863   8.665  18.842  0.00  0.00    +0.000 A 
ATOM     13  C   UNL     1       2.362   7.415  18.442  0.00  0.00    +0.000 A 
ENDBRANCH   1   4
BRANCH   1  18
ATOM     14  C   UNL     1       6.837   4.481  17.993  0.00  0.00    +0.000 C 
ATOM     15  C   UNL     1       6.823   4.794  16.496  0.00  0.00    +0.000 C 
ATOM     16  C   UNL     1       5.747   5.820  16.151  0.00  0.00    +0.000 C 
ATOM     17  C   UNL     1       4.373   5.412  16.675  0.00  0.00    +0.000 C 
ATOM     18  N   UNL     1       4.423   5.078  18.130  0.00  0.00    +0.000 NA
ATOM     19  C   UNL     1       5.452   4.057  18.466  0.00  0.00    +0.000 C 
BRANCH  14  20
ATOM     20  C   UNL     1       7.409   5.638  18.797  0.00  0.00    +0.000 C 
ATOM     21  O   UNL     1       7.463   5.677  20.018  0.00  0.00    +0.000 OA
BRANCH  20  22
ATOM     22  O   UNL     1       7.683   6.695  17.980  0.00  0.00    +0.000 OA
BRANCH  22  24
ATOM     23  C   UNL     1       8.092   9.035  17.787  0.00  0.00    +0.000 C 
ATOM     24  C   UNL     1       8.348   7.792  18.620  0.00  0.00    +0.000 C 
ENDBRANCH  22  24
ENDBRANCH  20  22
ENDBRANCH  14  20
ENDBRANCH   1  18
TORSDOF 5
ENDMDL
