MODEL 1
REMARK VINA RESULT:      -7.1      0.000      0.000
REMARK  Name = 
REMARK  0 active torsions:
REMARK  status: ('A' for Active; 'I' for Inactive)
REMARK                            x       y       z     vdW  Elec       q    Type
REMARK                         _______ _______ _______ _____ _____    ______ ____
ROOT
ATOM      1  C   UNL     1       2.086   8.328  18.767  0.00  0.00    +0.000 A 
ATOM      2  C   UNL     1       3.046   7.998  17.801  0.00  0.00    +0.000 A 
ATOM      3  C   UNL     1       3.720   6.753  17.799  0.00  0.00    +0.000 A 
ATOM      4  C   UNL     1       3.425   5.854  18.817  0.00  0.00    +0.000 A 
ATOM      5  C   UNL     1       2.432   6.200  19.759  0.00  0.00    +0.000 A 
ATOM      6  C   UNL     1       1.758   7.414  19.760  0.00  0.00    +0.000 A 
ATOM      7  C   UNL     1       2.179   5.056  20.688  0.00  0.00    +0.000 C 
ATOM      8  C   UNL     1       0.917   4.266  20.313  0.00  0.00    +0.000 C 
ATOM      9  C   UNL     1       1.278   2.836  20.632  0.00  0.00    +0.000 C 
ATOM     10  C   UNL     1       2.742   2.709  20.235  0.00  0.00    +0.000 C 
ATOM     11  C   UNL     1       3.357   4.115  20.349  0.00  0.00    +0.000 C 
ATOM     12  N   UNL     1       3.975   4.618  19.094  0.00  0.00    +0.000 N 
ATOM     13  C   UNL     1       4.773   3.725  18.265  0.00  0.00    +0.000 C 
ATOM     14  C   UNL     1       5.421   4.204  16.962  0.00  0.00    +0.000 C 
ATOM     15  N   UNL     1       4.804   5.228  16.134  0.00  0.00    +0.000 NA
ATOM     16  C   UNL     1       4.788   6.528  16.767  0.00  0.00    +0.000 C 
ATOM     17  H   UNL     1       3.852   4.965  15.878  0.00  0.00    +0.000 HD
ENDROOT
TORSDOF 0
ENDMDL
MODEL 2
REMARK VINA RESULT:      -6.8      1.347      1.578
REMARK  Name = 
REMARK  0 active torsions:
REMARK  status: ('A' for Active; 'I' for Inactive)
REMARK                            x       y       z     vdW  Elec       q    Type
REMARK                         _______ _______ _______ _____ _____    ______ ____
ROOT
ATOM      1  C   UNL     1       2.514   7.749  18.565  0.00  0.00    +0.000 A 
ATOM      2  C   UNL     1       3.524   7.793  17.595  0.00  0.00    +0.000 A 
ATOM      3  C   UNL     1       4.236   6.637  17.193  0.00  0.00    +0.000 A 
ATOM      4  C   UNL     1       3.927   5.434  17.817  0.00  0.00    +0.000 A 
ATOM      5  C   UNL     1       2.884   5.415  18.768  0.00  0.00    +0.000 A 
ATOM      6  C   UNL     1       2.172   6.541  19.158  0.00  0.00    +0.000 A 
ATOM      7  C   UNL     1       2.627   4.013  19.225  0.00  0.00    +0.000 C 
ATOM      8  C   UNL     1       1.408   3.387  18.533  0.00  0.00    +0.000 C 
ATOM      9  C   UNL     1       1.800   1.941  18.351  0.00  0.00    +0.000 C 
ATOM     10  C   UNL     1       3.282   1.983  18.011  0.00  0.00    +0.000 C 
ATOM     11  C   UNL     1       3.847   3.269  18.640  0.00  0.00    +0.000 C 
ATOM     12  N   UNL     1       4.503   4.188  17.673  0.00  0.00    +0.000 N 
ATOM     13  C   UNL     1       5.363   3.653  16.626  0.00  0.00    +0.000 C 
ATOM     14  C   UNL     1       6.052   4.568  15.608  0.00  0.00    +0.000 C 
ATOM     15  N   UNL     1       5.438   5.808  15.158  0.00  0.00    +0.000 NA
ATOM     16  C   UNL     1       5.354   6.803  16.204  0.00  0.00    +0.000 C 
ATOM     17  H   UNL     1       4.508   5.637  14.778  0.00  0.00    +0.000 HD
ENDROOT
TORSDOF 0
ENDMDL
MODEL 3
REMARK VINA RESULT:      -6.7      1.315      4.136
REMARK  Name = 
REMARK  0 active torsions:
REMARK  status: ('A' for Active; 'I' for Inactive)
REMARK                            x       y       z     vdW  Elec       q    Type
REMARK                         _______ _______ _______ _____ _____    ______ ____
ROOT
ATOM      1  C   UNL     1       2.444   7.658  18.869  0.00  0.00    +0.000 A 
ATOM      2  C   UNL     1       2.010   6.468  19.468  0.00  0.00    +0.000 A 
ATOM      3  C   UNL     1       2.476   5.198  19.051  0.00  0.00    +0.000 A 
ATOM      4  C   UNL     1       3.372   5.151  17.989  0.00  0.00    +0.000 A 
ATOM      5  C   UNL     1       3.815   6.367  17.425  0.00  0.00    +0.000 A 
ATOM      6  C   UNL     1       3.372   7.617  17.836  0.00  0.00    +0.000 A 
ATOM      7  C   UNL     1       4.861   6.106  16.388  0.00  0.00    +0.000 C 
ATOM      8  C   UNL     1       6.282   6.348  16.917  0.00  0.00    +0.000 C 
ATOM      9  C   UNL     1       7.106   5.279  16.241  0.00  0.00    +0.000 C 
ATOM     10  C   UNL     1       6.201   4.056  16.211  0.00  0.00    +0.000 C 
ATOM     11  C   UNL     1       4.752   4.574  16.218  0.00  0.00    +0.000 C 
ATOM     12  N   UNL     1       3.924   4.063  17.342  0.00  0.00    +0.000 N 
ATOM     13  C   UNL     1       4.020   2.667  17.744  0.00  0.00    +0.000 C 
ATOM     14  C   UNL     1       3.187   2.105  18.901  0.00  0.00    +0.000 C 
ATOM     15  N   UNL     1       2.820   2.924  20.046  0.00  0.00    +0.000 NA
ATOM     16  C   UNL     1       1.891   3.979  19.705  0.00  0.00    +0.000 C 
ATOM     17  H   UNL     1       3.647   3.331  20.483  0.00  0.00    +0.000 HD
ENDROOT
TORSDOF 0
ENDMDL
MODEL 4
REMARK VINA RESULT:      -6.5      1.443      4.012
REMARK  Name = 
REMARK  0 active torsions:
REMARK  status: ('A' for Active; 'I' for Inactive)
REMARK                            x       y       z     vdW  Elec       q    Type
REMARK                         _______ _______ _______ _____ _____    ______ ____
ROOT
ATOM      1  C   UNL     1       2.060   7.381  20.013  0.00  0.00    +0.000 A 
ATOM      2  C   UNL     1       1.517   6.186  20.504  0.00  0.00    +0.000 A 
ATOM      3  C   UNL     1       1.790   4.931  19.910  0.00  0.00    +0.000 A 
ATOM      4  C   UNL     1       2.603   4.909  18.783  0.00  0.00    +0.000 A 
ATOM      5  C   UNL     1       3.160   6.124  18.328  0.00  0.00    +0.000 A 
ATOM      6  C   UNL     1       2.907   7.357  18.912  0.00  0.00    +0.000 A 
ATOM      7  C   UNL     1       4.096   5.869  17.188  0.00  0.00    +0.000 C 
ATOM      8  C   UNL     1       5.567   5.874  17.628  0.00  0.00    +0.000 C 
ATOM      9  C   UNL     1       6.203   4.806  16.773  0.00  0.00    +0.000 C 
ATOM     10  C   UNL     1       5.150   3.712  16.674  0.00  0.00    +0.000 C 
ATOM     11  C   UNL     1       3.782   4.393  16.855  0.00  0.00    +0.000 C 
ATOM     12  N   UNL     1       2.969   3.851  17.975  0.00  0.00    +0.000 N 
ATOM     13  C   UNL     1       2.912   2.414  18.206  0.00  0.00    +0.000 C 
ATOM     14  C   UNL     1       2.090   1.818  19.354  0.00  0.00    +0.000 C 
ATOM     15  N   UNL     1       1.904   2.528  20.609  0.00  0.00    +0.000 NA
ATOM     16  C   UNL     1       1.097   3.719  20.465  0.00  0.00    +0.000 C 
ATOM     17  H   UNL     1       2.802   2.776  21.024  0.00  0.00    +0.000 HD
ENDROOT
TORSDOF 0
ENDMDL
MODEL 5
REMARK VINA RESULT:      -6.4      1.437      4.248
REMARK  Name = 
REMARK  0 active torsions:
REMARK  status: ('A' for Active; 'I' for Inactive)
REMARK                            x       y       z     vdW  Elec       q    Type
REMARK                         _______ _______ _______ _____ _____    ______ ____
ROOT
ATOM      1  C   UNL     1       5.178   4.539  15.843  0.00  0.00    +0.000 A 
ATOM      2  C   UNL     1       4.454   3.418  16.270  0.00  0.00    +0.000 A 
ATOM      3  C   UNL     1       3.563   3.467  17.369  0.00  0.00    +0.000 A 
ATOM      4  C   UNL     1       3.441   4.671  18.053  0.00  0.00    +0.000 A 
ATOM      5  C   UNL     1       4.159   5.792  17.582  0.00  0.00    +0.000 A 
ATOM      6  C   UNL     1       5.025   5.755  16.497  0.00  0.00    +0.000 A 
ATOM      7  C   UNL     1       3.796   7.008  18.373  0.00  0.00    +0.000 C 
ATOM      8  C   UNL     1       2.788   7.904  17.639  0.00  0.00    +0.000 C 
ATOM      9  C   UNL     1       1.908   8.438  18.742  0.00  0.00    +0.000 C 
ATOM     10  C   UNL     1       1.753   7.273  19.710  0.00  0.00    +0.000 C 
ATOM     11  C   UNL     1       3.002   6.389  19.546  0.00  0.00    +0.000 C 
ATOM     12  N   UNL     1       2.711   4.976  19.184  0.00  0.00    +0.000 N 
ATOM     13  C   UNL     1       1.608   4.272  19.824  0.00  0.00    +0.000 C 
ATOM     14  C   UNL     1       1.274   2.818  19.474  0.00  0.00    +0.000 C 
ATOM     15  N   UNL     1       1.493   2.285  18.138  0.00  0.00    +0.000 NA
ATOM     16  C   UNL     1       2.894   2.191  17.795  0.00  0.00    +0.000 C 
ATOM     17  H   UNL     1       1.010   2.847  17.438  0.00  0.00    +0.000 HD
ENDROOT
TORSDOF 0
ENDMDL
MODEL 6
REMARK VINA RESULT:      -6.3      3.060      5.409
REMARK  Name = 
REMARK  0 active torsions:
REMARK  status: ('A' for Active; 'I' for Inactive)
REMARK                            x       y       z     vdW  Elec       q    Type
REMARK                         _______ _______ _______ _____ _____    ______ ____
ROOT
ATOM      1  C   UNL     1       7.772   6.512  18.672  0.00  0.00    +0.000 A 
ATOM      2  C   UNL     1       6.960   5.646  19.416  0.00  0.00    +0.000 A 
ATOM      3  C   UNL     1       5.952   4.854  18.817  0.00  0.00    +0.000 A 
ATOM      4  C   UNL     1       5.758   4.978  17.446  0.00  0.00    +0.000 A 
ATOM      5  C   UNL     1       6.611   5.835  16.717  0.00  0.00    +0.000 A 
ATOM      6  C   UNL     1       7.610   6.606  17.296  0.00  0.00    +0.000 A 
ATOM      7  C   UNL     1       6.320   5.732  15.253  0.00  0.00    +0.000 C 
ATOM      8  C   UNL     1       7.328   4.835  14.520  0.00  0.00    +0.000 C 
ATOM      9  C   UNL     1       6.493   4.133  13.476  0.00  0.00    +0.000 C 
ATOM     10  C   UNL     1       5.165   3.858  14.165  0.00  0.00    +0.000 C 
ATOM     11  C   UNL     1       4.999   4.931  15.256  0.00  0.00    +0.000 C 
ATOM     12  N   UNL     1       4.814   4.388  16.628  0.00  0.00    +0.000 N 
ATOM     13  C   UNL     1       3.955   3.233  16.846  0.00  0.00    +0.000 C 
ATOM     14  C   UNL     1       3.745   2.641  18.244  0.00  0.00    +0.000 C 
ATOM     15  N   UNL     1       4.792   2.677  19.253  0.00  0.00    +0.000 NA
ATOM     16  C   UNL     1       5.083   4.017  19.712  0.00  0.00    +0.000 C 
ATOM     17  H   UNL     1       5.648   2.245  18.906  0.00  0.00    +0.000 HD
ENDROOT
TORSDOF 0
ENDMDL
MODEL 7
REMARK VINA RESULT:      -6.1      1.472      3.611
REMARK  Name = 
REMARK  0 active torsions:
REMARK  status: ('A' for Active; 'I' for Inactive)
REMARK                            x       y       z     vdW  Elec       q    Type
REMARK                         _______ _______ _______ _____ _____    ______ ____
ROOT
ATOM      1  C   UNL     1       2.918   1.758  18.204  0.00  0.00    +0.000 A 
ATOM      2  C   UNL     1       4.038   2.196  17.485  0.00  0.00    +0.000 A 
ATOM      3  C   UNL     1       4.311   3.568  17.271  0.00  0.00    +0.000 A 
ATOM      4  C   UNL     1       3.407   4.496  17.774  0.00  0.00    +0.000 A 
ATOM      5  C   UNL     1       2.303   4.028  18.520  0.00  0.00    +0.000 A 
ATOM      6  C   UNL     1       2.035   2.684  18.745  0.00  0.00    +0.000 A 
ATOM      7  C   UNL     1       1.527   5.181  19.073  0.00  0.00    +0.000 C 
ATOM      8  C   UNL     1       1.847   5.445  20.552  0.00  0.00    +0.000 C 
ATOM      9  C   UNL     1       1.791   6.949  20.670  0.00  0.00    +0.000 C 
ATOM     10  C   UNL     1       2.389   7.461  19.368  0.00  0.00    +0.000 C 
ATOM     11  C   UNL     1       2.151   6.370  18.309  0.00  0.00    +0.000 C 
ATOM     12  N   UNL     1       3.389   5.871  17.652  0.00  0.00    +0.000 N 
ATOM     13  C   UNL     1       4.436   6.806  17.266  0.00  0.00    +0.000 C 
ATOM     14  C   UNL     1       5.728   6.329  16.593  0.00  0.00    +0.000 C 
ATOM     15  N   UNL     1       6.310   5.030  16.890  0.00  0.00    +0.000 NA
ATOM     16  C   UNL     1       5.495   3.931  16.421  0.00  0.00    +0.000 C 
ATOM     17  H   UNL     1       6.475   4.925  17.891  0.00  0.00    +0.000 HD
ENDROOT
TORSDOF 0
ENDMDL
MODEL 8
REMARK VINA RESULT:      -6.1      1.649      3.647
REMARK  Name = 
REMARK  0 active torsions:
REMARK  status: ('A' for Active; 'I' for Inactive)
REMARK                            x       y       z     vdW  Elec       q    Type
REMARK                         _______ _______ _______ _____ _____    ______ ____
ROOT
ATOM      1  C   UNL     1       4.867   6.411  16.422  0.00  0.00    +0.000 A 
ATOM      2  C   UNL     1       4.194   7.163  17.392  0.00  0.00    +0.000 A 
ATOM      3  C   UNL     1       3.233   6.592  18.261  0.00  0.00    +0.000 A 
ATOM      4  C   UNL     1       2.941   5.241  18.106  0.00  0.00    +0.000 A 
ATOM      5  C   UNL     1       3.657   4.501  17.141  0.00  0.00    +0.000 A 
ATOM      6  C   UNL     1       4.610   5.052  16.295  0.00  0.00    +0.000 A 
ATOM      7  C   UNL     1       3.286   3.054  17.220  0.00  0.00    +0.000 C 
ATOM      8  C   UNL     1       4.329   2.224  17.981  0.00  0.00    +0.000 C 
ATOM      9  C   UNL     1       3.504   1.202  18.726  0.00  0.00    +0.000 C 
ATOM     10  C   UNL     1       2.255   1.957  19.160  0.00  0.00    +0.000 C 
ATOM     11  C   UNL     1       2.053   3.101  18.150  0.00  0.00    +0.000 C 
ATOM     12  N   UNL     1       2.010   4.456  18.758  0.00  0.00    +0.000 N 
ATOM     13  C   UNL     1       1.286   4.675  20.002  0.00  0.00    +0.000 C 
ATOM     14  C   UNL     1       1.225   6.057  20.663  0.00  0.00    +0.000 C 
ATOM     15  N   UNL     1       2.324   7.003  20.559  0.00  0.00    +0.000 NA
ATOM     16  C   UNL     1       2.510   7.500  19.214  0.00  0.00    +0.000 C 
ATOM     17  H   UNL     1       3.195   6.587  20.888  0.00  0.00    +0.000 HD
ENDROOT
TORSDOF 0
ENDMDL
MODEL 9
REMARK VINA RESULT:      -5.9      4.747      7.660
REMARK  Name = 
REMARK  0 active torsions:
REMARK  status: ('A' for Active; 'I' for Inactive)
REMARK                            x       y       z     vdW  Elec       q    Type
REMARK                         _______ _______ _______ _____ _____    ______ ____
ROOT
ATOM      1  C   UNL     1       1.843   8.345  18.872  0.00  0.00    +0.000 A 
ATOM      2  C   UNL     1       1.711   8.337  20.267  0.00  0.00    +0.000 A 
ATOM      3  C   UNL     1       0.842   9.222  20.950  0.00  0.00    +0.000 A 
ATOM      4  C   UNL     1       0.127  10.143  20.192  0.00  0.00    +0.000 A 
ATOM      5  C   UNL     1       0.256  10.108  18.787  0.00  0.00    +0.000 A 
ATOM      6  C   UNL     1       1.097   9.235  18.109  0.00  0.00    +0.000 A 
ATOM      7  C   UNL     1      -0.682  11.088  18.157  0.00  0.00    +0.000 C 
ATOM      8  C   UNL     1      -1.950  10.414  17.612  0.00  0.00    +0.000 C 
ATOM      9  C   UNL     1      -3.039  11.425  17.880  0.00  0.00    +0.000 C 
ATOM     10  C   UNL     1      -2.680  12.029  19.230  0.00  0.00    +0.000 C 
ATOM     11  C   UNL     1      -1.154  11.897  19.385  0.00  0.00    +0.000 C 
ATOM     12  N   UNL     1      -0.723  11.153  20.597  0.00  0.00    +0.000 N 
ATOM     13  C   UNL     1      -1.397  11.376  21.869  0.00  0.00    +0.000 C 
ATOM     14  C   UNL     1      -0.985  10.623  23.138  0.00  0.00    +0.000 C 
ATOM     15  N   UNL     1      -0.464   9.266  23.086  0.00  0.00    +0.000 NA
ATOM     16  C   UNL     1       0.832   9.186  22.451  0.00  0.00    +0.000 C 
ATOM     17  H   UNL     1      -1.115   8.644  22.606  0.00  0.00    +0.000 HD
ENDROOT
TORSDOF 0
ENDMDL
