MODEL 1
REMARK VINA RESULT:      -6.5      0.000      0.000
REMARK  Name = 
REMARK  9 active torsions:
REMARK  status: ('A' for Active; 'I' for Inactive)
REMARK    1  A    between atoms: C_1  and  C_2
REMARK    2  A    between atoms: C_2  and  C_3
REMARK    3  A    between atoms: N_6  and  S_7
REMARK    4  A    between atoms: S_7  and  C_8
REMARK    5  A    between atoms: C_15  and  C_17
REMARK    6  A    between atoms: C_17  and  N_18
REMARK    7  A    between atoms: C_17  and  C_19
REMARK    8  A    between atoms: C_19  and  C_20
REMARK    9  A    between atoms: C_19  and  C_21
REMARK                            x       y       z     vdW  Elec       q    Type
REMARK                         _______ _______ _______ _____ _____    ______ ____
ROOT
ATOM      1  C   UNL     1       2.489   6.108  18.753  0.00  0.00    +0.000 C 
ATOM      2  C   UNL     1       1.988   5.344  20.010  0.00  0.00    +0.000 C 
ATOM      3  O   UNL     1       0.916   5.492  20.561  0.00  0.00    +0.000 OA
ATOM      4  N   UNL     1       2.990   4.410  20.427  0.00  0.00    +0.000 N 
ATOM      5  C   UNL     1       4.227   4.711  19.716  0.00  0.00    +0.000 C 
ATOM      6  C   UNL     1       5.241   3.708  19.224  0.00  0.00    +0.000 C 
ATOM      7  C   UNL     1       5.909   4.503  18.079  0.00  0.00    +0.000 C 
ATOM      8  N   UNL     1       4.940   5.544  17.693  0.00  0.00    +0.000 N 
ATOM      9  C   UNL     1       5.072   6.401  16.611  0.00  0.00    +0.000 C 
ATOM     10  O   UNL     1       4.202   7.204  16.305  0.00  0.00    +0.000 OA
ATOM     11  C   UNL     1       3.702   5.251  18.382  0.00  0.00    +0.000 C 
ENDROOT
BRANCH   4  12
ATOM     12  S   UNL     1       2.640   2.857  20.935  0.00  0.00    +0.000 S 
ATOM     13  C   UNL     1       1.859   2.102  19.526  0.00  0.00    +0.000 C 
ATOM     14  O   UNL     1       3.887   2.191  21.215  0.00  0.00    +0.000 OA
ATOM     15  O   UNL     1       1.615   2.952  21.963  0.00  0.00    +0.000 OA
ENDBRANCH   4  12
BRANCH   1  17
ATOM     16  C   UNL     1       1.670   8.451  17.932  0.00  0.00    +0.000 C 
ATOM     17  C   UNL     1       2.558   7.625  18.838  0.00  0.00    +0.000 C 
ENDBRANCH   1  17
BRANCH   9  18
ATOM     18  C   UNL     1       6.340   6.211  15.715  0.00  0.00    +0.000 C 
BRANCH  18  19
ATOM     19  N   UNL     1       7.533   6.377  16.579  0.00  0.00    +0.000 NA
ATOM     20  H   UNL     1       7.241   6.840  17.442  0.00  0.00    +0.000 HD
ATOM     21  H   UNL     1       8.219   6.989  16.143  0.00  0.00    +0.000 HD
ENDBRANCH  18  19
BRANCH  18  22
ATOM     22  C   UNL     1       6.407   4.814  15.050  0.00  0.00    +0.000 C 
ATOM     23  C   UNL     1       5.044   4.374  14.506  0.00  0.00    +0.000 C 
ATOM     24  C   UNL     1       7.419   4.790  13.889  0.00  0.00    +0.000 C 
ENDBRANCH  18  22
ENDBRANCH   9  18
TORSDOF 5
ENDMDL
MODEL 2
REMARK VINA RESULT:      -6.5      2.671      5.856
REMARK  Name = 
REMARK  9 active torsions:
REMARK  status: ('A' for Active; 'I' for Inactive)
REMARK    1  A    between atoms: C_1  and  C_2
REMARK    2  A    between atoms: C_2  and  C_3
REMARK    3  A    between atoms: N_6  and  S_7
REMARK    4  A    between atoms: S_7  and  C_8
REMARK    5  A    between atoms: C_15  and  C_17
REMARK    6  A    between atoms: C_17  and  N_18
REMARK    7  A    between atoms: C_17  and  C_19
REMARK    8  A    between atoms: C_19  and  C_20
REMARK    9  A    between atoms: C_19  and  C_21
REMARK                            x       y       z     vdW  Elec       q    Type
REMARK                         _______ _______ _______ _____ _____    ______ ____
ROOT
ATOM      1  C   UNL     1       5.057   6.309  18.176  0.00  0.00    +0.000 C 
ATOM      2  C   UNL     1       5.838   6.566  16.858  0.00  0.00    +0.000 C 
ATOM      3  O   UNL     1       6.446   7.576  16.568  0.00  0.00    +0.000 OA
ATOM      4  N   UNL     1       5.748   5.408  16.021  0.00  0.00    +0.000 N 
ATOM      5  C   UNL     1       4.722   4.524  16.564  0.00  0.00    +0.000 C 
ATOM      6  C   UNL     1       4.750   3.015  16.559  0.00  0.00    +0.000 C 
ATOM      7  C   UNL     1       3.820   2.701  17.752  0.00  0.00    +0.000 C 
ATOM      8  N   UNL     1       3.809   3.916  18.587  0.00  0.00    +0.000 N 
ATOM      9  C   UNL     1       3.208   4.030  19.831  0.00  0.00    +0.000 C 
ATOM     10  O   UNL     1       3.288   5.049  20.503  0.00  0.00    +0.000 OA
ATOM     11  C   UNL     1       4.832   4.799  18.067  0.00  0.00    +0.000 C 
ENDROOT
BRANCH   4  12
ATOM     12  S   UNL     1       7.040   4.802  15.151  0.00  0.00    +0.000 S 
ATOM     13  C   UNL     1       6.291   3.729  13.946  0.00  0.00    +0.000 C 
ATOM     14  O   UNL     1       7.684   5.907  14.486  0.00  0.00    +0.000 OA
ATOM     15  O   UNL     1       7.803   3.940  16.042  0.00  0.00    +0.000 OA
ENDBRANCH   4  12
BRANCH   1  17
ATOM     16  C   UNL     1       2.648   7.223  17.734  0.00  0.00    +0.000 C 
ATOM     17  C   UNL     1       3.937   7.277  18.526  0.00  0.00    +0.000 C 
ENDBRANCH   1  17
BRANCH   9  18
ATOM     18  C   UNL     1       2.522   2.745  20.400  0.00  0.00    +0.000 C 
BRANCH  18  19
ATOM     19  N   UNL     1       2.799   2.693  21.856  0.00  0.00    +0.000 NA
ATOM     20  H   UNL     1       2.035   3.165  22.343  0.00  0.00    +0.000 HD
ATOM     21  H   UNL     1       3.647   3.204  22.086  0.00  0.00    +0.000 HD
ENDBRANCH  18  19
BRANCH  18  22
ATOM     22  C   UNL     1       0.988   2.734  20.192  0.00  0.00    +0.000 C 
ATOM     23  C   UNL     1       0.393   4.144  20.257  0.00  0.00    +0.000 C 
ATOM     24  C   UNL     1       0.606   2.112  18.836  0.00  0.00    +0.000 C 
ENDBRANCH  18  22
ENDBRANCH   9  18
TORSDOF 5
ENDMDL
MODEL 3
REMARK VINA RESULT:      -6.2      4.524      7.008
REMARK  Name = 
REMARK  9 active torsions:
REMARK  status: ('A' for Active; 'I' for Inactive)
REMARK    1  A    between atoms: C_1  and  C_2
REMARK    2  A    between atoms: C_2  and  C_3
REMARK    3  A    between atoms: N_6  and  S_7
REMARK    4  A    between atoms: S_7  and  C_8
REMARK    5  A    between atoms: C_15  and  C_17
REMARK    6  A    between atoms: C_17  and  N_18
REMARK    7  A    between atoms: C_17  and  C_19
REMARK    8  A    between atoms: C_19  and  C_20
REMARK    9  A    between atoms: C_19  and  C_21
REMARK                            x       y       z     vdW  Elec       q    Type
REMARK                         _______ _______ _______ _____ _____    ______ ____
ROOT
ATOM      1  C   UNL     1       1.001   9.716  21.335  0.00  0.00    +0.000 C 
ATOM      2  C   UNL     1       0.751  11.218  21.027  0.00  0.00    +0.000 C 
ATOM      3  O   UNL     1       0.391  12.065  21.820  0.00  0.00    +0.000 OA
ATOM      4  N   UNL     1       1.027  11.470  19.645  0.00  0.00    +0.000 N 
ATOM      5  C   UNL     1       1.154  10.190  18.958  0.00  0.00    +0.000 C 
ATOM      6  C   UNL     1       2.099   9.874  17.824  0.00  0.00    +0.000 C 
ATOM      7  C   UNL     1       2.231   8.341  17.970  0.00  0.00    +0.000 C 
ATOM      8  N   UNL     1       1.852   8.034  19.361  0.00  0.00    +0.000 N 
ATOM      9  C   UNL     1       1.956   6.791  19.965  0.00  0.00    +0.000 C 
ATOM     10  O   UNL     1       1.684   6.614  21.144  0.00  0.00    +0.000 OA
ATOM     11  C   UNL     1       1.735   9.297  20.059  0.00  0.00    +0.000 C 
ENDROOT
BRANCH   4  12
ATOM     12  S   UNL     1       1.842  12.826  19.105  0.00  0.00    +0.000 S 
ATOM     13  C   UNL     1       0.551  13.998  18.747  0.00  0.00    +0.000 C 
ATOM     14  O   UNL     1       2.656  13.315  20.189  0.00  0.00    +0.000 OA
ATOM     15  O   UNL     1       2.451  12.492  17.826  0.00  0.00    +0.000 OA
ENDBRANCH   4  12
BRANCH   1  17
ATOM     16  C   UNL     1      -0.693   9.277  23.278  0.00  0.00    +0.000 C 
ATOM     17  C   UNL     1      -0.161   8.918  21.907  0.00  0.00    +0.000 C 
ENDBRANCH   1  17
BRANCH   9  18
ATOM     18  C   UNL     1       2.562   5.638  19.099  0.00  0.00    +0.000 C 
BRANCH  18  19
ATOM     19  N   UNL     1       3.984   5.482  19.486  0.00  0.00    +0.000 NA
ATOM     20  H   UNL     1       4.091   4.581  19.957  0.00  0.00    +0.000 HD
ATOM     21  H   UNL     1       4.261   6.193  20.158  0.00  0.00    +0.000 HD
ENDBRANCH  18  19
BRANCH  18  22
ATOM     22  C   UNL     1       1.845   4.282  19.309  0.00  0.00    +0.000 C 
ATOM     23  C   UNL     1       1.471   3.622  17.977  0.00  0.00    +0.000 C 
ATOM     24  C   UNL     1       2.722   3.297  20.104  0.00  0.00    +0.000 C 
ENDBRANCH  18  22
ENDBRANCH   9  18
TORSDOF 5
ENDMDL
MODEL 4
REMARK VINA RESULT:      -6.0      3.442      5.573
REMARK  Name = 
REMARK  9 active torsions:
REMARK  status: ('A' for Active; 'I' for Inactive)
REMARK    1  A    between atoms: C_1  and  C_2
REMARK    2  A    between atoms: C_2  and  C_3
REMARK    3  A    between atoms: N_6  and  S_7
REMARK    4  A    between atoms: S_7  and  C_8
REMARK    5  A    between atoms: C_15  and  C_17
REMARK    6  A    between atoms: C_17  and  N_18
REMARK    7  A    between atoms: C_17  and  C_19
REMARK    8  A    between atoms: C_19  and  C_20
REMARK    9  A    between atoms: C_19  and  C_21
REMARK                            x       y       z     vdW  Elec       q    Type
REMARK                         _______ _______ _______ _____ _____    ______ ____
ROOT
ATOM      1  C   UNL     1       2.380   7.498  17.572  0.00  0.00    +0.000 C 
ATOM      2  C   UNL     1       2.186   8.953  18.079  0.00  0.00    +0.000 C 
ATOM      3  O   UNL     1       2.280   9.965  17.414  0.00  0.00    +0.000 OA
ATOM      4  N   UNL     1       1.860   8.929  19.473  0.00  0.00    +0.000 N 
ATOM      5  C   UNL     1       2.114   7.586  19.984  0.00  0.00    +0.000 C 
ATOM      6  C   UNL     1       1.310   6.864  21.037  0.00  0.00    +0.000 C 
ATOM      7  C   UNL     1       1.627   5.392  20.690  0.00  0.00    +0.000 C 
ATOM      8  N   UNL     1       2.067   5.395  19.283  0.00  0.00    +0.000 N 
ATOM      9  C   UNL     1       2.323   4.266  18.520  0.00  0.00    +0.000 C 
ATOM     10  O   UNL     1       2.626   4.333  17.337  0.00  0.00    +0.000 OA
ATOM     11  C   UNL     1       1.809   6.719  18.759  0.00  0.00    +0.000 C 
ENDROOT
BRANCH   4  12
ATOM     12  S   UNL     1       0.692   9.908  20.158  0.00  0.00    +0.000 S 
ATOM     13  C   UNL     1       1.194  11.558  19.721  0.00  0.00    +0.000 C 
ATOM     14  O   UNL     1      -0.569   9.600  19.531  0.00  0.00    +0.000 OA
ATOM     15  O   UNL     1       0.831   9.812  21.604  0.00  0.00    +0.000 OA
ENDBRANCH   4  12
BRANCH   1  17
ATOM     16  C   UNL     1       4.905   6.873  17.836  0.00  0.00    +0.000 C 
ATOM     17  C   UNL     1       3.719   7.151  16.937  0.00  0.00    +0.000 C 
ENDBRANCH   1  17
BRANCH   9  18
ATOM     18  C   UNL     1       2.084   2.883  19.210  0.00  0.00    +0.000 C 
BRANCH  18  19
ATOM     19  N   UNL     1       1.193   2.088  18.332  0.00  0.00    +0.000 NA
ATOM     20  H   UNL     1       0.697   2.732  17.712  0.00  0.00    +0.000 HD
ATOM     21  H   UNL     1       0.481   1.605  18.873  0.00  0.00    +0.000 HD
ENDBRANCH  18  19
BRANCH  18  22
ATOM     22  C   UNL     1       3.391   2.084  19.435  0.00  0.00    +0.000 C 
ATOM     23  C   UNL     1       3.755   1.231  18.214  0.00  0.00    +0.000 C 
ATOM     24  C   UNL     1       4.578   3.015  19.742  0.00  0.00    +0.000 C 
ENDBRANCH  18  22
ENDBRANCH   9  18
TORSDOF 5
ENDMDL
MODEL 5
REMARK VINA RESULT:      -6.0      2.892      4.605
REMARK  Name = 
REMARK  9 active torsions:
REMARK  status: ('A' for Active; 'I' for Inactive)
REMARK    1  A    between atoms: C_1  and  C_2
REMARK    2  A    between atoms: C_2  and  C_3
REMARK    3  A    between atoms: N_6  and  S_7
REMARK    4  A    between atoms: S_7  and  C_8
REMARK    5  A    between atoms: C_15  and  C_17
REMARK    6  A    between atoms: C_17  and  N_18
REMARK    7  A    between atoms: C_17  and  C_19
REMARK    8  A    between atoms: C_19  and  C_20
REMARK    9  A    between atoms: C_19  and  C_21
REMARK                            x       y       z     vdW  Elec       q    Type
REMARK                         _______ _______ _______ _____ _____    ______ ____
ROOT
ATOM      1  C   UNL     1       2.218   6.531  20.651  0.00  0.00    +0.000 C 
ATOM      2  C   UNL     1       1.127   7.634  20.712  0.00  0.00    +0.000 C 
ATOM      3  O   UNL     1       0.368   7.845  21.637  0.00  0.00    +0.000 OA
ATOM      4  N   UNL     1       1.153   8.394  19.499  0.00  0.00    +0.000 N 
ATOM      5  C   UNL     1       1.980   7.686  18.528  0.00  0.00    +0.000 C 
ATOM      6  C   UNL     1       2.889   8.316  17.502  0.00  0.00    +0.000 C 
ATOM      7  C   UNL     1       3.898   7.170  17.261  0.00  0.00    +0.000 C 
ATOM      8  N   UNL     1       3.821   6.308  18.453  0.00  0.00    +0.000 N 
ATOM      9  C   UNL     1       4.655   5.233  18.721  0.00  0.00    +0.000 C 
ATOM     10  O   UNL     1       4.581   4.593  19.761  0.00  0.00    +0.000 OA
ATOM     11  C   UNL     1       3.013   7.004  19.431  0.00  0.00    +0.000 C 
ENDROOT
BRANCH   4  12
ATOM     12  S   UNL     1       1.000  10.058  19.456  0.00  0.00    +0.000 S 
ATOM     13  C   UNL     1      -0.706  10.329  19.027  0.00  0.00    +0.000 C 
ATOM     14  O   UNL     1       1.255  10.561  20.782  0.00  0.00    +0.000 OA
ATOM     15  O   UNL     1       1.782  10.541  18.327  0.00  0.00    +0.000 OA
ENDBRANCH   4  12
BRANCH   1  17
ATOM     16  C   UNL     1       1.137   4.375  19.642  0.00  0.00    +0.000 C 
ATOM     17  C   UNL     1       1.765   5.088  20.820  0.00  0.00    +0.000 C 
ENDBRANCH   1  17
BRANCH   9  18
ATOM     18  C   UNL     1       5.788   4.948  17.682  0.00  0.00    +0.000 C 
BRANCH  18  19
ATOM     19  N   UNL     1       6.937   4.363  18.416  0.00  0.00    +0.000 NA
ATOM     20  H   UNL     1       6.877   3.345  18.344  0.00  0.00    +0.000 HD
ATOM     21  H   UNL     1       6.888   4.584  19.407  0.00  0.00    +0.000 HD
ENDBRANCH  18  19
BRANCH  18  22
ATOM     22  C   UNL     1       5.360   3.956  16.573  0.00  0.00    +0.000 C 
ATOM     23  C   UNL     1       3.912   3.486  16.757  0.00  0.00    +0.000 C 
ATOM     24  C   UNL     1       5.488   4.583  15.173  0.00  0.00    +0.000 C 
ENDBRANCH  18  22
ENDBRANCH   9  18
TORSDOF 5
ENDMDL
MODEL 6
REMARK VINA RESULT:      -6.0      4.769      6.802
REMARK  Name = 
REMARK  9 active torsions:
REMARK  status: ('A' for Active; 'I' for Inactive)
REMARK    1  A    between atoms: C_1  and  C_2
REMARK    2  A    between atoms: C_2  and  C_3
REMARK    3  A    between atoms: N_6  and  S_7
REMARK    4  A    between atoms: S_7  and  C_8
REMARK    5  A    between atoms: C_15  and  C_17
REMARK    6  A    between atoms: C_17  and  N_18
REMARK    7  A    between atoms: C_17  and  C_19
REMARK    8  A    between atoms: C_19  and  C_20
REMARK    9  A    between atoms: C_19  and  C_21
REMARK                            x       y       z     vdW  Elec       q    Type
REMARK                         _______ _______ _______ _____ _____    ______ ____
ROOT
ATOM      1  C   UNL     1       0.934  11.139  18.828  0.00  0.00    +0.000 C 
ATOM      2  C   UNL     1       0.331  12.167  19.824  0.00  0.00    +0.000 C 
ATOM      3  O   UNL     1      -0.049  13.290  19.556  0.00  0.00    +0.000 OA
ATOM      4  N   UNL     1       0.273  11.584  21.130  0.00  0.00    +0.000 N 
ATOM      5  C   UNL     1       1.064  10.358  21.124  0.00  0.00    +0.000 C 
ATOM      6  C   UNL     1       0.753   9.091  21.882  0.00  0.00    +0.000 C 
ATOM      7  C   UNL     1       1.503   8.046  21.026  0.00  0.00    +0.000 C 
ATOM      8  N   UNL     1       1.671   8.659  19.696  0.00  0.00    +0.000 N 
ATOM      9  C   UNL     1       2.174   8.017  18.575  0.00  0.00    +0.000 C 
ATOM     10  O   UNL     1       2.230   8.562  17.482  0.00  0.00    +0.000 OA
ATOM     11  C   UNL     1       0.880   9.871  19.683  0.00  0.00    +0.000 C 
ENDROOT
BRANCH   4  12
ATOM     12  S   UNL     1      -1.031  11.767  22.159  0.00  0.00    +0.000 S 
ATOM     13  C   UNL     1      -0.841  13.409  22.817  0.00  0.00    +0.000 C 
ATOM     14  O   UNL     1      -2.234  11.696  21.367  0.00  0.00    +0.000 OA
ATOM     15  O   UNL     1      -0.838  10.857  23.278  0.00  0.00    +0.000 OA
ENDBRANCH   4  12
BRANCH   1  17
ATOM     16  C   UNL     1       2.732  12.951  18.263  0.00  0.00    +0.000 C 
ATOM     17  C   UNL     1       2.183  11.555  18.064  0.00  0.00    +0.000 C 
ENDBRANCH   1  17
BRANCH   9  18
ATOM     18  C   UNL     1       2.555   6.509  18.740  0.00  0.00    +0.000 C 
BRANCH  18  19
ATOM     19  N   UNL     1       1.751   5.732  17.766  0.00  0.00    +0.000 NA
ATOM     20  H   UNL     1       1.904   6.128  16.836  0.00  0.00    +0.000 HD
ATOM     21  H   UNL     1       0.757   5.822  17.957  0.00  0.00    +0.000 HD
ENDBRANCH  18  19
BRANCH  18  22
ATOM     22  C   UNL     1       4.053   6.230  18.473  0.00  0.00    +0.000 C 
ATOM     23  C   UNL     1       4.635   5.229  19.477  0.00  0.00    +0.000 C 
ATOM     24  C   UNL     1       4.280   5.675  17.054  0.00  0.00    +0.000 C 
ENDBRANCH  18  22
ENDBRANCH   9  18
TORSDOF 5
ENDMDL
MODEL 7
REMARK VINA RESULT:      -5.9      2.591      5.819
REMARK  Name = 
REMARK  9 active torsions:
REMARK  status: ('A' for Active; 'I' for Inactive)
REMARK    1  A    between atoms: C_1  and  C_2
REMARK    2  A    between atoms: C_2  and  C_3
REMARK    3  A    between atoms: N_6  and  S_7
REMARK    4  A    between atoms: S_7  and  C_8
REMARK    5  A    between atoms: C_15  and  C_17
REMARK    6  A    between atoms: C_17  and  N_18
REMARK    7  A    between atoms: C_17  and  C_19
REMARK    8  A    between atoms: C_19  and  C_20
REMARK    9  A    between atoms: C_19  and  C_21
REMARK                            x       y       z     vdW  Elec       q    Type
REMARK                         _______ _______ _______ _____ _____    ______ ____
ROOT
ATOM      1  C   UNL     1       4.357   6.604  18.286  0.00  0.00    +0.000 C 
ATOM      2  C   UNL     1       5.458   6.735  17.199  0.00  0.00    +0.000 C 
ATOM      3  O   UNL     1       6.225   7.668  17.061  0.00  0.00    +0.000 OA
ATOM      4  N   UNL     1       5.449   5.567  16.372  0.00  0.00    +0.000 N 
ATOM      5  C   UNL     1       4.232   4.812  16.652  0.00  0.00    +0.000 C 
ATOM      6  C   UNL     1       4.097   3.309  16.664  0.00  0.00    +0.000 C 
ATOM      7  C   UNL     1       2.875   3.133  17.594  0.00  0.00    +0.000 C 
ATOM      8  N   UNL     1       2.794   4.369  18.393  0.00  0.00    +0.000 N 
ATOM      9  C   UNL     1       1.924   4.586  19.450  0.00  0.00    +0.000 C 
ATOM     10  O   UNL     1       1.948   5.612  20.115  0.00  0.00    +0.000 OA
ATOM     11  C   UNL     1       4.002   5.123  18.135  0.00  0.00    +0.000 C 
ENDROOT
BRANCH   4  12
ATOM     12  S   UNL     1       6.841   4.802  15.851  0.00  0.00    +0.000 S 
ATOM     13  C   UNL     1       7.713   4.411  17.351  0.00  0.00    +0.000 C 
ATOM     14  O   UNL     1       6.454   3.585  15.182  0.00  0.00    +0.000 OA
ATOM     15  O   UNL     1       7.651   5.791  15.157  0.00  0.00    +0.000 OA
ENDBRANCH   4  12
BRANCH   1  17
ATOM     16  C   UNL     1       2.195   7.701  17.307  0.00  0.00    +0.000 C 
ATOM     17  C   UNL     1       3.297   7.695  18.344  0.00  0.00    +0.000 C 
ENDBRANCH   1  17
BRANCH   9  18
ATOM     18  C   UNL     1       0.985   3.398  19.842  0.00  0.00    +0.000 C 
BRANCH  18  19
ATOM     19  N   UNL     1       0.616   2.685  18.595  0.00  0.00    +0.000 NA
ATOM     20  H   UNL     1       1.205   1.853  18.516  0.00  0.00    +0.000 HD
ATOM     21  H   UNL     1       0.812   3.254  17.776  0.00  0.00    +0.000 HD
ENDBRANCH  18  19
BRANCH  18  22
ATOM     22  C   UNL     1       1.654   2.387  20.804  0.00  0.00    +0.000 C 
ATOM     23  C   UNL     1       3.179   2.545  20.828  0.00  0.00    +0.000 C 
ATOM     24  C   UNL     1       1.132   2.547  22.244  0.00  0.00    +0.000 C 
ENDBRANCH  18  22
ENDBRANCH   9  18
TORSDOF 5
ENDMDL
MODEL 8
REMARK VINA RESULT:      -5.9      1.345      1.526
REMARK  Name = 
REMARK  9 active torsions:
REMARK  status: ('A' for Active; 'I' for Inactive)
REMARK    1  A    between atoms: C_1  and  C_2
REMARK    2  A    between atoms: C_2  and  C_3
REMARK    3  A    between atoms: N_6  and  S_7
REMARK    4  A    between atoms: S_7  and  C_8
REMARK    5  A    between atoms: C_15  and  C_17
REMARK    6  A    between atoms: C_17  and  N_18
REMARK    7  A    between atoms: C_17  and  C_19
REMARK    8  A    between atoms: C_19  and  C_20
REMARK    9  A    between atoms: C_19  and  C_21
REMARK                            x       y       z     vdW  Elec       q    Type
REMARK                         _______ _______ _______ _____ _____    ______ ____
ROOT
ATOM      1  C   UNL     1       3.094   6.183  17.857  0.00  0.00    +0.000 C 
ATOM      2  C   UNL     1       2.604   5.571  19.198  0.00  0.00    +0.000 C 
ATOM      3  O   UNL     1       1.638   5.930  19.841  0.00  0.00    +0.000 OA
ATOM      4  N   UNL     1       3.465   4.489  19.568  0.00  0.00    +0.000 N 
ATOM      5  C   UNL     1       4.654   4.536  18.724  0.00  0.00    +0.000 C 
ATOM      6  C   UNL     1       5.420   3.348  18.193  0.00  0.00    +0.000 C 
ATOM      7  C   UNL     1       6.091   3.966  16.945  0.00  0.00    +0.000 C 
ATOM      8  N   UNL     1       5.283   5.149  16.597  0.00  0.00    +0.000 N 
ATOM      9  C   UNL     1       5.448   5.926  15.461  0.00  0.00    +0.000 C 
ATOM     10  O   UNL     1       4.703   6.859  15.195  0.00  0.00    +0.000 OA
ATOM     11  C   UNL     1       4.093   5.109  17.418  0.00  0.00    +0.000 C 
ENDROOT
BRANCH   4  12
ATOM     12  S   UNL     1       2.906   3.045  20.195  0.00  0.00    +0.000 S 
ATOM     13  C   UNL     1       2.063   3.515  21.690  0.00  0.00    +0.000 C 
ATOM     14  O   UNL     1       1.961   2.490  19.258  0.00  0.00    +0.000 OA
ATOM     15  O   UNL     1       4.065   2.269  20.610  0.00  0.00    +0.000 OA
ENDBRANCH   4  12
BRANCH   1  17
ATOM     16  C   UNL     1       2.313   8.676  17.747  0.00  0.00    +0.000 C 
ATOM     17  C   UNL     1       3.436   7.666  17.848  0.00  0.00    +0.000 C 
ENDBRANCH   1  17
BRANCH   9  18
ATOM     18  C   UNL     1       6.560   5.476  14.457  0.00  0.00    +0.000 C 
BRANCH  18  19
ATOM     19  N   UNL     1       7.835   5.385  15.209  0.00  0.00    +0.000 NA
ATOM     20  H   UNL     1       8.318   6.282  15.131  0.00  0.00    +0.000 HD
ATOM     21  H   UNL     1       8.453   4.689  14.798  0.00  0.00    +0.000 HD
ENDBRANCH  18  19
BRANCH  18  22
ATOM     22  C   UNL     1       6.273   4.099  13.810  0.00  0.00    +0.000 C 
ATOM     23  C   UNL     1       4.786   3.920  13.485  0.00  0.00    +0.000 C 
ATOM     24  C   UNL     1       7.076   3.907  12.511  0.00  0.00    +0.000 C 
ENDBRANCH  18  22
ENDBRANCH   9  18
TORSDOF 5
ENDMDL
MODEL 9
REMARK VINA RESULT:      -5.9      2.206      3.553
REMARK  Name = 
REMARK  9 active torsions:
REMARK  status: ('A' for Active; 'I' for Inactive)
REMARK    1  A    between atoms: C_1  and  C_2
REMARK    2  A    between atoms: C_2  and  C_3
REMARK    3  A    between atoms: N_6  and  S_7
REMARK    4  A    between atoms: S_7  and  C_8
REMARK    5  A    between atoms: C_15  and  C_17
REMARK    6  A    between atoms: C_17  and  N_18
REMARK    7  A    between atoms: C_17  and  C_19
REMARK    8  A    between atoms: C_19  and  C_20
REMARK    9  A    between atoms: C_19  and  C_21
REMARK                            x       y       z     vdW  Elec       q    Type
REMARK                         _______ _______ _______ _____ _____    ______ ____
ROOT
ATOM      1  C   UNL     1       3.219   4.861  19.615  0.00  0.00    +0.000 C 
ATOM      2  C   UNL     1       2.038   5.531  20.370  0.00  0.00    +0.000 C 
ATOM      3  O   UNL     1       1.469   5.091  21.349  0.00  0.00    +0.000 OA
ATOM      4  N   UNL     1       1.720   6.776  19.740  0.00  0.00    +0.000 N 
ATOM      5  C   UNL     1       2.406   6.834  18.454  0.00  0.00    +0.000 C 
ATOM      6  C   UNL     1       2.999   8.064  17.813  0.00  0.00    +0.000 C 
ATOM      7  C   UNL     1       4.066   7.429  16.893  0.00  0.00    +0.000 C 
ATOM      8  N   UNL     1       4.344   6.096  17.457  0.00  0.00    +0.000 N 
ATOM      9  C   UNL     1       5.339   5.233  17.024  0.00  0.00    +0.000 C 
ATOM     10  O   UNL     1       5.561   4.164  17.575  0.00  0.00    +0.000 OA
ATOM     11  C   UNL     1       3.679   6.029  18.740  0.00  0.00    +0.000 C 
ENDROOT
BRANCH   4  12
ATOM     12  S   UNL     1       1.361   8.169  20.592  0.00  0.00    +0.000 S 
ATOM     13  C   UNL     1      -0.300   7.910  21.174  0.00  0.00    +0.000 C 
ATOM     14  O   UNL     1       2.263   8.247  21.714  0.00  0.00    +0.000 OA
ATOM     15  O   UNL     1       1.289   9.263  19.635  0.00  0.00    +0.000 OA
ENDBRANCH   4  12
BRANCH   1  17
ATOM     16  C   UNL     1       1.938   3.270  17.982  0.00  0.00    +0.000 C 
ATOM     17  C   UNL     1       2.988   3.465  19.055  0.00  0.00    +0.000 C 
ENDBRANCH   1  17
BRANCH   9  18
ATOM     18  C   UNL     1       6.258   5.745  15.866  0.00  0.00    +0.000 C 
BRANCH  18  19
ATOM     19  N   UNL     1       7.507   6.260  16.476  0.00  0.00    +0.000 NA
ATOM     20  H   UNL     1       7.569   5.902  17.431  0.00  0.00    +0.000 HD
ATOM     21  H   UNL     1       7.487   7.274  16.550  0.00  0.00    +0.000 HD
ENDBRANCH  18  19
BRANCH  18  22
ATOM     22  C   UNL     1       6.629   4.636  14.852  0.00  0.00    +0.000 C 
ATOM     23  C   UNL     1       5.392   4.068  14.148  0.00  0.00    +0.000 C 
ATOM     24  C   UNL     1       7.598   5.157  13.775  0.00  0.00    +0.000 C 
ENDBRANCH  18  22
ENDBRANCH   9  18
TORSDOF 5
ENDMDL
