MODEL 1
REMARK VINA RESULT:      -8.8      0.000      0.000
REMARK  Name = 
REMARK  5 active torsions:
REMARK  status: ('A' for Active; 'I' for Inactive)
REMARK    1  A    between atoms: C_2  and  C_12
REMARK    2  A    between atoms: N_3  and  C_4
REMARK    3  A    between atoms: C_4  and  C_5
REMARK    4  A    between atoms: C_14  and  C_15
REMARK    5  A    between atoms: C_25  and  O_26
REMARK                            x       y       z     vdW  Elec       q    Type
REMARK                         _______ _______ _______ _____ _____    ______ ____
ROOT
ATOM      1  C   UNL     1       3.009   4.229  20.026  0.00  0.00    +0.000 A 
ATOM      2  N   UNL     1       3.640   4.603  18.841  0.00  0.00    +0.000 NA
ATOM      3  C   UNL     1       4.673   3.909  18.468  0.00  0.00    +0.000 A 
ATOM      4  N   UNL     1       5.156   2.852  19.194  0.00  0.00    +0.000 N 
ATOM      5  C   UNL     1       4.576   2.435  20.347  0.00  0.00    +0.000 A 
ATOM      6  O   UNL     1       4.993   1.483  21.002  0.00  0.00    +0.000 OA
ATOM      7  C   UNL     1       3.387   3.189  20.794  0.00  0.00    +0.000 A 
ATOM      8  H   UNL     1       5.990   2.352  18.931  0.00  0.00    +0.000 HD
ENDROOT
BRANCH   3   9
ATOM      9  C   UNL     1       5.419   4.234  17.222  0.00  0.00    +0.000 A 
ATOM     10  C   UNL     1       6.761   4.627  17.309  0.00  0.00    +0.000 A 
ATOM     11  C   UNL     1       7.481   4.920  16.148  0.00  0.00    +0.000 A 
ATOM     12  C   UNL     1       6.856   4.828  14.909  0.00  0.00    +0.000 A 
ATOM     13  F   UNL     1       7.546   5.114  13.796  0.00  0.00    +0.000 F 
ATOM     14  C   UNL     1       5.523   4.449  14.807  0.00  0.00    +0.000 A 
ATOM     15  C   UNL     1       4.800   4.154  15.964  0.00  0.00    +0.000 A 
ENDBRANCH   3   9
BRANCH   1  17
ATOM     16  O   UNL     1       0.672   4.570  20.585  0.00  0.00    +0.000 OA
ATOM     17  C   UNL     1       1.803   5.032  20.472  0.00  0.00    +0.000 C 
ATOM     18  N   UNL     1       2.095   6.345  20.776  0.00  0.00    +0.000 N 
ATOM     19  H   UNL     1       3.074   6.605  20.818  0.00  0.00    +0.000 HD
BRANCH  18  20
ATOM     20  C   UNL     1       1.071   7.228  21.282  0.00  0.00    +0.000 C 
BRANCH  20  21
ATOM     21  C   UNL     1       0.957   8.502  20.484  0.00  0.00    +0.000 A 
ATOM     22  C   UNL     1       0.128   9.554  20.908  0.00  0.00    +0.000 A 
ATOM     23  C   UNL     1      -0.022  10.704  20.125  0.00  0.00    +0.000 A 
ATOM     24  C   UNL     1       0.656  10.814  18.911  0.00  0.00    +0.000 A 
ATOM     25  C   UNL     1       1.474   9.775  18.490  0.00  0.00    +0.000 A 
ATOM     26  F   UNL     1       2.121   9.877  17.322  0.00  0.00    +0.000 F 
ATOM     27  C   UNL     1       1.628   8.625  19.259  0.00  0.00    +0.000 A 
ENDBRANCH  20  21
ENDBRANCH  18  20
ENDBRANCH   1  17
BRANCH   7  28
ATOM     28  O   UNL     1       2.765   2.752  21.945  0.00  0.00    +0.000 OA
ATOM     29  H   UNL     1       2.228   1.975  21.684  0.00  0.00    +0.000 HD
ENDBRANCH   7  28
TORSDOF 5
ENDMDL
MODEL 2
REMARK VINA RESULT:      -8.7      0.924      1.313
REMARK  Name = 
REMARK  5 active torsions:
REMARK  status: ('A' for Active; 'I' for Inactive)
REMARK    1  A    between atoms: C_2  and  C_12
REMARK    2  A    between atoms: N_3  and  C_4
REMARK    3  A    between atoms: C_4  and  C_5
REMARK    4  A    between atoms: C_14  and  C_15
REMARK    5  A    between atoms: C_25  and  O_26
REMARK                            x       y       z     vdW  Elec       q    Type
REMARK                         _______ _______ _______ _____ _____    ______ ____
ROOT
ATOM      1  C   UNL     1       3.060   4.356  19.937  0.00  0.00    +0.000 A 
ATOM      2  N   UNL     1       3.696   4.711  18.750  0.00  0.00    +0.000 NA
ATOM      3  C   UNL     1       4.685   3.967  18.354  0.00  0.00    +0.000 A 
ATOM      4  N   UNL     1       5.119   2.875  19.061  0.00  0.00    +0.000 N 
ATOM      5  C   UNL     1       4.530   2.475  20.215  0.00  0.00    +0.000 A 
ATOM      6  O   UNL     1       4.902   1.493  20.852  0.00  0.00    +0.000 OA
ATOM      7  C   UNL     1       3.389   3.286  20.687  0.00  0.00    +0.000 A 
ATOM      8  H   UNL     1       5.921   2.334  18.780  0.00  0.00    +0.000 HD
ENDROOT
BRANCH   3   9
ATOM      9  C   UNL     1       5.433   4.268  17.103  0.00  0.00    +0.000 A 
ATOM     10  C   UNL     1       6.772   4.675  17.186  0.00  0.00    +0.000 A 
ATOM     11  C   UNL     1       7.493   4.945  16.021  0.00  0.00    +0.000 A 
ATOM     12  C   UNL     1       6.873   4.818  14.782  0.00  0.00    +0.000 A 
ATOM     13  F   UNL     1       7.565   5.082  13.664  0.00  0.00    +0.000 F 
ATOM     14  C   UNL     1       5.544   4.425  14.684  0.00  0.00    +0.000 A 
ATOM     15  C   UNL     1       4.819   4.152  15.846  0.00  0.00    +0.000 A 
ENDBRANCH   3   9
BRANCH   1  17
ATOM     16  O   UNL     1       0.782   4.790  20.652  0.00  0.00    +0.000 OA
ATOM     17  C   UNL     1       1.906   5.218  20.409  0.00  0.00    +0.000 C 
ATOM     18  N   UNL     1       2.239   6.545  20.577  0.00  0.00    +0.000 N 
ATOM     19  H   UNL     1       3.222   6.788  20.517  0.00  0.00    +0.000 HD
BRANCH  18  20
ATOM     20  C   UNL     1       1.272   7.488  21.087  0.00  0.00    +0.000 C 
BRANCH  20  21
ATOM     21  C   UNL     1       1.166   8.728  20.236  0.00  0.00    +0.000 A 
ATOM     22  C   UNL     1       1.666   8.755  18.924  0.00  0.00    +0.000 A 
ATOM     23  C   UNL     1       1.621   9.931  18.166  0.00  0.00    +0.000 A 
ATOM     24  C   UNL     1       1.078  11.092  18.714  0.00  0.00    +0.000 A 
ATOM     25  C   UNL     1       0.586  11.069  20.013  0.00  0.00    +0.000 A 
ATOM     26  F   UNL     1       0.070  12.185  20.542  0.00  0.00    +0.000 F 
ATOM     27  C   UNL     1       0.628   9.906  20.776  0.00  0.00    +0.000 A 
ENDBRANCH  20  21
ENDBRANCH  18  20
ENDBRANCH   1  17
BRANCH   7  28
ATOM     28  O   UNL     1       2.758   2.868  21.840  0.00  0.00    +0.000 OA
ATOM     29  H   UNL     1       2.138   3.585  22.084  0.00  0.00    +0.000 HD
ENDBRANCH   7  28
TORSDOF 5
ENDMDL
MODEL 3
REMARK VINA RESULT:      -8.6      2.055      7.365
REMARK  Name = 
REMARK  5 active torsions:
REMARK  status: ('A' for Active; 'I' for Inactive)
REMARK    1  A    between atoms: C_2  and  C_12
REMARK    2  A    between atoms: N_3  and  C_4
REMARK    3  A    between atoms: C_4  and  C_5
REMARK    4  A    between atoms: C_14  and  C_15
REMARK    5  A    between atoms: C_25  and  O_26
REMARK                            x       y       z     vdW  Elec       q    Type
REMARK                         _______ _______ _______ _____ _____    ______ ____
ROOT
ATOM      1  C   UNL     1       4.862   4.869  18.689  0.00  0.00    +0.000 A 
ATOM      2  N   UNL     1       4.196   6.092  18.643  0.00  0.00    +0.000 NA
ATOM      3  C   UNL     1       3.049   6.172  19.248  0.00  0.00    +0.000 A 
ATOM      4  N   UNL     1       2.482   5.110  19.904  0.00  0.00    +0.000 N 
ATOM      5  C   UNL     1       3.090   3.901  19.993  0.00  0.00    +0.000 A 
ATOM      6  O   UNL     1       2.597   2.945  20.587  0.00  0.00    +0.000 OA
ATOM      7  C   UNL     1       4.405   3.777  19.333  0.00  0.00    +0.000 A 
ATOM      8  H   UNL     1       1.567   5.161  20.324  0.00  0.00    +0.000 HD
ENDROOT
BRANCH   3   9
ATOM      9  C   UNL     1       2.257   7.432  19.249  0.00  0.00    +0.000 A 
ATOM     10  C   UNL     1       1.673   7.874  20.445  0.00  0.00    +0.000 A 
ATOM     11  C   UNL     1       0.941   9.063  20.467  0.00  0.00    +0.000 A 
ATOM     12  C   UNL     1       0.788   9.800  19.297  0.00  0.00    +0.000 A 
ATOM     13  F   UNL     1       0.081  10.938  19.318  0.00  0.00    +0.000 F 
ATOM     14  C   UNL     1       1.352   9.370  18.102  0.00  0.00    +0.000 A 
ATOM     15  C   UNL     1       2.086   8.182  18.075  0.00  0.00    +0.000 A 
ENDBRANCH   3   9
BRANCH   1  17
ATOM     16  O   UNL     1       7.244   4.431  18.540  0.00  0.00    +0.000 OA
ATOM     17  C   UNL     1       6.201   4.763  17.986  0.00  0.00    +0.000 C 
ATOM     18  N   UNL     1       6.141   5.045  16.638  0.00  0.00    +0.000 N 
ATOM     19  H   UNL     1       5.221   5.146  16.225  0.00  0.00    +0.000 HD
BRANCH  18  20
ATOM     20  C   UNL     1       7.316   4.923  15.808  0.00  0.00    +0.000 C 
BRANCH  20  21
ATOM     21  C   UNL     1       6.984   4.587  14.377  0.00  0.00    +0.000 A 
ATOM     22  C   UNL     1       7.832   4.969  13.324  0.00  0.00    +0.000 A 
ATOM     23  C   UNL     1       7.481   4.710  11.994  0.00  0.00    +0.000 A 
ATOM     24  C   UNL     1       6.278   4.067  11.704  0.00  0.00    +0.000 A 
ATOM     25  C   UNL     1       5.437   3.690  12.743  0.00  0.00    +0.000 A 
ATOM     26  F   UNL     1       4.280   3.078  12.465  0.00  0.00    +0.000 F 
ATOM     27  C   UNL     1       5.775   3.946  14.069  0.00  0.00    +0.000 A 
ENDBRANCH  20  21
ENDBRANCH  18  20
ENDBRANCH   1  17
BRANCH   7  28
ATOM     28  O   UNL     1       5.051   2.563  19.448  0.00  0.00    +0.000 OA
ATOM     29  H   UNL     1       4.839   2.228  20.343  0.00  0.00    +0.000 HD
ENDBRANCH   7  28
TORSDOF 5
ENDMDL
MODEL 4
REMARK VINA RESULT:      -8.5      1.917      7.390
REMARK  Name = 
REMARK  5 active torsions:
REMARK  status: ('A' for Active; 'I' for Inactive)
REMARK    1  A    between atoms: C_2  and  C_12
REMARK    2  A    between atoms: N_3  and  C_4
REMARK    3  A    between atoms: C_4  and  C_5
REMARK    4  A    between atoms: C_14  and  C_15
REMARK    5  A    between atoms: C_25  and  O_26
REMARK                            x       y       z     vdW  Elec       q    Type
REMARK                         _______ _______ _______ _____ _____    ______ ____
ROOT
ATOM      1  C   UNL     1       4.807   4.822  18.874  0.00  0.00    +0.000 A 
ATOM      2  N   UNL     1       4.130   6.039  18.896  0.00  0.00    +0.000 NA
ATOM      3  C   UNL     1       3.008   6.089  19.548  0.00  0.00    +0.000 A 
ATOM      4  N   UNL     1       2.476   5.001  20.191  0.00  0.00    +0.000 N 
ATOM      5  C   UNL     1       3.097   3.795  20.215  0.00  0.00    +0.000 A 
ATOM      6  O   UNL     1       2.636   2.816  20.796  0.00  0.00    +0.000 OA
ATOM      7  C   UNL     1       4.385   3.705  19.499  0.00  0.00    +0.000 A 
ATOM      8  H   UNL     1       1.579   5.029  20.649  0.00  0.00    +0.000 HD
ENDROOT
BRANCH   3   9
ATOM      9  C   UNL     1       2.207   7.341  19.624  0.00  0.00    +0.000 A 
ATOM     10  C   UNL     1       2.122   8.169  18.496  0.00  0.00    +0.000 A 
ATOM     11  C   UNL     1       1.361   9.340  18.545  0.00  0.00    +0.000 A 
ATOM     12  C   UNL     1       0.698   9.682  19.719  0.00  0.00    +0.000 A 
ATOM     13  F   UNL     1      -0.028  10.808  19.766  0.00  0.00    +0.000 F 
ATOM     14  C   UNL     1       0.781   8.876  20.848  0.00  0.00    +0.000 A 
ATOM     15  C   UNL     1       1.539   7.704  20.804  0.00  0.00    +0.000 A 
ENDBRANCH   3   9
BRANCH   1  17
ATOM     16  O   UNL     1       7.170   4.344  18.594  0.00  0.00    +0.000 OA
ATOM     17  C   UNL     1       6.117   4.751  18.114  0.00  0.00    +0.000 C 
ATOM     18  N   UNL     1       6.017   5.162  16.802  0.00  0.00    +0.000 N 
ATOM     19  H   UNL     1       5.086   5.324  16.435  0.00  0.00    +0.000 HD
BRANCH  18  20
ATOM     20  C   UNL     1       7.159   5.093  15.920  0.00  0.00    +0.000 C 
BRANCH  20  21
ATOM     21  C   UNL     1       6.790   4.658  14.525  0.00  0.00    +0.000 A 
ATOM     22  C   UNL     1       5.809   3.676  14.305  0.00  0.00    +0.000 A 
ATOM     23  C   UNL     1       5.521   3.233  13.009  0.00  0.00    +0.000 A 
ATOM     24  C   UNL     1       6.212   3.765  11.921  0.00  0.00    +0.000 A 
ATOM     25  C   UNL     1       7.183   4.734  12.137  0.00  0.00    +0.000 A 
ATOM     26  F   UNL     1       7.851   5.242  11.093  0.00  0.00    +0.000 F 
ATOM     27  C   UNL     1       7.480   5.180  13.421  0.00  0.00    +0.000 A 
ENDBRANCH  20  21
ENDBRANCH  18  20
ENDBRANCH   1  17
BRANCH   7  28
ATOM     28  O   UNL     1       5.044   2.495  19.547  0.00  0.00    +0.000 OA
ATOM     29  H   UNL     1       5.998   2.702  19.462  0.00  0.00    +0.000 HD
ENDBRANCH   7  28
TORSDOF 5
ENDMDL
MODEL 5
REMARK VINA RESULT:      -8.1      1.782      7.344
REMARK  Name = 
REMARK  5 active torsions:
REMARK  status: ('A' for Active; 'I' for Inactive)
REMARK    1  A    between atoms: C_2  and  C_12
REMARK    2  A    between atoms: N_3  and  C_4
REMARK    3  A    between atoms: C_4  and  C_5
REMARK    4  A    between atoms: C_14  and  C_15
REMARK    5  A    between atoms: C_25  and  O_26
REMARK                            x       y       z     vdW  Elec       q    Type
REMARK                         _______ _______ _______ _____ _____    ______ ____
ROOT
ATOM      1  C   UNL     1       4.379   5.007  19.141  0.00  0.00    +0.000 A 
ATOM      2  N   UNL     1       3.821   6.283  19.109  0.00  0.00    +0.000 NA
ATOM      3  C   UNL     1       2.625   6.426  19.595  0.00  0.00    +0.000 A 
ATOM      4  N   UNL     1       1.908   5.381  20.117  0.00  0.00    +0.000 N 
ATOM      5  C   UNL     1       2.405   4.121  20.188  0.00  0.00    +0.000 A 
ATOM      6  O   UNL     1       1.777   3.178  20.662  0.00  0.00    +0.000 OA
ATOM      7  C   UNL     1       3.770   3.923  19.660  0.00  0.00    +0.000 A 
ATOM      8  H   UNL     1       0.960   5.485  20.443  0.00  0.00    +0.000 HD
ENDROOT
BRANCH   3   9
ATOM      9  C   UNL     1       1.940   7.747  19.599  0.00  0.00    +0.000 A 
ATOM     10  C   UNL     1       1.348   8.209  20.783  0.00  0.00    +0.000 A 
ATOM     11  C   UNL     1       0.716   9.455  20.809  0.00  0.00    +0.000 A 
ATOM     12  C   UNL     1       0.669  10.227  19.652  0.00  0.00    +0.000 A 
ATOM     13  F   UNL     1       0.058  11.419  19.677  0.00  0.00    +0.000 F 
ATOM     14  C   UNL     1       1.242   9.778  18.469  0.00  0.00    +0.000 A 
ATOM     15  C   UNL     1       1.877   8.535  18.439  0.00  0.00    +0.000 A 
ENDBRANCH   3   9
BRANCH   1  17
ATOM     16  O   UNL     1       6.768   4.594  19.255  0.00  0.00    +0.000 OA
ATOM     17  C   UNL     1       5.774   4.828  18.575  0.00  0.00    +0.000 C 
ATOM     18  N   UNL     1       5.828   4.919  17.200  0.00  0.00    +0.000 N 
ATOM     19  H   UNL     1       4.945   4.946  16.701  0.00  0.00    +0.000 HD
BRANCH  18  20
ATOM     20  C   UNL     1       7.070   4.704  16.496  0.00  0.00    +0.000 C 
BRANCH  20  21
ATOM     21  C   UNL     1       6.878   4.566  15.008  0.00  0.00    +0.000 A 
ATOM     22  C   UNL     1       6.025   3.587  14.472  0.00  0.00    +0.000 A 
ATOM     23  C   UNL     1       5.905   3.425  13.087  0.00  0.00    +0.000 A 
ATOM     24  C   UNL     1       6.639   4.238  12.224  0.00  0.00    +0.000 A 
ATOM     25  C   UNL     1       7.484   5.205  12.752  0.00  0.00    +0.000 A 
ATOM     26  F   UNL     1       8.194   5.983  11.924  0.00  0.00    +0.000 F 
ATOM     27  C   UNL     1       7.614   5.373  14.127  0.00  0.00    +0.000 A 
ENDBRANCH  20  21
ENDBRANCH  18  20
ENDBRANCH   1  17
BRANCH   7  28
ATOM     28  O   UNL     1       4.302   2.654  19.759  0.00  0.00    +0.000 OA
ATOM     29  H   UNL     1       5.081   2.640  19.167  0.00  0.00    +0.000 HD
ENDBRANCH   7  28
TORSDOF 5
ENDMDL
MODEL 6
REMARK VINA RESULT:      -8.1      2.836      8.082
REMARK  Name = 
REMARK  5 active torsions:
REMARK  status: ('A' for Active; 'I' for Inactive)
REMARK    1  A    between atoms: C_2  and  C_12
REMARK    2  A    between atoms: N_3  and  C_4
REMARK    3  A    between atoms: C_4  and  C_5
REMARK    4  A    between atoms: C_14  and  C_15
REMARK    5  A    between atoms: C_25  and  O_26
REMARK                            x       y       z     vdW  Elec       q    Type
REMARK                         _______ _______ _______ _____ _____    ______ ____
ROOT
ATOM      1  C   UNL     1       4.710   5.760  17.512  0.00  0.00    +0.000 A 
ATOM      2  N   UNL     1       3.910   6.872  17.769  0.00  0.00    +0.000 NA
ATOM      3  C   UNL     1       2.995   6.752  18.683  0.00  0.00    +0.000 A 
ATOM      4  N   UNL     1       2.791   5.589  19.379  0.00  0.00    +0.000 N 
ATOM      5  C   UNL     1       3.547   4.480  19.181  0.00  0.00    +0.000 A 
ATOM      6  O   UNL     1       3.381   3.435  19.805  0.00  0.00    +0.000 OA
ATOM      7  C   UNL     1       4.610   4.584  18.161  0.00  0.00    +0.000 A 
ATOM      8  H   UNL     1       2.044   5.483  20.047  0.00  0.00    +0.000 HD
ENDROOT
BRANCH   3   9
ATOM      9  C   UNL     1       2.085   7.880  19.025  0.00  0.00    +0.000 A 
ATOM     10  C   UNL     1       1.694   8.773  18.019  0.00  0.00    +0.000 A 
ATOM     11  C   UNL     1       0.827   9.827  18.319  0.00  0.00    +0.000 A 
ATOM     12  C   UNL     1       0.364   9.989  19.621  0.00  0.00    +0.000 A 
ATOM     13  F   UNL     1      -0.464  11.003  19.908  0.00  0.00    +0.000 F 
ATOM     14  C   UNL     1       0.751   9.117  20.631  0.00  0.00    +0.000 A 
ATOM     15  C   UNL     1       1.616   8.061  20.336  0.00  0.00    +0.000 A 
ENDBRANCH   3   9
BRANCH   1  17
ATOM     16  O   UNL     1       6.644   6.759  16.439  0.00  0.00    +0.000 OA
ATOM     17  C   UNL     1       5.781   5.887  16.446  0.00  0.00    +0.000 C 
ATOM     18  N   UNL     1       5.721   4.903  15.483  0.00  0.00    +0.000 N 
ATOM     19  H   UNL     1       5.088   4.128  15.649  0.00  0.00    +0.000 HD
BRANCH  18  20
ATOM     20  C   UNL     1       6.711   4.839  14.433  0.00  0.00    +0.000 C 
BRANCH  20  21
ATOM     21  C   UNL     1       6.259   4.008  13.259  0.00  0.00    +0.000 A 
ATOM     22  C   UNL     1       4.898   3.891  12.932  0.00  0.00    +0.000 A 
ATOM     23  C   UNL     1       4.486   3.065  11.880  0.00  0.00    +0.000 A 
ATOM     24  C   UNL     1       5.429   2.345  11.148  0.00  0.00    +0.000 A 
ATOM     25  C   UNL     1       6.775   2.458  11.472  0.00  0.00    +0.000 A 
ATOM     26  F   UNL     1       7.681   1.764  10.773  0.00  0.00    +0.000 F 
ATOM     27  C   UNL     1       7.196   3.275  12.517  0.00  0.00    +0.000 A 
ENDBRANCH  20  21
ENDBRANCH  18  20
ENDBRANCH   1  17
BRANCH   7  28
ATOM     28  O   UNL     1       5.410   3.476  17.976  0.00  0.00    +0.000 OA
ATOM     29  H   UNL     1       5.252   3.178  17.057  0.00  0.00    +0.000 HD
ENDBRANCH   7  28
TORSDOF 5
ENDMDL
MODEL 7
REMARK VINA RESULT:      -8.1      2.644      7.889
REMARK  Name = 
REMARK  5 active torsions:
REMARK  status: ('A' for Active; 'I' for Inactive)
REMARK    1  A    between atoms: C_2  and  C_12
REMARK    2  A    between atoms: N_3  and  C_4
REMARK    3  A    between atoms: C_4  and  C_5
REMARK    4  A    between atoms: C_14  and  C_15
REMARK    5  A    between atoms: C_25  and  O_26
REMARK                            x       y       z     vdW  Elec       q    Type
REMARK                         _______ _______ _______ _____ _____    ______ ____
ROOT
ATOM      1  C   UNL     1       4.477   4.736  17.452  0.00  0.00    +0.000 A 
ATOM      2  N   UNL     1       3.960   6.007  17.696  0.00  0.00    +0.000 NA
ATOM      3  C   UNL     1       2.898   6.089  18.439  0.00  0.00    +0.000 A 
ATOM      4  N   UNL     1       2.279   4.987  18.970  0.00  0.00    +0.000 N 
ATOM      5  C   UNL     1       2.744   3.728  18.778  0.00  0.00    +0.000 A 
ATOM      6  O   UNL     1       2.205   2.733  19.256  0.00  0.00    +0.000 OA
ATOM      7  C   UNL     1       3.962   3.596  17.952  0.00  0.00    +0.000 A 
ATOM      8  H   UNL     1       1.424   5.050  19.500  0.00  0.00    +0.000 HD
ENDROOT
BRANCH   3   9
ATOM      9  C   UNL     1       2.266   7.400  18.751  0.00  0.00    +0.000 A 
ATOM     10  C   UNL     1       1.830   7.658  20.058  0.00  0.00    +0.000 A 
ATOM     11  C   UNL     1       1.250   8.890  20.371  0.00  0.00    +0.000 A 
ATOM     12  C   UNL     1       1.099   9.852  19.378  0.00  0.00    +0.000 A 
ATOM     13  F   UNL     1       0.538  11.032  19.678  0.00  0.00    +0.000 F 
ATOM     14  C   UNL     1       1.517   9.607  18.075  0.00  0.00    +0.000 A 
ATOM     15  C   UNL     1       2.099   8.378  17.758  0.00  0.00    +0.000 A 
ENDBRANCH   3   9
BRANCH   1  17
ATOM     16  O   UNL     1       6.800   4.214  16.982  0.00  0.00    +0.000 OA
ATOM     17  C   UNL     1       5.716   4.628  16.585  0.00  0.00    +0.000 C 
ATOM     18  N   UNL     1       5.509   5.012  15.277  0.00  0.00    +0.000 N 
ATOM     19  H   UNL     1       4.552   5.182  14.988  0.00  0.00    +0.000 HD
BRANCH  18  20
ATOM     20  C   UNL     1       6.569   4.905  14.302  0.00  0.00    +0.000 C 
BRANCH  20  21
ATOM     21  C   UNL     1       6.202   4.019  13.140  0.00  0.00    +0.000 A 
ATOM     22  C   UNL     1       4.861   3.825  12.769  0.00  0.00    +0.000 A 
ATOM     23  C   UNL     1       4.528   2.948  11.730  0.00  0.00    +0.000 A 
ATOM     24  C   UNL     1       5.531   2.255  11.054  0.00  0.00    +0.000 A 
ATOM     25  C   UNL     1       6.857   2.444  11.421  0.00  0.00    +0.000 A 
ATOM     26  F   UNL     1       7.821   1.776  10.775  0.00  0.00    +0.000 F 
ATOM     27  C   UNL     1       7.200   3.311  12.454  0.00  0.00    +0.000 A 
ENDBRANCH  20  21
ENDBRANCH  18  20
ENDBRANCH   1  17
BRANCH   7  28
ATOM     28  O   UNL     1       4.467   2.324  17.780  0.00  0.00    +0.000 OA
ATOM     29  H   UNL     1       5.071   2.169  18.534  0.00  0.00    +0.000 HD
ENDBRANCH   7  28
TORSDOF 5
ENDMDL
MODEL 8
REMARK VINA RESULT:      -8.1      3.068      8.128
REMARK  Name = 
REMARK  5 active torsions:
REMARK  status: ('A' for Active; 'I' for Inactive)
REMARK    1  A    between atoms: C_2  and  C_12
REMARK    2  A    between atoms: N_3  and  C_4
REMARK    3  A    between atoms: C_4  and  C_5
REMARK    4  A    between atoms: C_14  and  C_15
REMARK    5  A    between atoms: C_25  and  O_26
REMARK                            x       y       z     vdW  Elec       q    Type
REMARK                         _______ _______ _______ _____ _____    ______ ____
ROOT
ATOM      1  C   UNL     1       4.588   5.520  17.148  0.00  0.00    +0.000 A 
ATOM      2  N   UNL     1       3.922   6.690  17.507  0.00  0.00    +0.000 NA
ATOM      3  C   UNL     1       2.978   6.593  18.394  0.00  0.00    +0.000 A 
ATOM      4  N   UNL     1       2.619   5.400  18.966  0.00  0.00    +0.000 N 
ATOM      5  C   UNL     1       3.241   4.233  18.665  0.00  0.00    +0.000 A 
ATOM      6  O   UNL     1       2.935   3.159  19.178  0.00  0.00    +0.000 OA
ATOM      7  C   UNL     1       4.332   4.306  17.673  0.00  0.00    +0.000 A 
ATOM      8  H   UNL     1       1.850   5.320  19.612  0.00  0.00    +0.000 HD
ENDROOT
BRANCH   3   9
ATOM      9  C   UNL     1       2.203   7.784  18.838  0.00  0.00    +0.000 A 
ATOM     10  C   UNL     1       1.915   8.797  17.914  0.00  0.00    +0.000 A 
ATOM     11  C   UNL     1       1.174   9.913  18.310  0.00  0.00    +0.000 A 
ATOM     12  C   UNL     1       0.734  10.017  19.626  0.00  0.00    +0.000 A 
ATOM     13  F   UNL     1       0.027  11.090  20.006  0.00  0.00    +0.000 F 
ATOM     14  C   UNL     1       1.020   9.025  20.556  0.00  0.00    +0.000 A 
ATOM     15  C   UNL     1       1.759   7.906  20.165  0.00  0.00    +0.000 A 
ENDBRANCH   3   9
BRANCH   1  17
ATOM     16  O   UNL     1       6.650   6.381  16.200  0.00  0.00    +0.000 OA
ATOM     17  C   UNL     1       5.691   5.621  16.112  0.00  0.00    +0.000 C 
ATOM     18  N   UNL     1       5.540   4.746  15.057  0.00  0.00    +0.000 N 
ATOM     19  H   UNL     1       4.817   4.040  15.139  0.00  0.00    +0.000 HD
BRANCH  18  20
ATOM     20  C   UNL     1       6.539   4.667  14.018  0.00  0.00    +0.000 C 
BRANCH  20  21
ATOM     21  C   UNL     1       6.160   3.707  12.920  0.00  0.00    +0.000 A 
ATOM     22  C   UNL     1       7.121   2.888  12.305  0.00  0.00    +0.000 A 
ATOM     23  C   UNL     1       6.770   2.049  11.242  0.00  0.00    +0.000 A 
ATOM     24  C   UNL     1       5.454   2.022  10.781  0.00  0.00    +0.000 A 
ATOM     25  C   UNL     1       4.503   2.832  11.385  0.00  0.00    +0.000 A 
ATOM     26  F   UNL     1       3.240   2.812  10.940  0.00  0.00    +0.000 F 
ATOM     27  C   UNL     1       4.842   3.673  12.442  0.00  0.00    +0.000 A 
ENDBRANCH  20  21
ENDBRANCH  18  20
ENDBRANCH   1  17
BRANCH   7  28
ATOM     28  O   UNL     1       4.997   3.133  17.386  0.00  0.00    +0.000 OA
ATOM     29  H   UNL     1       4.801   2.933  16.447  0.00  0.00    +0.000 HD
ENDBRANCH   7  28
TORSDOF 5
ENDMDL
MODEL 9
REMARK VINA RESULT:      -8.0      1.487      7.176
REMARK  Name = 
REMARK  5 active torsions:
REMARK  status: ('A' for Active; 'I' for Inactive)
REMARK    1  A    between atoms: C_2  and  C_12
REMARK    2  A    between atoms: N_3  and  C_4
REMARK    3  A    between atoms: C_4  and  C_5
REMARK    4  A    between atoms: C_14  and  C_15
REMARK    5  A    between atoms: C_25  and  O_26
REMARK                            x       y       z     vdW  Elec       q    Type
REMARK                         _______ _______ _______ _____ _____    ______ ____
ROOT
ATOM      1  C   UNL     1       3.885   4.983  19.442  0.00  0.00    +0.000 A 
ATOM      2  N   UNL     1       3.452   6.303  19.334  0.00  0.00    +0.000 NA
ATOM      3  C   UNL     1       2.296   6.597  19.849  0.00  0.00    +0.000 A 
ATOM      4  N   UNL     1       1.503   5.667  20.469  0.00  0.00    +0.000 N 
ATOM      5  C   UNL     1       1.878   4.372  20.615  0.00  0.00    +0.000 A 
ATOM      6  O   UNL     1       1.181   3.532  21.178  0.00  0.00    +0.000 OA
ATOM      7  C   UNL     1       3.196   4.003  20.059  0.00  0.00    +0.000 A 
ATOM      8  H   UNL     1       0.583   5.888  20.817  0.00  0.00    +0.000 HD
ENDROOT
BRANCH   3   9
ATOM      9  C   UNL     1       1.743   7.977  19.778  0.00  0.00    +0.000 A 
ATOM     10  C   UNL     1       1.826   8.689  18.573  0.00  0.00    +0.000 A 
ATOM     11  C   UNL     1       1.297   9.979  18.486  0.00  0.00    +0.000 A 
ATOM     12  C   UNL     1       0.698  10.555  19.601  0.00  0.00    +0.000 A 
ATOM     13  F   UNL     1       0.195  11.794  19.517  0.00  0.00    +0.000 F 
ATOM     14  C   UNL     1       0.617   9.866  20.805  0.00  0.00    +0.000 A 
ATOM     15  C   UNL     1       1.142   8.576  20.897  0.00  0.00    +0.000 A 
ENDBRANCH   3   9
BRANCH   1  17
ATOM     16  O   UNL     1       5.903   3.659  19.188  0.00  0.00    +0.000 OA
ATOM     17  C   UNL     1       5.232   4.627  18.844  0.00  0.00    +0.000 C 
ATOM     18  N   UNL     1       5.634   5.481  17.839  0.00  0.00    +0.000 N 
ATOM     19  H   UNL     1       4.954   6.152  17.501  0.00  0.00    +0.000 HD
BRANCH  18  20
ATOM     20  C   UNL     1       6.862   5.242  17.118  0.00  0.00    +0.000 C 
BRANCH  20  21
ATOM     21  C   UNL     1       6.625   4.844  15.684  0.00  0.00    +0.000 A 
ATOM     22  C   UNL     1       5.589   3.963  15.335  0.00  0.00    +0.000 A 
ATOM     23  C   UNL     1       5.420   3.548  14.009  0.00  0.00    +0.000 A 
ATOM     24  C   UNL     1       6.286   4.010  13.019  0.00  0.00    +0.000 A 
ATOM     25  C   UNL     1       7.313   4.879  13.362  0.00  0.00    +0.000 A 
ATOM     26  F   UNL     1       8.149   5.319  12.413  0.00  0.00    +0.000 F 
ATOM     27  C   UNL     1       7.492   5.296  14.678  0.00  0.00    +0.000 A 
ENDBRANCH  20  21
ENDBRANCH  18  20
ENDBRANCH   1  17
BRANCH   7  28
ATOM     28  O   UNL     1       3.605   2.698  20.233  0.00  0.00    +0.000 OA
ATOM     29  H   UNL     1       4.474   2.625  19.787  0.00  0.00    +0.000 HD
ENDBRANCH   7  28
TORSDOF 5
ENDMDL
