MODEL 1
REMARK VINA RESULT:      -9.2      0.000      0.000
REMARK  Name = 
REMARK  5 active torsions:
REMARK  status: ('A' for Active; 'I' for Inactive)
REMARK    1  A    between atoms: C_2  and  C_5
REMARK    2  A    between atoms: C_7  and  C_8
REMARK    3  A    between atoms: N_12  and  C_13
REMARK    4  A    between atoms: C_16  and  C_17
REMARK    5  A    between atoms: N_19  and  C_20
REMARK                            x       y       z     vdW  Elec       q    Type
REMARK                         _______ _______ _______ _____ _____    ______ ____
ROOT
ATOM      1  C   UNL     1       2.813   6.959  18.374  0.00  0.00    +0.000 A 
ATOM      2  C   UNL     1       2.400   8.000  17.539  0.00  0.00    +0.000 A 
ATOM      3  C   UNL     1       1.694   9.086  18.061  0.00  0.00    +0.000 A 
ATOM      4  C   UNL     1       1.361   9.133  19.416  0.00  0.00    +0.000 A 
ATOM      5  C   UNL     1       1.720   8.058  20.241  0.00  0.00    +0.000 A 
ATOM      6  C   UNL     1       2.429   6.970  19.723  0.00  0.00    +0.000 A 
ENDROOT
BRANCH   1  10
ATOM      7  C   UNL     1       5.417   4.959  17.154  0.00  0.00    +0.000 A 
ATOM      8  C   UNL     1       4.484   3.923  17.366  0.00  0.00    +0.000 A 
ATOM      9  C   UNL     1       3.319   4.541  17.777  0.00  0.00    +0.000 A 
ATOM     10  N   UNL     1       3.609   5.883  17.893  0.00  0.00    +0.000 N 
ATOM     11  N   UNL     1       4.856   6.153  17.416  0.00  0.00    +0.000 NA
BRANCH   7  13
ATOM     12  F   UNL     1       7.378   6.012  16.332  0.00  0.00    +0.000 F 
ATOM     13  C   UNL     1       6.832   4.807  16.657  0.00  0.00    +0.000 C 
ATOM     14  F   UNL     1       6.910   4.038  15.540  0.00  0.00    +0.000 F 
ATOM     15  F   UNL     1       7.655   4.253  17.586  0.00  0.00    +0.000 F 
ENDBRANCH   7  13
BRANCH   9  16
ATOM     16  C   UNL     1       1.970   3.971  17.935  0.00  0.00    +0.000 C 
ATOM     17  F   UNL     1       1.056   4.673  17.217  0.00  0.00    +0.000 F 
ATOM     18  F   UNL     1       1.887   2.694  17.495  0.00  0.00    +0.000 F 
ATOM     19  F   UNL     1       1.545   3.995  19.221  0.00  0.00    +0.000 F 
ENDBRANCH   9  16
ENDBRANCH   1  10
BRANCH   4  20
ATOM     20  C   UNL     1       0.635  10.274  19.927  0.00  0.00    +0.000 A 
ATOM     21  C   UNL     1      -0.476  10.233  20.732  0.00  0.00    +0.000 A 
ATOM     22  N   UNL     1      -0.836  11.544  20.904  0.00  0.00    +0.000 N 
ATOM     23  N   UNL     1       0.033  12.343  20.245  0.00  0.00    +0.000 NA
ATOM     24  N   UNL     1       0.929  11.576  19.638  0.00  0.00    +0.000 NA
BRANCH  22  25
ATOM     25  C   UNL     1      -1.935  12.048  21.626  0.00  0.00    +0.000 A 
ATOM     26  C   UNL     1      -2.079  11.822  22.997  0.00  0.00    +0.000 A 
ATOM     27  C   UNL     1      -3.199  12.320  23.656  0.00  0.00    +0.000 A 
ATOM     28  C   UNL     1      -4.133  13.027  22.918  0.00  0.00    +0.000 A 
ATOM     29  N   UNL     1      -4.018  13.268  21.595  0.00  0.00    +0.000 NA
ATOM     30  C   UNL     1      -2.921  12.774  20.970  0.00  0.00    +0.000 A 
ENDBRANCH  22  25
ENDBRANCH   4  20
TORSDOF 5
ENDMDL
MODEL 2
REMARK VINA RESULT:      -9.1      1.124      1.821
REMARK  Name = 
REMARK  5 active torsions:
REMARK  status: ('A' for Active; 'I' for Inactive)
REMARK    1  A    between atoms: C_2  and  C_5
REMARK    2  A    between atoms: C_7  and  C_8
REMARK    3  A    between atoms: N_12  and  C_13
REMARK    4  A    between atoms: C_16  and  C_17
REMARK    5  A    between atoms: N_19  and  C_20
REMARK                            x       y       z     vdW  Elec       q    Type
REMARK                         _______ _______ _______ _____ _____    ______ ____
ROOT
ATOM      1  C   UNL     1       2.830   7.038  18.486  0.00  0.00    +0.000 A 
ATOM      2  C   UNL     1       2.381   7.094  19.807  0.00  0.00    +0.000 A 
ATOM      3  C   UNL     1       1.543   8.129  20.226  0.00  0.00    +0.000 A 
ATOM      4  C   UNL     1       1.169   9.143  19.340  0.00  0.00    +0.000 A 
ATOM      5  C   UNL     1       1.670   9.120  18.032  0.00  0.00    +0.000 A 
ATOM      6  C   UNL     1       2.508   8.085  17.609  0.00  0.00    +0.000 A 
ENDROOT
BRANCH   1  10
ATOM      7  C   UNL     1       5.410   4.995  17.286  0.00  0.00    +0.000 A 
ATOM      8  C   UNL     1       4.449   3.978  17.465  0.00  0.00    +0.000 A 
ATOM      9  C   UNL     1       3.291   4.618  17.864  0.00  0.00    +0.000 A 
ATOM     10  N   UNL     1       3.611   5.951  18.004  0.00  0.00    +0.000 N 
ATOM     11  N   UNL     1       4.872   6.198  17.555  0.00  0.00    +0.000 NA
BRANCH   7  13
ATOM     12  F   UNL     1       6.901   3.966  15.753  0.00  0.00    +0.000 F 
ATOM     13  C   UNL     1       6.831   4.817  16.814  0.00  0.00    +0.000 C 
ATOM     14  F   UNL     1       7.635   4.295  17.777  0.00  0.00    +0.000 F 
ATOM     15  F   UNL     1       7.396   5.985  16.407  0.00  0.00    +0.000 F 
ENDBRANCH   7  13
BRANCH   9  16
ATOM     16  C   UNL     1       1.927   4.077  17.988  0.00  0.00    +0.000 C 
ATOM     17  F   UNL     1       1.876   2.781  17.587  0.00  0.00    +0.000 F 
ATOM     18  F   UNL     1       1.473   4.090  19.263  0.00  0.00    +0.000 F 
ATOM     19  F   UNL     1       1.033   4.749  17.223  0.00  0.00    +0.000 F 
ENDBRANCH   9  16
ENDBRANCH   1  10
BRANCH   4  20
ATOM     20  C   UNL     1       0.294  10.197  19.803  0.00  0.00    +0.000 A 
ATOM     21  C   UNL     1       0.388  10.859  21.001  0.00  0.00    +0.000 A 
ATOM     22  N   UNL     1      -0.679  11.719  21.015  0.00  0.00    +0.000 N 
ATOM     23  N   UNL     1      -1.377  11.593  19.864  0.00  0.00    +0.000 NA
ATOM     24  N   UNL     1      -0.795  10.660  19.122  0.00  0.00    +0.000 NA
BRANCH  22  25
ATOM     25  C   UNL     1      -1.057  12.607  22.040  0.00  0.00    +0.000 A 
ATOM     26  C   UNL     1      -2.245  12.437  22.757  0.00  0.00    +0.000 A 
ATOM     27  C   UNL     1      -2.584  13.360  23.742  0.00  0.00    +0.000 A 
ATOM     28  C   UNL     1      -1.722  14.418  23.973  0.00  0.00    +0.000 A 
ATOM     29  N   UNL     1      -0.564  14.604  23.304  0.00  0.00    +0.000 NA
ATOM     30  C   UNL     1      -0.252  13.695  22.347  0.00  0.00    +0.000 A 
ENDBRANCH  22  25
ENDBRANCH   4  20
TORSDOF 5
ENDMDL
MODEL 3
REMARK VINA RESULT:      -9.1      1.053      1.397
REMARK  Name = 
REMARK  5 active torsions:
REMARK  status: ('A' for Active; 'I' for Inactive)
REMARK    1  A    between atoms: C_2  and  C_5
REMARK    2  A    between atoms: C_7  and  C_8
REMARK    3  A    between atoms: N_12  and  C_13
REMARK    4  A    between atoms: C_16  and  C_17
REMARK    5  A    between atoms: N_19  and  C_20
REMARK                            x       y       z     vdW  Elec       q    Type
REMARK                         _______ _______ _______ _____ _____    ______ ____
ROOT
ATOM      1  C   UNL     1       2.970   6.446  18.812  0.00  0.00    +0.000 A 
ATOM      2  C   UNL     1       2.576   7.684  18.299  0.00  0.00    +0.000 A 
ATOM      3  C   UNL     1       1.855   8.580  19.091  0.00  0.00    +0.000 A 
ATOM      4  C   UNL     1       1.487   8.240  20.394  0.00  0.00    +0.000 A 
ATOM      5  C   UNL     1       1.828   6.973  20.887  0.00  0.00    +0.000 A 
ATOM      6  C   UNL     1       2.551   6.074  20.098  0.00  0.00    +0.000 A 
ENDROOT
BRANCH   1  10
ATOM      7  C   UNL     1       5.585   4.896  17.072  0.00  0.00    +0.000 A 
ATOM      8  C   UNL     1       4.693   3.804  17.057  0.00  0.00    +0.000 A 
ATOM      9  C   UNL     1       3.526   4.261  17.639  0.00  0.00    +0.000 A 
ATOM     10  N   UNL     1       3.780   5.548  18.064  0.00  0.00    +0.000 N 
ATOM     11  N   UNL     1       4.999   5.971  17.629  0.00  0.00    +0.000 NA
BRANCH   7  13
ATOM     12  F   UNL     1       7.455   6.197  16.405  0.00  0.00    +0.000 F 
ATOM     13  C   UNL     1       6.985   4.923  16.513  0.00  0.00    +0.000 C 
ATOM     14  F   UNL     1       7.056   4.382  15.268  0.00  0.00    +0.000 F 
ATOM     15  F   UNL     1       7.873   4.252  17.294  0.00  0.00    +0.000 F 
ENDBRANCH   7  13
BRANCH   9  16
ATOM     16  C   UNL     1       2.202   3.618  17.695  0.00  0.00    +0.000 C 
ATOM     17  F   UNL     1       1.862   3.310  18.973  0.00  0.00    +0.000 F 
ATOM     18  F   UNL     1       1.213   4.417  17.230  0.00  0.00    +0.000 F 
ATOM     19  F   UNL     1       2.161   2.457  16.998  0.00  0.00    +0.000 F 
ENDBRANCH   9  16
ENDBRANCH   1  10
BRANCH   4  20
ATOM     20  C   UNL     1       0.747   9.193  21.191  0.00  0.00    +0.000 A 
ATOM     21  C   UNL     1      -0.294   9.975  20.757  0.00  0.00    +0.000 A 
ATOM     22  N   UNL     1      -0.631  10.747  21.838  0.00  0.00    +0.000 N 
ATOM     23  N   UNL     1       0.163  10.431  22.886  0.00  0.00    +0.000 NA
ATOM     24  N   UNL     1       1.014   9.489  22.497  0.00  0.00    +0.000 NA
BRANCH  22  25
ATOM     25  C   UNL     1      -1.623  11.743  21.910  0.00  0.00    +0.000 A 
ATOM     26  C   UNL     1      -2.361  11.961  23.076  0.00  0.00    +0.000 A 
ATOM     27  C   UNL     1      -3.349  12.941  23.084  0.00  0.00    +0.000 A 
ATOM     28  C   UNL     1      -3.562  13.667  21.925  0.00  0.00    +0.000 A 
ATOM     29  N   UNL     1      -2.860  13.486  20.786  0.00  0.00    +0.000 NA
ATOM     30  C   UNL     1      -1.902  12.525  20.797  0.00  0.00    +0.000 A 
ENDBRANCH  22  25
ENDBRANCH   4  20
TORSDOF 5
ENDMDL
MODEL 4
REMARK VINA RESULT:      -9.1      1.364      1.868
REMARK  Name = 
REMARK  5 active torsions:
REMARK  status: ('A' for Active; 'I' for Inactive)
REMARK    1  A    between atoms: C_2  and  C_5
REMARK    2  A    between atoms: C_7  and  C_8
REMARK    3  A    between atoms: N_12  and  C_13
REMARK    4  A    between atoms: C_16  and  C_17
REMARK    5  A    between atoms: N_19  and  C_20
REMARK                            x       y       z     vdW  Elec       q    Type
REMARK                         _______ _______ _______ _____ _____    ______ ____
ROOT
ATOM      1  C   UNL     1       2.766   7.043  18.529  0.00  0.00    +0.000 A 
ATOM      2  C   UNL     1       2.314   8.055  17.678  0.00  0.00    +0.000 A 
ATOM      3  C   UNL     1       1.538   9.103  18.177  0.00  0.00    +0.000 A 
ATOM      4  C   UNL     1       1.174   9.139  19.525  0.00  0.00    +0.000 A 
ATOM      5  C   UNL     1       1.574   8.091  20.364  0.00  0.00    +0.000 A 
ATOM      6  C   UNL     1       2.352   7.041  19.869  0.00  0.00    +0.000 A 
ENDROOT
BRANCH   1  10
ATOM      7  C   UNL     1       5.518   5.165  17.450  0.00  0.00    +0.000 A 
ATOM      8  C   UNL     1       4.602   4.097  17.541  0.00  0.00    +0.000 A 
ATOM      9  C   UNL     1       3.389   4.667  17.879  0.00  0.00    +0.000 A 
ATOM     10  N   UNL     1       3.630   6.010  18.073  0.00  0.00    +0.000 N 
ATOM     11  N   UNL     1       4.903   6.332  17.713  0.00  0.00    +0.000 NA
BRANCH   7  13
ATOM     12  F   UNL     1       7.165   4.189  16.047  0.00  0.00    +0.000 F 
ATOM     13  C   UNL     1       6.973   5.071  17.067  0.00  0.00    +0.000 C 
ATOM     14  F   UNL     1       7.753   4.643  18.095  0.00  0.00    +0.000 F 
ATOM     15  F   UNL     1       7.480   6.260  16.646  0.00  0.00    +0.000 F 
ENDBRANCH   7  13
BRANCH   9  16
ATOM     16  C   UNL     1       2.049   4.056  17.901  0.00  0.00    +0.000 C 
ATOM     17  F   UNL     1       1.565   3.983  19.167  0.00  0.00    +0.000 F 
ATOM     18  F   UNL     1       1.139   4.767  17.195  0.00  0.00    +0.000 F 
ATOM     19  F   UNL     1       2.050   2.790  17.419  0.00  0.00    +0.000 F 
ENDBRANCH   9  16
ENDBRANCH   1  10
BRANCH   4  20
ATOM     20  C   UNL     1       0.376  10.242  20.011  0.00  0.00    +0.000 A 
ATOM     21  C   UNL     1       0.736  11.129  20.995  0.00  0.00    +0.000 A 
ATOM     22  N   UNL     1      -0.352  11.949  21.148  0.00  0.00    +0.000 N 
ATOM     23  N   UNL     1      -1.321  11.582  20.279  0.00  0.00    +0.000 NA
ATOM     24  N   UNL     1      -0.889  10.535  19.588  0.00  0.00    +0.000 NA
BRANCH  22  25
ATOM     25  C   UNL     1      -0.509  13.011  22.058  0.00  0.00    +0.000 A 
ATOM     26  C   UNL     1      -1.518  13.005  23.026  0.00  0.00    +0.000 A 
ATOM     27  C   UNL     1      -1.645  14.094  23.883  0.00  0.00    +0.000 A 
ATOM     28  C   UNL     1      -0.760  15.149  23.740  0.00  0.00    +0.000 A 
ATOM     29  N   UNL     1       0.229  15.180  22.820  0.00  0.00    +0.000 NA
ATOM     30  C   UNL     1       0.336  14.110  21.994  0.00  0.00    +0.000 A 
ENDBRANCH  22  25
ENDBRANCH   4  20
TORSDOF 5
ENDMDL
MODEL 5
REMARK VINA RESULT:      -9.0      0.358      1.394
REMARK  Name = 
REMARK  5 active torsions:
REMARK  status: ('A' for Active; 'I' for Inactive)
REMARK    1  A    between atoms: C_2  and  C_5
REMARK    2  A    between atoms: C_7  and  C_8
REMARK    3  A    between atoms: N_12  and  C_13
REMARK    4  A    between atoms: C_16  and  C_17
REMARK    5  A    between atoms: N_19  and  C_20
REMARK                            x       y       z     vdW  Elec       q    Type
REMARK                         _______ _______ _______ _____ _____    ______ ____
ROOT
ATOM      1  C   UNL     1       2.845   6.957  18.308  0.00  0.00    +0.000 A 
ATOM      2  C   UNL     1       2.478   7.023  19.654  0.00  0.00    +0.000 A 
ATOM      3  C   UNL     1       1.763   8.121  20.139  0.00  0.00    +0.000 A 
ATOM      4  C   UNL     1       1.435   9.184  19.295  0.00  0.00    +0.000 A 
ATOM      5  C   UNL     1       1.859   9.146  17.960  0.00  0.00    +0.000 A 
ATOM      6  C   UNL     1       2.572   8.049  17.471  0.00  0.00    +0.000 A 
ENDROOT
BRANCH   1  10
ATOM      7  C   UNL     1       5.135   4.733  16.866  0.00  0.00    +0.000 A 
ATOM      8  C   UNL     1       4.137   3.785  17.172  0.00  0.00    +0.000 A 
ATOM      9  C   UNL     1       3.076   4.505  17.685  0.00  0.00    +0.000 A 
ATOM     10  N   UNL     1       3.494   5.815  17.763  0.00  0.00    +0.000 N 
ATOM     11  N   UNL     1       4.710   5.973  17.170  0.00  0.00    +0.000 NA
BRANCH   7  13
ATOM     12  F   UNL     1       6.432   3.370  15.420  0.00  0.00    +0.000 F 
ATOM     13  C   UNL     1       6.479   4.456  16.241  0.00  0.00    +0.000 C 
ATOM     14  F   UNL     1       7.437   4.195  17.167  0.00  0.00    +0.000 F 
ATOM     15  F   UNL     1       6.925   5.492  15.481  0.00  0.00    +0.000 F 
ENDBRANCH   7  13
BRANCH   9  16
ATOM     16  C   UNL     1       1.702   4.057  17.973  0.00  0.00    +0.000 C 
ATOM     17  F   UNL     1       1.572   2.720  17.776  0.00  0.00    +0.000 F 
ATOM     18  F   UNL     1       1.337   4.281  19.257  0.00  0.00    +0.000 F 
ATOM     19  F   UNL     1       0.786   4.652  17.171  0.00  0.00    +0.000 F 
ENDBRANCH   9  16
ENDBRANCH   1  10
BRANCH   4  20
ATOM     20  C   UNL     1       0.689  10.303  19.825  0.00  0.00    +0.000 A 
ATOM     21  C   UNL     1      -0.407  10.227  20.649  0.00  0.00    +0.000 A 
ATOM     22  N   UNL     1      -0.799  11.526  20.837  0.00  0.00    +0.000 N 
ATOM     23  N   UNL     1       0.037  12.353  20.168  0.00  0.00    +0.000 NA
ATOM     24  N   UNL     1       0.943  11.614  19.540  0.00  0.00    +0.000 NA
BRANCH  22  25
ATOM     25  C   UNL     1      -1.898  11.996  21.580  0.00  0.00    +0.000 A 
ATOM     26  C   UNL     1      -2.011  11.760  22.953  0.00  0.00    +0.000 A 
ATOM     27  C   UNL     1      -3.132  12.224  23.634  0.00  0.00    +0.000 A 
ATOM     28  C   UNL     1      -4.099  12.907  22.917  0.00  0.00    +0.000 A 
ATOM     29  N   UNL     1      -4.015  13.158  21.593  0.00  0.00    +0.000 NA
ATOM     30  C   UNL     1      -2.915  12.697  20.946  0.00  0.00    +0.000 A 
ENDBRANCH  22  25
ENDBRANCH   4  20
TORSDOF 5
ENDMDL
MODEL 6
REMARK VINA RESULT:      -9.0      1.090      1.365
REMARK  Name = 
REMARK  5 active torsions:
REMARK  status: ('A' for Active; 'I' for Inactive)
REMARK    1  A    between atoms: C_2  and  C_5
REMARK    2  A    between atoms: C_7  and  C_8
REMARK    3  A    between atoms: N_12  and  C_13
REMARK    4  A    between atoms: C_16  and  C_17
REMARK    5  A    between atoms: N_19  and  C_20
REMARK                            x       y       z     vdW  Elec       q    Type
REMARK                         _______ _______ _______ _____ _____    ______ ____
ROOT
ATOM      1  C   UNL     1       2.751   7.055  18.406  0.00  0.00    +0.000 A 
ATOM      2  C   UNL     1       2.332   8.043  17.511  0.00  0.00    +0.000 A 
ATOM      3  C   UNL     1       1.594   9.138  17.962  0.00  0.00    +0.000 A 
ATOM      4  C   UNL     1       1.234   9.248  19.307  0.00  0.00    +0.000 A 
ATOM      5  C   UNL     1       1.600   8.225  20.193  0.00  0.00    +0.000 A 
ATOM      6  C   UNL     1       2.341   7.128  19.745  0.00  0.00    +0.000 A 
ENDROOT
BRANCH   1  10
ATOM      7  C   UNL     1       5.430   5.042  17.385  0.00  0.00    +0.000 A 
ATOM      8  C   UNL     1       4.489   4.006  17.563  0.00  0.00    +0.000 A 
ATOM      9  C   UNL     1       3.300   4.628  17.892  0.00  0.00    +0.000 A 
ATOM     10  N   UNL     1       3.578   5.973  17.996  0.00  0.00    +0.000 N 
ATOM     11  N   UNL     1       4.850   6.239  17.588  0.00  0.00    +0.000 NA
BRANCH   7  13
ATOM     12  F   UNL     1       7.426   6.085  16.638  0.00  0.00    +0.000 F 
ATOM     13  C   UNL     1       6.873   4.887  16.977  0.00  0.00    +0.000 C 
ATOM     14  F   UNL     1       7.021   4.078  15.896  0.00  0.00    +0.000 F 
ATOM     15  F   UNL     1       7.645   4.375  17.972  0.00  0.00    +0.000 F 
ENDBRANCH   7  13
BRANCH   9  16
ATOM     16  C   UNL     1       1.946   4.055  17.981  0.00  0.00    +0.000 C 
ATOM     17  F   UNL     1       1.935   2.760  17.572  0.00  0.00    +0.000 F 
ATOM     18  F   UNL     1       1.463   4.049  19.245  0.00  0.00    +0.000 F 
ATOM     19  F   UNL     1       1.054   4.709  17.199  0.00  0.00    +0.000 F 
ENDBRANCH   9  16
ENDBRANCH   1  10
BRANCH   4  20
ATOM     20  C   UNL     1       0.476  10.398  19.744  0.00  0.00    +0.000 A 
ATOM     21  C   UNL     1       0.303  10.807  21.043  0.00  0.00    +0.000 A 
ATOM     22  N   UNL     1      -0.527  11.895  20.963  0.00  0.00    +0.000 N 
ATOM     23  N   UNL     1      -0.826  12.143  19.668  0.00  0.00    +0.000 NA
ATOM     24  N   UNL     1      -0.225  11.228  18.918  0.00  0.00    +0.000 NA
BRANCH  22  25
ATOM     25  C   UNL     1      -1.039  12.668  22.023  0.00  0.00    +0.000 A 
ATOM     26  C   UNL     1      -2.271  12.377  22.615  0.00  0.00    +0.000 A 
ATOM     27  C   UNL     1      -2.743  13.191  23.641  0.00  0.00    +0.000 A 
ATOM     28  C   UNL     1      -1.964  14.264  24.037  0.00  0.00    +0.000 A 
ATOM     29  N   UNL     1      -0.767  14.566  23.490  0.00  0.00    +0.000 NA
ATOM     30  C   UNL     1      -0.325  13.762  22.491  0.00  0.00    +0.000 A 
ENDBRANCH  22  25
ENDBRANCH   4  20
TORSDOF 5
ENDMDL
MODEL 7
REMARK VINA RESULT:      -9.0      1.021      1.679
REMARK  Name = 
REMARK  5 active torsions:
REMARK  status: ('A' for Active; 'I' for Inactive)
REMARK    1  A    between atoms: C_2  and  C_5
REMARK    2  A    between atoms: C_7  and  C_8
REMARK    3  A    between atoms: N_12  and  C_13
REMARK    4  A    between atoms: C_16  and  C_17
REMARK    5  A    between atoms: N_19  and  C_20
REMARK                            x       y       z     vdW  Elec       q    Type
REMARK                         _______ _______ _______ _____ _____    ______ ____
ROOT
ATOM      1  C   UNL     1       2.937   6.497  18.832  0.00  0.00    +0.000 A 
ATOM      2  C   UNL     1       2.544   7.724  18.292  0.00  0.00    +0.000 A 
ATOM      3  C   UNL     1       1.816   8.634  19.061  0.00  0.00    +0.000 A 
ATOM      4  C   UNL     1       1.440   8.318  20.369  0.00  0.00    +0.000 A 
ATOM      5  C   UNL     1       1.780   7.062  20.888  0.00  0.00    +0.000 A 
ATOM      6  C   UNL     1       2.511   6.150  20.122  0.00  0.00    +0.000 A 
ENDROOT
BRANCH   1  10
ATOM      7  C   UNL     1       5.573   4.912  17.156  0.00  0.00    +0.000 A 
ATOM      8  C   UNL     1       4.673   3.827  17.133  0.00  0.00    +0.000 A 
ATOM      9  C   UNL     1       3.499   4.298  17.689  0.00  0.00    +0.000 A 
ATOM     10  N   UNL     1       3.754   5.586  18.107  0.00  0.00    +0.000 N 
ATOM     11  N   UNL     1       4.984   5.997  17.692  0.00  0.00    +0.000 NA
BRANCH   7  13
ATOM     12  F   UNL     1       7.061   4.315  15.406  0.00  0.00    +0.000 F 
ATOM     13  C   UNL     1       6.983   4.923  16.623  0.00  0.00    +0.000 C 
ATOM     14  F   UNL     1       7.849   4.264  17.436  0.00  0.00    +0.000 F 
ATOM     15  F   UNL     1       7.469   6.181  16.454  0.00  0.00    +0.000 F 
ENDBRANCH   7  13
BRANCH   9  16
ATOM     16  C   UNL     1       2.169   3.666  17.725  0.00  0.00    +0.000 C 
ATOM     17  F   UNL     1       2.156   2.514  17.006  0.00  0.00    +0.000 F 
ATOM     18  F   UNL     1       1.786   3.326  18.978  0.00  0.00    +0.000 F 
ATOM     19  F   UNL     1       1.205   4.457  17.197  0.00  0.00    +0.000 F 
ENDBRANCH   9  16
ENDBRANCH   1  10
BRANCH   4  20
ATOM     20  C   UNL     1       0.693   9.285  21.141  0.00  0.00    +0.000 A 
ATOM     21  C   UNL     1      -0.335  10.069  20.680  0.00  0.00    +0.000 A 
ATOM     22  N   UNL     1      -0.686  10.856  21.746  0.00  0.00    +0.000 N 
ATOM     23  N   UNL     1       0.087  10.546  22.811  0.00  0.00    +0.000 NA
ATOM     24  N   UNL     1       0.937   9.594  22.449  0.00  0.00    +0.000 NA
BRANCH  22  25
ATOM     25  C   UNL     1      -1.672  11.860  21.789  0.00  0.00    +0.000 A 
ATOM     26  C   UNL     1      -2.101  12.517  20.632  0.00  0.00    +0.000 A 
ATOM     27  C   UNL     1      -3.060  13.521  20.736  0.00  0.00    +0.000 A 
ATOM     28  C   UNL     1      -3.553  13.830  21.992  0.00  0.00    +0.000 A 
ATOM     29  N   UNL     1      -3.164  13.208  23.125  0.00  0.00    +0.000 NA
ATOM     30  C   UNL     1      -2.228  12.233  23.004  0.00  0.00    +0.000 A 
ENDBRANCH  22  25
ENDBRANCH   4  20
TORSDOF 5
ENDMDL
MODEL 8
REMARK VINA RESULT:      -9.0      0.567      1.141
REMARK  Name = 
REMARK  5 active torsions:
REMARK  status: ('A' for Active; 'I' for Inactive)
REMARK    1  A    between atoms: C_2  and  C_5
REMARK    2  A    between atoms: C_7  and  C_8
REMARK    3  A    between atoms: N_12  and  C_13
REMARK    4  A    between atoms: C_16  and  C_17
REMARK    5  A    between atoms: N_19  and  C_20
REMARK                            x       y       z     vdW  Elec       q    Type
REMARK                         _______ _______ _______ _____ _____    ______ ____
ROOT
ATOM      1  C   UNL     1       2.807   7.074  18.412  0.00  0.00    +0.000 A 
ATOM      2  C   UNL     1       2.428   8.100  17.543  0.00  0.00    +0.000 A 
ATOM      3  C   UNL     1       1.684   9.184  18.011  0.00  0.00    +0.000 A 
ATOM      4  C   UNL     1       1.279   9.245  19.346  0.00  0.00    +0.000 A 
ATOM      5  C   UNL     1       1.605   8.185  20.203  0.00  0.00    +0.000 A 
ATOM      6  C   UNL     1       2.351   7.099  19.739  0.00  0.00    +0.000 A 
ENDROOT
BRANCH   1  10
ATOM      7  C   UNL     1       5.496   5.084  17.373  0.00  0.00    +0.000 A 
ATOM      8  C   UNL     1       4.557   4.043  17.528  0.00  0.00    +0.000 A 
ATOM      9  C   UNL     1       3.364   4.657  17.861  0.00  0.00    +0.000 A 
ATOM     10  N   UNL     1       3.639   6.001  17.989  0.00  0.00    +0.000 N 
ATOM     11  N   UNL     1       4.913   6.276  17.593  0.00  0.00    +0.000 NA
BRANCH   7  13
ATOM     12  F   UNL     1       7.497   6.144  16.665  0.00  0.00    +0.000 F 
ATOM     13  C   UNL     1       6.941   4.938  16.971  0.00  0.00    +0.000 C 
ATOM     14  F   UNL     1       7.097   4.155  15.872  0.00  0.00    +0.000 F 
ATOM     15  F   UNL     1       7.707   4.403  17.959  0.00  0.00    +0.000 F 
ENDBRANCH   7  13
BRANCH   9  16
ATOM     16  C   UNL     1       2.011   4.080  17.932  0.00  0.00    +0.000 C 
ATOM     17  F   UNL     1       1.563   4.042  19.213  0.00  0.00    +0.000 F 
ATOM     18  F   UNL     1       1.097   4.801  17.240  0.00  0.00    +0.000 F 
ATOM     19  F   UNL     1       1.966   2.806  17.474  0.00  0.00    +0.000 F 
ENDBRANCH   9  16
ENDBRANCH   1  10
BRANCH   4  20
ATOM     20  C   UNL     1       0.516  10.385  19.802  0.00  0.00    +0.000 A 
ATOM     21  C   UNL     1      -0.483  10.367  20.743  0.00  0.00    +0.000 A 
ATOM     22  N   UNL     1      -0.942  11.657  20.798  0.00  0.00    +0.000 N 
ATOM     23  N   UNL     1      -0.235  12.425  19.938  0.00  0.00    +0.000 NA
ATOM     24  N   UNL     1       0.650  11.655  19.319  0.00  0.00    +0.000 NA
BRANCH  22  25
ATOM     25  C   UNL     1      -1.989  12.167  21.588  0.00  0.00    +0.000 A 
ATOM     26  C   UNL     1      -2.923  13.071  21.074  0.00  0.00    +0.000 A 
ATOM     27  C   UNL     1      -3.923  13.565  21.907  0.00  0.00    +0.000 A 
ATOM     28  C   UNL     1      -3.952  13.135  23.222  0.00  0.00    +0.000 A 
ATOM     29  N   UNL     1      -3.070  12.256  23.745  0.00  0.00    +0.000 NA
ATOM     30  C   UNL     1      -2.102  11.788  22.918  0.00  0.00    +0.000 A 
ENDBRANCH  22  25
ENDBRANCH   4  20
TORSDOF 5
ENDMDL
MODEL 9
REMARK VINA RESULT:      -9.0      1.040      1.610
REMARK  Name = 
REMARK  5 active torsions:
REMARK  status: ('A' for Active; 'I' for Inactive)
REMARK    1  A    between atoms: C_2  and  C_5
REMARK    2  A    between atoms: C_7  and  C_8
REMARK    3  A    between atoms: N_12  and  C_13
REMARK    4  A    between atoms: C_16  and  C_17
REMARK    5  A    between atoms: N_19  and  C_20
REMARK                            x       y       z     vdW  Elec       q    Type
REMARK                         _______ _______ _______ _____ _____    ______ ____
ROOT
ATOM      1  C   UNL     1       2.841   7.122  18.541  0.00  0.00    +0.000 A 
ATOM      2  C   UNL     1       2.364   7.165  19.853  0.00  0.00    +0.000 A 
ATOM      3  C   UNL     1       1.482   8.171  20.252  0.00  0.00    +0.000 A 
ATOM      4  C   UNL     1       1.090   9.169  19.356  0.00  0.00    +0.000 A 
ATOM      5  C   UNL     1       1.618   9.161  18.058  0.00  0.00    +0.000 A 
ATOM      6  C   UNL     1       2.500   8.154  17.655  0.00  0.00    +0.000 A 
ENDROOT
BRANCH   1  10
ATOM      7  C   UNL     1       5.520   5.161  17.425  0.00  0.00    +0.000 A 
ATOM      8  C   UNL     1       4.579   4.118  17.549  0.00  0.00    +0.000 A 
ATOM      9  C   UNL     1       3.389   4.723  17.907  0.00  0.00    +0.000 A 
ATOM     10  N   UNL     1       3.668   6.062  18.078  0.00  0.00    +0.000 N 
ATOM     11  N   UNL     1       4.941   6.347  17.687  0.00  0.00    +0.000 NA
BRANCH   7  13
ATOM     12  F   UNL     1       7.572   6.241  16.921  0.00  0.00    +0.000 F 
ATOM     13  C   UNL     1       6.964   5.026  17.011  0.00  0.00    +0.000 C 
ATOM     14  F   UNL     1       7.101   4.437  15.795  0.00  0.00    +0.000 F 
ATOM     15  F   UNL     1       7.694   4.297  17.896  0.00  0.00    +0.000 F 
ENDBRANCH   7  13
BRANCH   9  16
ATOM     16  C   UNL     1       2.035   4.147  17.965  0.00  0.00    +0.000 C 
ATOM     17  F   UNL     1       2.025   2.874  17.493  0.00  0.00    +0.000 F 
ATOM     18  F   UNL     1       1.549   4.080  19.227  0.00  0.00    +0.000 F 
ATOM     19  F   UNL     1       1.145   4.840  17.215  0.00  0.00    +0.000 F 
ENDBRANCH   9  16
ENDBRANCH   1  10
BRANCH   4  20
ATOM     20  C   UNL     1       0.170  10.193  19.798  0.00  0.00    +0.000 A 
ATOM     21  C   UNL     1       0.191  10.829  21.014  0.00  0.00    +0.000 A 
ATOM     22  N   UNL     1      -0.896  11.665  20.994  0.00  0.00    +0.000 N 
ATOM     23  N   UNL     1      -1.534  11.550  19.807  0.00  0.00    +0.000 NA
ATOM     24  N   UNL     1      -0.896  10.647  19.075  0.00  0.00    +0.000 NA
BRANCH  22  25
ATOM     25  C   UNL     1      -1.344  12.521  22.018  0.00  0.00    +0.000 A 
ATOM     26  C   UNL     1      -0.582  13.610  22.449  0.00  0.00    +0.000 A 
ATOM     27  C   UNL     1      -1.060  14.408  23.485  0.00  0.00    +0.000 A 
ATOM     28  C   UNL     1      -2.283  14.087  24.049  0.00  0.00    +0.000 A 
ATOM     29  N   UNL     1      -3.044  13.046  23.649  0.00  0.00    +0.000 NA
ATOM     30  C   UNL     1      -2.561  12.280  22.640  0.00  0.00    +0.000 A 
ENDBRANCH  22  25
ENDBRANCH   4  20
TORSDOF 5
ENDMDL
