MODEL 1
REMARK VINA RESULT:      -7.1      0.000      0.000
REMARK  Name = 
REMARK  3 active torsions:
REMARK  status: ('A' for Active; 'I' for Inactive)
REMARK    1  A    between atoms: C_2  and  C_13
REMARK    2  A    between atoms: N_3  and  C_4
REMARK    3  A    between atoms: C_7  and  N_8
REMARK                            x       y       z     vdW  Elec       q    Type
REMARK                         _______ _______ _______ _____ _____    ______ ____
ROOT
ATOM      1  O   UNL     1       7.067   4.476  17.170  0.00  0.00    +0.000 OA
ATOM      2  C   UNL     1       6.277   4.390  16.236  0.00  0.00    +0.000 C 
ATOM      3  N   UNL     1       4.935   4.051  16.341  0.00  0.00    +0.000 N 
ATOM      4  H   UNL     1       4.453   3.879  15.462  0.00  0.00    +0.000 HD
ENDROOT
BRANCH   3   5
ATOM      5  C   UNL     1       4.240   3.799  17.539  0.00  0.00    +0.000 A 
ATOM      6  C   UNL     1       4.854   3.219  18.659  0.00  0.00    +0.000 A 
ATOM      7  C   UNL     1       4.124   2.939  19.816  0.00  0.00    +0.000 A 
ATOM      8  C   UNL     1       2.763   3.243  19.861  0.00  0.00    +0.000 A 
ATOM      9  C   UNL     1       2.139   3.852  18.765  0.00  0.00    +0.000 A 
ATOM     10  C   UNL     1       2.885   4.141  17.613  0.00  0.00    +0.000 A 
BRANCH   8  11
ATOM     11  N   UNL     1       1.990   2.918  21.066  0.00  0.00    +0.000 N 
ATOM     12  O   UNL     1       0.754   2.989  20.995  0.00  0.00    +0.000 OA
ATOM     13  O   UNL     1       2.618   2.598  22.084  0.00  0.00    +0.000 OA
ENDBRANCH   8  11
ENDBRANCH   3   5
BRANCH   2  14
ATOM     14  C   UNL     1       6.741   4.604  14.875  0.00  0.00    +0.000 A 
ATOM     15  C   UNL     1       6.314   3.919  13.729  0.00  0.00    +0.000 A 
ATOM     16  N   UNL     1       6.958   4.367  12.655  0.00  0.00    +0.000 NA
ATOM     17  O   UNL     1       7.810   5.355  13.145  0.00  0.00    +0.000 OA
ATOM     18  N   UNL     1       7.664   5.512  14.528  0.00  0.00    +0.000 NA
ENDBRANCH   2  14
TORSDOF 3
ENDMDL
MODEL 2
REMARK VINA RESULT:      -7.1      1.602      7.222
REMARK  Name = 
REMARK  3 active torsions:
REMARK  status: ('A' for Active; 'I' for Inactive)
REMARK    1  A    between atoms: C_2  and  C_13
REMARK    2  A    between atoms: N_3  and  C_4
REMARK    3  A    between atoms: C_7  and  N_8
REMARK                            x       y       z     vdW  Elec       q    Type
REMARK                         _______ _______ _______ _____ _____    ______ ____
ROOT
ATOM      1  O   UNL     1       3.361   1.956  17.837  0.00  0.00    +0.000 OA
ATOM      2  C   UNL     1       3.596   2.824  18.671  0.00  0.00    +0.000 C 
ATOM      3  N   UNL     1       4.457   3.899  18.497  0.00  0.00    +0.000 N 
ATOM      4  H   UNL     1       4.656   4.444  19.333  0.00  0.00    +0.000 HD
ENDROOT
BRANCH   3   5
ATOM      5  C   UNL     1       5.166   4.206  17.320  0.00  0.00    +0.000 A 
ATOM      6  C   UNL     1       4.554   4.237  16.059  0.00  0.00    +0.000 A 
ATOM      7  C   UNL     1       5.296   4.498  14.905  0.00  0.00    +0.000 A 
ATOM      8  C   UNL     1       6.667   4.736  15.008  0.00  0.00    +0.000 A 
ATOM      9  C   UNL     1       7.291   4.741  16.263  0.00  0.00    +0.000 A 
ATOM     10  C   UNL     1       6.533   4.491  17.416  0.00  0.00    +0.000 A 
BRANCH   8  11
ATOM     11  N   UNL     1       7.452   4.977  13.791  0.00  0.00    +0.000 N 
ATOM     12  O   UNL     1       8.405   5.767  13.866  0.00  0.00    +0.000 OA
ATOM     13  O   UNL     1       7.112   4.383  12.760  0.00  0.00    +0.000 OA
ENDBRANCH   8  11
ENDBRANCH   3   5
BRANCH   2  14
ATOM     14  C   UNL     1       2.987   2.744  19.988  0.00  0.00    +0.000 A 
ATOM     15  C   UNL     1       1.634   2.946  20.296  0.00  0.00    +0.000 A 
ATOM     16  N   UNL     1       1.430   2.804  21.602  0.00  0.00    +0.000 NA
ATOM     17  O   UNL     1       2.688   2.508  22.122  0.00  0.00    +0.000 OA
ATOM     18  N   UNL     1       3.657   2.458  21.113  0.00  0.00    +0.000 NA
ENDBRANCH   2  14
TORSDOF 3
ENDMDL
MODEL 3
REMARK VINA RESULT:      -7.1      0.858      1.077
REMARK  Name = 
REMARK  3 active torsions:
REMARK  status: ('A' for Active; 'I' for Inactive)
REMARK    1  A    between atoms: C_2  and  C_13
REMARK    2  A    between atoms: N_3  and  C_4
REMARK    3  A    between atoms: C_7  and  N_8
REMARK                            x       y       z     vdW  Elec       q    Type
REMARK                         _______ _______ _______ _____ _____    ______ ____
ROOT
ATOM      1  O   UNL     1       7.170   4.293  16.855  0.00  0.00    +0.000 OA
ATOM      2  C   UNL     1       6.367   4.372  15.930  0.00  0.00    +0.000 C 
ATOM      3  N   UNL     1       4.992   4.214  16.039  0.00  0.00    +0.000 N 
ATOM      4  H   UNL     1       4.484   4.162  15.159  0.00  0.00    +0.000 HD
ENDROOT
BRANCH   3   5
ATOM      5  C   UNL     1       4.280   3.988  17.232  0.00  0.00    +0.000 A 
ATOM      6  C   UNL     1       3.818   2.718  17.605  0.00  0.00    +0.000 A 
ATOM      7  C   UNL     1       3.073   2.537  18.772  0.00  0.00    +0.000 A 
ATOM      8  C   UNL     1       2.786   3.636  19.583  0.00  0.00    +0.000 A 
ATOM      9  C   UNL     1       3.267   4.908  19.244  0.00  0.00    +0.000 A 
ATOM     10  C   UNL     1       4.025   5.075  18.076  0.00  0.00    +0.000 A 
BRANCH   8  11
ATOM     11  N   UNL     1       1.975   3.450  20.792  0.00  0.00    +0.000 N 
ATOM     12  O   UNL     1       2.250   4.142  21.783  0.00  0.00    +0.000 OA
ATOM     13  O   UNL     1       1.069   2.608  20.753  0.00  0.00    +0.000 OA
ENDBRANCH   8  11
ENDBRANCH   3   5
BRANCH   2  14
ATOM     14  C   UNL     1       6.845   4.602  14.577  0.00  0.00    +0.000 A 
ATOM     15  C   UNL     1       6.419   3.939  13.417  0.00  0.00    +0.000 A 
ATOM     16  N   UNL     1       7.077   4.396  12.355  0.00  0.00    +0.000 NA
ATOM     17  O   UNL     1       7.936   5.366  12.867  0.00  0.00    +0.000 OA
ATOM     18  N   UNL     1       7.781   5.504  14.251  0.00  0.00    +0.000 NA
ENDBRANCH   2  14
TORSDOF 3
ENDMDL
MODEL 4
REMARK VINA RESULT:      -7.0      0.987      1.333
REMARK  Name = 
REMARK  3 active torsions:
REMARK  status: ('A' for Active; 'I' for Inactive)
REMARK    1  A    between atoms: C_2  and  C_13
REMARK    2  A    between atoms: N_3  and  C_4
REMARK    3  A    between atoms: C_7  and  N_8
REMARK                            x       y       z     vdW  Elec       q    Type
REMARK                         _______ _______ _______ _____ _____    ______ ____
ROOT
ATOM      1  O   UNL     1       4.797   5.862  16.212  0.00  0.00    +0.000 OA
ATOM      2  C   UNL     1       5.418   4.843  15.926  0.00  0.00    +0.000 C 
ATOM      3  N   UNL     1       5.357   3.639  16.614  0.00  0.00    +0.000 N 
ATOM      4  H   UNL     1       6.042   2.939  16.340  0.00  0.00    +0.000 HD
ENDROOT
BRANCH   3   5
ATOM      5  C   UNL     1       4.534   3.364  17.722  0.00  0.00    +0.000 A 
ATOM      6  C   UNL     1       3.346   2.626  17.616  0.00  0.00    +0.000 A 
ATOM      7  C   UNL     1       2.529   2.413  18.727  0.00  0.00    +0.000 A 
ATOM      8  C   UNL     1       2.900   2.939  19.965  0.00  0.00    +0.000 A 
ATOM      9  C   UNL     1       4.099   3.650  20.099  0.00  0.00    +0.000 A 
ATOM     10  C   UNL     1       4.919   3.847  18.978  0.00  0.00    +0.000 A 
BRANCH   8  11
ATOM     11  N   UNL     1       2.024   2.741  21.126  0.00  0.00    +0.000 N 
ATOM     12  O   UNL     1       0.809   2.931  20.971  0.00  0.00    +0.000 OA
ATOM     13  O   UNL     1       2.551   2.404  22.194  0.00  0.00    +0.000 OA
ENDBRANCH   8  11
ENDBRANCH   3   5
BRANCH   2  14
ATOM     14  C   UNL     1       6.350   4.855  14.810  0.00  0.00    +0.000 A 
ATOM     15  C   UNL     1       6.217   4.153  13.603  0.00  0.00    +0.000 A 
ATOM     16  N   UNL     1       7.260   4.390  12.813  0.00  0.00    +0.000 NA
ATOM     17  O   UNL     1       8.065   5.259  13.547  0.00  0.00    +0.000 OA
ATOM     18  N   UNL     1       7.490   5.560  14.787  0.00  0.00    +0.000 NA
ENDBRANCH   2  14
TORSDOF 3
ENDMDL
MODEL 5
REMARK VINA RESULT:      -7.0      0.895      1.334
REMARK  Name = 
REMARK  3 active torsions:
REMARK  status: ('A' for Active; 'I' for Inactive)
REMARK    1  A    between atoms: C_2  and  C_13
REMARK    2  A    between atoms: N_3  and  C_4
REMARK    3  A    between atoms: C_7  and  N_8
REMARK                            x       y       z     vdW  Elec       q    Type
REMARK                         _______ _______ _______ _____ _____    ______ ____
ROOT
ATOM      1  O   UNL     1       6.917   4.759  16.771  0.00  0.00    +0.000 OA
ATOM      2  C   UNL     1       6.180   4.563  15.810  0.00  0.00    +0.000 C 
ATOM      3  N   UNL     1       4.835   4.225  15.879  0.00  0.00    +0.000 N 
ATOM      4  H   UNL     1       4.404   3.952  14.999  0.00  0.00    +0.000 HD
ENDROOT
BRANCH   3   5
ATOM      5  C   UNL     1       4.076   4.100  17.058  0.00  0.00    +0.000 A 
ATOM      6  C   UNL     1       3.526   5.207  17.721  0.00  0.00    +0.000 A 
ATOM      7  C   UNL     1       2.818   5.052  18.914  0.00  0.00    +0.000 A 
ATOM      8  C   UNL     1       2.652   3.776  19.455  0.00  0.00    +0.000 A 
ATOM      9  C   UNL     1       3.166   2.655  18.791  0.00  0.00    +0.000 A 
ATOM     10  C   UNL     1       3.864   2.822  17.586  0.00  0.00    +0.000 A 
BRANCH   8  11
ATOM     11  N   UNL     1       1.936   3.619  20.727  0.00  0.00    +0.000 N 
ATOM     12  O   UNL     1       2.203   4.411  21.642  0.00  0.00    +0.000 OA
ATOM     13  O   UNL     1       1.112   2.699  20.813  0.00  0.00    +0.000 OA
ENDBRANCH   8  11
ENDBRANCH   3   5
BRANCH   2  14
ATOM     14  C   UNL     1       6.719   4.631  14.462  0.00  0.00    +0.000 A 
ATOM     15  C   UNL     1       6.325   3.851  13.365  0.00  0.00    +0.000 A 
ATOM     16  N   UNL     1       7.037   4.173  12.289  0.00  0.00    +0.000 NA
ATOM     17  O   UNL     1       7.898   5.177  12.727  0.00  0.00    +0.000 OA
ATOM     18  N   UNL     1       7.690   5.471  14.079  0.00  0.00    +0.000 NA
ENDBRANCH   2  14
TORSDOF 3
ENDMDL
MODEL 6
REMARK VINA RESULT:      -6.9      0.358      1.435
REMARK  Name = 
REMARK  3 active torsions:
REMARK  status: ('A' for Active; 'I' for Inactive)
REMARK    1  A    between atoms: C_2  and  C_13
REMARK    2  A    between atoms: N_3  and  C_4
REMARK    3  A    between atoms: C_7  and  N_8
REMARK                            x       y       z     vdW  Elec       q    Type
REMARK                         _______ _______ _______ _____ _____    ______ ____
ROOT
ATOM      1  O   UNL     1       6.557   5.227  17.380  0.00  0.00    +0.000 OA
ATOM      2  C   UNL     1       6.056   4.661  16.414  0.00  0.00    +0.000 C 
ATOM      3  N   UNL     1       4.941   3.836  16.450  0.00  0.00    +0.000 N 
ATOM      4  H   UNL     1       4.741   3.326  15.593  0.00  0.00    +0.000 HD
ENDROOT
BRANCH   3   5
ATOM      5  C   UNL     1       4.164   3.549  17.588  0.00  0.00    +0.000 A 
ATOM      6  C   UNL     1       2.772   3.719  17.614  0.00  0.00    +0.000 A 
ATOM      7  C   UNL     1       2.038   3.471  18.775  0.00  0.00    +0.000 A 
ATOM      8  C   UNL     1       2.697   3.043  19.928  0.00  0.00    +0.000 A 
ATOM      9  C   UNL     1       4.082   2.835  19.913  0.00  0.00    +0.000 A 
ATOM     10  C   UNL     1       4.808   3.075  18.737  0.00  0.00    +0.000 A 
BRANCH   8  11
ATOM     11  N   UNL     1       1.928   2.814  21.157  0.00  0.00    +0.000 N 
ATOM     12  O   UNL     1       2.555   2.505  22.181  0.00  0.00    +0.000 OA
ATOM     13  O   UNL     1       0.697   2.936  21.097  0.00  0.00    +0.000 OA
ENDBRANCH   8  11
ENDBRANCH   3   5
BRANCH   2  14
ATOM     14  C   UNL     1       6.671   4.792  15.103  0.00  0.00    +0.000 A 
ATOM     15  C   UNL     1       6.283   4.129  13.930  0.00  0.00    +0.000 A 
ATOM     16  N   UNL     1       7.073   4.480  12.918  0.00  0.00    +0.000 NA
ATOM     17  O   UNL     1       7.977   5.381  13.477  0.00  0.00    +0.000 OA
ATOM     18  N   UNL     1       7.717   5.585  14.837  0.00  0.00    +0.000 NA
ENDBRANCH   2  14
TORSDOF 3
ENDMDL
MODEL 7
REMARK VINA RESULT:      -6.9      1.607      7.233
REMARK  Name = 
REMARK  3 active torsions:
REMARK  status: ('A' for Active; 'I' for Inactive)
REMARK    1  A    between atoms: C_2  and  C_13
REMARK    2  A    between atoms: N_3  and  C_4
REMARK    3  A    between atoms: C_7  and  N_8
REMARK                            x       y       z     vdW  Elec       q    Type
REMARK                         _______ _______ _______ _____ _____    ______ ____
ROOT
ATOM      1  O   UNL     1       2.595   3.910  17.813  0.00  0.00    +0.000 OA
ATOM      2  C   UNL     1       3.468   3.689  18.646  0.00  0.00    +0.000 C 
ATOM      3  N   UNL     1       4.836   3.729  18.413  0.00  0.00    +0.000 N 
ATOM      4  H   UNL     1       5.422   3.376  19.165  0.00  0.00    +0.000 HD
ENDROOT
BRANCH   3   5
ATOM      5  C   UNL     1       5.454   4.080  17.198  0.00  0.00    +0.000 A 
ATOM      6  C   UNL     1       4.797   3.988  15.963  0.00  0.00    +0.000 A 
ATOM      7  C   UNL     1       5.456   4.299  14.772  0.00  0.00    +0.000 A 
ATOM      8  C   UNL     1       6.788   4.711  14.810  0.00  0.00    +0.000 A 
ATOM      9  C   UNL     1       7.452   4.841  16.036  0.00  0.00    +0.000 A 
ATOM     10  C   UNL     1       6.776   4.539  17.227  0.00  0.00    +0.000 A 
BRANCH   8  11
ATOM     11  N   UNL     1       7.489   5.007  13.554  0.00  0.00    +0.000 N 
ATOM     12  O   UNL     1       7.109   4.422  12.530  0.00  0.00    +0.000 OA
ATOM     13  O   UNL     1       8.425   5.817  13.594  0.00  0.00    +0.000 OA
ENDBRANCH   8  11
ENDBRANCH   3   5
BRANCH   2  14
ATOM     14  C   UNL     1       3.095   3.300  19.996  0.00  0.00    +0.000 A 
ATOM     15  C   UNL     1       2.066   3.853  20.771  0.00  0.00    +0.000 A 
ATOM     16  N   UNL     1       2.014   3.262  21.961  0.00  0.00    +0.000 NA
ATOM     17  O   UNL     1       3.039   2.319  21.928  0.00  0.00    +0.000 OA
ATOM     18  N   UNL     1       3.705   2.334  20.697  0.00  0.00    +0.000 NA
ENDBRANCH   2  14
TORSDOF 3
ENDMDL
MODEL 8
REMARK VINA RESULT:      -6.7      1.579      7.219
REMARK  Name = 
REMARK  3 active torsions:
REMARK  status: ('A' for Active; 'I' for Inactive)
REMARK    1  A    between atoms: C_2  and  C_13
REMARK    2  A    between atoms: N_3  and  C_4
REMARK    3  A    between atoms: C_7  and  N_8
REMARK                            x       y       z     vdW  Elec       q    Type
REMARK                         _______ _______ _______ _____ _____    ______ ____
ROOT
ATOM      1  O   UNL     1       3.978   5.898  18.733  0.00  0.00    +0.000 OA
ATOM      2  C   UNL     1       4.064   4.685  18.894  0.00  0.00    +0.000 C 
ATOM      3  N   UNL     1       4.693   3.798  18.030  0.00  0.00    +0.000 N 
ATOM      4  H   UNL     1       4.548   2.811  18.230  0.00  0.00    +0.000 HD
ENDROOT
BRANCH   3   5
ATOM      5  C   UNL     1       5.383   4.143  16.853  0.00  0.00    +0.000 A 
ATOM      6  C   UNL     1       4.803   4.038  15.581  0.00  0.00    +0.000 A 
ATOM      7  C   UNL     1       5.532   4.344  14.430  0.00  0.00    +0.000 A 
ATOM      8  C   UNL     1       6.857   4.764  14.546  0.00  0.00    +0.000 A 
ATOM      9  C   UNL     1       7.444   4.907  15.810  0.00  0.00    +0.000 A 
ATOM     10  C   UNL     1       6.698   4.609  16.960  0.00  0.00    +0.000 A 
BRANCH   8  11
ATOM     11  N   UNL     1       7.632   5.053  13.333  0.00  0.00    +0.000 N 
ATOM     12  O   UNL     1       8.547   5.886  13.418  0.00  0.00    +0.000 OA
ATOM     13  O   UNL     1       7.323   4.453  12.296  0.00  0.00    +0.000 OA
ENDBRANCH   8  11
ENDBRANCH   3   5
BRANCH   2  14
ATOM     14  C   UNL     1       3.430   4.063  20.044  0.00  0.00    +0.000 A 
ATOM     15  C   UNL     1       3.580   2.733  20.463  0.00  0.00    +0.000 A 
ATOM     16  N   UNL     1       2.846   2.504  21.548  0.00  0.00    +0.000 NA
ATOM     17  O   UNL     1       2.220   3.721  21.810  0.00  0.00    +0.000 OA
ATOM     18  N   UNL     1       2.596   4.697  20.879  0.00  0.00    +0.000 NA
ENDBRANCH   2  14
TORSDOF 3
ENDMDL
MODEL 9
REMARK VINA RESULT:      -6.7      1.574      7.144
REMARK  Name = 
REMARK  3 active torsions:
REMARK  status: ('A' for Active; 'I' for Inactive)
REMARK    1  A    between atoms: C_2  and  C_13
REMARK    2  A    between atoms: N_3  and  C_4
REMARK    3  A    between atoms: C_7  and  N_8
REMARK                            x       y       z     vdW  Elec       q    Type
REMARK                         _______ _______ _______ _____ _____    ______ ____
ROOT
ATOM      1  O   UNL     1       3.408   5.673  17.974  0.00  0.00    +0.000 OA
ATOM      2  C   UNL     1       3.885   4.677  18.507  0.00  0.00    +0.000 C 
ATOM      3  N   UNL     1       4.937   3.919  18.009  0.00  0.00    +0.000 N 
ATOM      4  H   UNL     1       5.116   3.042  18.492  0.00  0.00    +0.000 HD
ENDROOT
BRANCH   3   5
ATOM      5  C   UNL     1       5.668   4.193  16.837  0.00  0.00    +0.000 A 
ATOM      6  C   UNL     1       6.883   4.891  16.853  0.00  0.00    +0.000 A 
ATOM      7  C   UNL     1       7.559   5.188  15.668  0.00  0.00    +0.000 A 
ATOM      8  C   UNL     1       7.018   4.780  14.448  0.00  0.00    +0.000 A 
ATOM      9  C   UNL     1       5.821   4.053  14.413  0.00  0.00    +0.000 A 
ATOM     10  C   UNL     1       5.159   3.750  15.611  0.00  0.00    +0.000 A 
BRANCH   8  11
ATOM     11  N   UNL     1       7.712   5.121  13.200  0.00  0.00    +0.000 N 
ATOM     12  O   UNL     1       7.335   4.564  12.159  0.00  0.00    +0.000 OA
ATOM     13  O   UNL     1       8.638   5.941  13.262  0.00  0.00    +0.000 OA
ENDBRANCH   8  11
ENDBRANCH   3   5
BRANCH   2  14
ATOM     14  C   UNL     1       3.309   4.173  19.743  0.00  0.00    +0.000 A 
ATOM     15  C   UNL     1       3.333   2.846  20.196  0.00  0.00    +0.000 A 
ATOM     16  N   UNL     1       2.702   2.744  21.362  0.00  0.00    +0.000 NA
ATOM     17  O   UNL     1       2.271   4.039  21.641  0.00  0.00    +0.000 OA
ATOM     18  N   UNL     1       2.662   4.933  20.637  0.00  0.00    +0.000 NA
ENDBRANCH   2  14
TORSDOF 3
ENDMDL
