MODEL 1
REMARK VINA RESULT:      -7.9      0.000      0.000
REMARK  Name = 
REMARK  3 active torsions:
REMARK  status: ('A' for Active; 'I' for Inactive)
REMARK    1  A    between atoms: C_2  and  C_17
REMARK    2  A    between atoms: N_3  and  C_4
REMARK    3  A    between atoms: C_8  and  C_9
REMARK                            x       y       z     vdW  Elec       q    Type
REMARK                         _______ _______ _______ _____ _____    ______ ____
ROOT
ATOM      1  C   UNL     1       6.037   4.035  16.308  0.00  0.00    +0.000 A 
ATOM      2  C   UNL     1       7.149   4.692  16.853  0.00  0.00    +0.000 A 
ATOM      3  C   UNL     1       7.147   5.122  18.170  0.00  0.00    +0.000 A 
ATOM      4  C   UNL     1       6.044   4.882  18.980  0.00  0.00    +0.000 A 
ATOM      5  C   UNL     1       4.915   4.195  18.483  0.00  0.00    +0.000 A 
ATOM      6  C   UNL     1       4.920   3.819  17.122  0.00  0.00    +0.000 A 
ENDROOT
BRANCH   5   7
ATOM      7  C   UNL     1       3.801   3.832  19.386  0.00  0.00    +0.000 A 
ATOM      8  C   UNL     1       2.567   4.507  19.346  0.00  0.00    +0.000 A 
ATOM      9  C   UNL     1       1.511   4.134  20.183  0.00  0.00    +0.000 A 
ATOM     10  C   UNL     1       1.677   3.081  21.072  0.00  0.00    +0.000 A 
ATOM     11  F   UNL     1       0.663   2.722  21.869  0.00  0.00    +0.000 F 
ATOM     12  C   UNL     1       2.878   2.393  21.139  0.00  0.00    +0.000 A 
ATOM     13  C   UNL     1       3.928   2.765  20.299  0.00  0.00    +0.000 A 
ENDBRANCH   5   7
BRANCH   1  16
ATOM     14  O   UNL     1       7.089   5.376  13.960  0.00  0.00    +0.000 OA
ATOM     15  C   UNL     1       6.522   4.282  13.884  0.00  0.00    +0.000 C 
ATOM     16  N   UNL     1       6.025   3.573  14.974  0.00  0.00    +0.000 N 
ATOM     17  H   UNL     1       5.713   2.620  14.815  0.00  0.00    +0.000 HD
BRANCH  15  18
ATOM     18  C   UNL     1       6.441   3.598  12.527  0.00  0.00    +0.000 C 
ATOM     19 CL   UNL     1       4.735   3.460  12.063  0.00  0.00    +0.000 Cl
ATOM     20 CL   UNL     1       7.364   4.469  11.290  0.00  0.00    +0.000 Cl
ENDBRANCH  15  18
ENDBRANCH   1  16
TORSDOF 3
ENDMDL
MODEL 2
REMARK VINA RESULT:      -7.8      0.598      1.211
REMARK  Name = 
REMARK  3 active torsions:
REMARK  status: ('A' for Active; 'I' for Inactive)
REMARK    1  A    between atoms: C_2  and  C_17
REMARK    2  A    between atoms: N_3  and  C_4
REMARK    3  A    between atoms: C_8  and  C_9
REMARK                            x       y       z     vdW  Elec       q    Type
REMARK                         _______ _______ _______ _____ _____    ______ ____
ROOT
ATOM      1  C   UNL     1       6.313   4.279  16.749  0.00  0.00    +0.000 A 
ATOM      2  C   UNL     1       7.317   5.077  17.313  0.00  0.00    +0.000 A 
ATOM      3  C   UNL     1       7.196   5.567  18.603  0.00  0.00    +0.000 A 
ATOM      4  C   UNL     1       6.081   5.248  19.368  0.00  0.00    +0.000 A 
ATOM      5  C   UNL     1       5.060   4.420  18.853  0.00  0.00    +0.000 A 
ATOM      6  C   UNL     1       5.181   3.982  17.515  0.00  0.00    +0.000 A 
ENDROOT
BRANCH   5   7
ATOM      7  C   UNL     1       3.942   3.983  19.716  0.00  0.00    +0.000 A 
ATOM      8  C   UNL     1       3.867   2.672  20.221  0.00  0.00    +0.000 A 
ATOM      9  C   UNL     1       2.821   2.279  21.061  0.00  0.00    +0.000 A 
ATOM     10  C   UNL     1       1.835   3.193  21.407  0.00  0.00    +0.000 A 
ATOM     11  F   UNL     1       0.837   2.816  22.215  0.00  0.00    +0.000 F 
ATOM     12  C   UNL     1       1.876   4.494  20.928  0.00  0.00    +0.000 A 
ATOM     13  C   UNL     1       2.924   4.884  20.094  0.00  0.00    +0.000 A 
ENDBRANCH   5   7
BRANCH   1  16
ATOM     14  O   UNL     1       5.937   5.685  14.239  0.00  0.00    +0.000 OA
ATOM     15  C   UNL     1       6.200   4.479  14.275  0.00  0.00    +0.000 C 
ATOM     16  N   UNL     1       6.424   3.755  15.442  0.00  0.00    +0.000 N 
ATOM     17  H   UNL     1       6.779   2.808  15.350  0.00  0.00    +0.000 HD
BRANCH  15  18
ATOM     18  C   UNL     1       6.400   3.739  12.960  0.00  0.00    +0.000 C 
ATOM     19 CL   UNL     1       4.810   3.438  12.234  0.00  0.00    +0.000 Cl
ATOM     20 CL   UNL     1       7.444   4.637  11.846  0.00  0.00    +0.000 Cl
ENDBRANCH  15  18
ENDBRANCH   1  16
TORSDOF 3
ENDMDL
MODEL 3
REMARK VINA RESULT:      -7.8      1.283      1.686
REMARK  Name = 
REMARK  3 active torsions:
REMARK  status: ('A' for Active; 'I' for Inactive)
REMARK    1  A    between atoms: C_2  and  C_17
REMARK    2  A    between atoms: N_3  and  C_4
REMARK    3  A    between atoms: C_8  and  C_9
REMARK                            x       y       z     vdW  Elec       q    Type
REMARK                         _______ _______ _______ _____ _____    ______ ____
ROOT
ATOM      1  C   UNL     1       4.878   5.092  15.945  0.00  0.00    +0.000 A 
ATOM      2  C   UNL     1       5.344   6.380  16.240  0.00  0.00    +0.000 A 
ATOM      3  C   UNL     1       5.012   7.001  17.433  0.00  0.00    +0.000 A 
ATOM      4  C   UNL     1       4.227   6.339  18.369  0.00  0.00    +0.000 A 
ATOM      5  C   UNL     1       3.761   5.029  18.128  0.00  0.00    +0.000 A 
ATOM      6  C   UNL     1       4.067   4.441  16.881  0.00  0.00    +0.000 A 
ENDROOT
BRANCH   5   7
ATOM      7  C   UNL     1       3.036   4.286  19.181  0.00  0.00    +0.000 A 
ATOM      8  C   UNL     1       3.663   3.287  19.947  0.00  0.00    +0.000 A 
ATOM      9  C   UNL     1       2.975   2.613  20.960  0.00  0.00    +0.000 A 
ATOM     10  C   UNL     1       1.649   2.929  21.219  0.00  0.00    +0.000 A 
ATOM     11  F   UNL     1       0.993   2.286  22.193  0.00  0.00    +0.000 F 
ATOM     12  C   UNL     1       0.997   3.908  20.485  0.00  0.00    +0.000 A 
ATOM     13  C   UNL     1       1.689   4.582  19.478  0.00  0.00    +0.000 A 
ENDBRANCH   5   7
BRANCH   1  16
ATOM     14  O   UNL     1       7.425   5.146  14.557  0.00  0.00    +0.000 OA
ATOM     15  C   UNL     1       6.455   4.526  14.111  0.00  0.00    +0.000 C 
ATOM     16  N   UNL     1       5.219   4.434  14.744  0.00  0.00    +0.000 N 
ATOM     17  H   UNL     1       4.542   3.777  14.365  0.00  0.00    +0.000 HD
BRANCH  15  18
ATOM     18  C   UNL     1       6.635   3.714  12.836  0.00  0.00    +0.000 C 
ATOM     19 CL   UNL     1       5.033   3.279  12.212  0.00  0.00    +0.000 Cl
ATOM     20 CL   UNL     1       7.571   4.595  11.617  0.00  0.00    +0.000 Cl
ENDBRANCH  15  18
ENDBRANCH   1  16
TORSDOF 3
ENDMDL
MODEL 4
REMARK VINA RESULT:      -7.7      4.749      7.262
REMARK  Name = 
REMARK  3 active torsions:
REMARK  status: ('A' for Active; 'I' for Inactive)
REMARK    1  A    between atoms: C_2  and  C_17
REMARK    2  A    between atoms: N_3  and  C_4
REMARK    3  A    between atoms: C_8  and  C_9
REMARK                            x       y       z     vdW  Elec       q    Type
REMARK                         _______ _______ _______ _____ _____    ______ ____
ROOT
ATOM      1  C   UNL     1       4.761   4.697  18.479  0.00  0.00    +0.000 A 
ATOM      2  C   UNL     1       5.786   5.183  19.302  0.00  0.00    +0.000 A 
ATOM      3  C   UNL     1       7.060   5.397  18.800  0.00  0.00    +0.000 A 
ATOM      4  C   UNL     1       7.331   5.155  17.459  0.00  0.00    +0.000 A 
ATOM      5  C   UNL     1       6.322   4.695  16.586  0.00  0.00    +0.000 A 
ATOM      6  C   UNL     1       5.047   4.431  17.135  0.00  0.00    +0.000 A 
ENDROOT
BRANCH   5   7
ATOM      7  C   UNL     1       6.586   4.563  15.137  0.00  0.00    +0.000 A 
ATOM      8  C   UNL     1       5.814   3.720  14.318  0.00  0.00    +0.000 A 
ATOM      9  C   UNL     1       6.054   3.627  12.945  0.00  0.00    +0.000 A 
ATOM     10  C   UNL     1       7.072   4.377  12.371  0.00  0.00    +0.000 A 
ATOM     11  F   UNL     1       7.297   4.290  11.055  0.00  0.00    +0.000 F 
ATOM     12  C   UNL     1       7.853   5.220  13.147  0.00  0.00    +0.000 A 
ATOM     13  C   UNL     1       7.608   5.313  14.517  0.00  0.00    +0.000 A 
ENDBRANCH   5   7
BRANCH   1  16
ATOM     14  O   UNL     1       3.776   2.430  19.999  0.00  0.00    +0.000 OA
ATOM     15  C   UNL     1       3.035   3.360  19.665  0.00  0.00    +0.000 C 
ATOM     16  N   UNL     1       3.452   4.488  18.965  0.00  0.00    +0.000 N 
ATOM     17  H   UNL     1       2.795   5.257  18.873  0.00  0.00    +0.000 HD
BRANCH  15  18
ATOM     18  C   UNL     1       1.586   3.337  20.130  0.00  0.00    +0.000 C 
ATOM     19 CL   UNL     1       0.621   2.462  18.927  0.00  0.00    +0.000 Cl
ATOM     20 CL   UNL     1       1.416   2.604  21.733  0.00  0.00    +0.000 Cl
ENDBRANCH  15  18
ENDBRANCH   1  16
TORSDOF 3
ENDMDL
MODEL 5
REMARK VINA RESULT:      -7.7      4.875      7.329
REMARK  Name = 
REMARK  3 active torsions:
REMARK  status: ('A' for Active; 'I' for Inactive)
REMARK    1  A    between atoms: C_2  and  C_17
REMARK    2  A    between atoms: N_3  and  C_4
REMARK    3  A    between atoms: C_8  and  C_9
REMARK                            x       y       z     vdW  Elec       q    Type
REMARK                         _______ _______ _______ _____ _____    ______ ____
ROOT
ATOM      1  C   UNL     1       3.686   4.844  17.707  0.00  0.00    +0.000 A 
ATOM      2  C   UNL     1       3.910   6.158  18.139  0.00  0.00    +0.000 A 
ATOM      3  C   UNL     1       4.807   6.982  17.478  0.00  0.00    +0.000 A 
ATOM      4  C   UNL     1       5.481   6.519  16.355  0.00  0.00    +0.000 A 
ATOM      5  C   UNL     1       5.263   5.213  15.865  0.00  0.00    +0.000 A 
ATOM      6  C   UNL     1       4.387   4.376  16.590  0.00  0.00    +0.000 A 
ENDROOT
BRANCH   5   7
ATOM      7  C   UNL     1       5.886   4.774  14.597  0.00  0.00    +0.000 A 
ATOM      8  C   UNL     1       7.148   5.246  14.191  0.00  0.00    +0.000 A 
ATOM      9  C   UNL     1       7.739   4.800  13.006  0.00  0.00    +0.000 A 
ATOM     10  C   UNL     1       7.076   3.875  12.211  0.00  0.00    +0.000 A 
ATOM     11  F   UNL     1       7.647   3.445  11.079  0.00  0.00    +0.000 F 
ATOM     12  C   UNL     1       5.832   3.387  12.579  0.00  0.00    +0.000 A 
ATOM     13  C   UNL     1       5.246   3.832  13.765  0.00  0.00    +0.000 A 
ENDBRANCH   5   7
BRANCH   1  16
ATOM     14  O   UNL     1       4.221   2.942  19.831  0.00  0.00    +0.000 OA
ATOM     15  C   UNL     1       3.092   3.078  19.351  0.00  0.00    +0.000 C 
ATOM     16  N   UNL     1       2.764   3.994  18.355  0.00  0.00    +0.000 N 
ATOM     17  H   UNL     1       1.780   4.126  18.140  0.00  0.00    +0.000 HD
BRANCH  15  18
ATOM     18  C   UNL     1       1.946   2.273  19.946  0.00  0.00    +0.000 C 
ATOM     19 CL   UNL     1       1.536   2.958  21.529  0.00  0.00    +0.000 Cl
ATOM     20 CL   UNL     1       0.530   2.248  18.881  0.00  0.00    +0.000 Cl
ENDBRANCH  15  18
ENDBRANCH   1  16
TORSDOF 3
ENDMDL
MODEL 6
REMARK VINA RESULT:      -7.7      4.718      7.169
REMARK  Name = 
REMARK  3 active torsions:
REMARK  status: ('A' for Active; 'I' for Inactive)
REMARK    1  A    between atoms: C_2  and  C_17
REMARK    2  A    between atoms: N_3  and  C_4
REMARK    3  A    between atoms: C_8  and  C_9
REMARK                            x       y       z     vdW  Elec       q    Type
REMARK                         _______ _______ _______ _____ _____    ______ ____
ROOT
ATOM      1  C   UNL     1       4.809   4.592  18.453  0.00  0.00    +0.000 A 
ATOM      2  C   UNL     1       5.799   5.175  19.254  0.00  0.00    +0.000 A 
ATOM      3  C   UNL     1       7.038   5.504  18.728  0.00  0.00    +0.000 A 
ATOM      4  C   UNL     1       7.306   5.280  17.384  0.00  0.00    +0.000 A 
ATOM      5  C   UNL     1       6.328   4.724  16.532  0.00  0.00    +0.000 A 
ATOM      6  C   UNL     1       5.094   4.346  17.105  0.00  0.00    +0.000 A 
ENDROOT
BRANCH   5   7
ATOM      7  C   UNL     1       6.577   4.609  15.078  0.00  0.00    +0.000 A 
ATOM      8  C   UNL     1       7.581   5.357  14.438  0.00  0.00    +0.000 A 
ATOM      9  C   UNL     1       7.827   5.217  13.069  0.00  0.00    +0.000 A 
ATOM     10  C   UNL     1       7.070   4.324  12.322  0.00  0.00    +0.000 A 
ATOM     11  F   UNL     1       7.311   4.187  11.013  0.00  0.00    +0.000 F 
ATOM     12  C   UNL     1       6.072   3.569  12.919  0.00  0.00    +0.000 A 
ATOM     13  C   UNL     1       5.833   3.709  14.286  0.00  0.00    +0.000 A 
ENDBRANCH   5   7
BRANCH   1  16
ATOM     14  O   UNL     1       3.971   2.088  19.658  0.00  0.00    +0.000 OA
ATOM     15  C   UNL     1       3.187   3.030  19.504  0.00  0.00    +0.000 C 
ATOM     16  N   UNL     1       3.534   4.265  18.964  0.00  0.00    +0.000 N 
ATOM     17  H   UNL     1       2.851   5.015  19.022  0.00  0.00    +0.000 HD
BRANCH  15  18
ATOM     18  C   UNL     1       1.766   2.886  20.029  0.00  0.00    +0.000 C 
ATOM     19 CL   UNL     1       1.234   4.456  20.660  0.00  0.00    +0.000 Cl
ATOM     20 CL   UNL     1       0.655   2.296  18.782  0.00  0.00    +0.000 Cl
ENDBRANCH  15  18
ENDBRANCH   1  16
TORSDOF 3
ENDMDL
MODEL 7
REMARK VINA RESULT:      -7.7      4.912      7.376
REMARK  Name = 
REMARK  3 active torsions:
REMARK  status: ('A' for Active; 'I' for Inactive)
REMARK    1  A    between atoms: C_2  and  C_17
REMARK    2  A    between atoms: N_3  and  C_4
REMARK    3  A    between atoms: C_8  and  C_9
REMARK                            x       y       z     vdW  Elec       q    Type
REMARK                         _______ _______ _______ _____ _____    ______ ____
ROOT
ATOM      1  C   UNL     1       3.663   4.741  17.643  0.00  0.00    +0.000 A 
ATOM      2  C   UNL     1       3.839   6.068  18.056  0.00  0.00    +0.000 A 
ATOM      3  C   UNL     1       4.718   6.910  17.392  0.00  0.00    +0.000 A 
ATOM      4  C   UNL     1       5.420   6.451  16.285  0.00  0.00    +0.000 A 
ATOM      5  C   UNL     1       5.250   5.131  15.814  0.00  0.00    +0.000 A 
ATOM      6  C   UNL     1       4.392   4.278  16.543  0.00  0.00    +0.000 A 
ENDROOT
BRANCH   5   7
ATOM      7  C   UNL     1       5.903   4.692  14.562  0.00  0.00    +0.000 A 
ATOM      8  C   UNL     1       5.297   3.761  13.699  0.00  0.00    +0.000 A 
ATOM      9  C   UNL     1       5.911   3.377  12.503  0.00  0.00    +0.000 A 
ATOM     10  C   UNL     1       7.140   3.920  12.155  0.00  0.00    +0.000 A 
ATOM     11  F   UNL     1       7.723   3.555  11.007  0.00  0.00    +0.000 F 
ATOM     12  C   UNL     1       7.767   4.840  12.980  0.00  0.00    +0.000 A 
ATOM     13  C   UNL     1       7.150   5.225  14.171  0.00  0.00    +0.000 A 
ENDBRANCH   5   7
BRANCH   1  16
ATOM     14  O   UNL     1       4.145   3.136  20.012  0.00  0.00    +0.000 OA
ATOM     15  C   UNL     1       3.065   3.104  19.414  0.00  0.00    +0.000 C 
ATOM     16  N   UNL     1       2.760   3.872  18.294  0.00  0.00    +0.000 N 
ATOM     17  H   UNL     1       1.796   3.879  17.973  0.00  0.00    +0.000 HD
BRANCH  15  18
ATOM     18  C   UNL     1       1.942   2.251  19.986  0.00  0.00    +0.000 C 
ATOM     19 CL   UNL     1       1.578   2.820  21.626  0.00  0.00    +0.000 Cl
ATOM     20 CL   UNL     1       0.494   2.290  18.966  0.00  0.00    +0.000 Cl
ENDBRANCH  15  18
ENDBRANCH   1  16
TORSDOF 3
ENDMDL
MODEL 8
REMARK VINA RESULT:      -7.7      1.249      1.264
REMARK  Name = 
REMARK  3 active torsions:
REMARK  status: ('A' for Active; 'I' for Inactive)
REMARK    1  A    between atoms: C_2  and  C_17
REMARK    2  A    between atoms: N_3  and  C_4
REMARK    3  A    between atoms: C_8  and  C_9
REMARK                            x       y       z     vdW  Elec       q    Type
REMARK                         _______ _______ _______ _____ _____    ______ ____
ROOT
ATOM      1  C   UNL     1       4.889   5.045  15.973  0.00  0.00    +0.000 A 
ATOM      2  C   UNL     1       5.403   6.320  16.245  0.00  0.00    +0.000 A 
ATOM      3  C   UNL     1       5.109   6.966  17.435  0.00  0.00    +0.000 A 
ATOM      4  C   UNL     1       4.315   6.343  18.389  0.00  0.00    +0.000 A 
ATOM      5  C   UNL     1       3.801   5.046  18.171  0.00  0.00    +0.000 A 
ATOM      6  C   UNL     1       4.069   4.433  16.927  0.00  0.00    +0.000 A 
ENDROOT
BRANCH   5   7
ATOM      7  C   UNL     1       3.065   4.341  19.243  0.00  0.00    +0.000 A 
ATOM      8  C   UNL     1       1.735   4.667  19.565  0.00  0.00    +0.000 A 
ATOM      9  C   UNL     1       1.041   3.972  20.559  0.00  0.00    +0.000 A 
ATOM     10  C   UNL     1       1.669   2.941  21.245  0.00  0.00    +0.000 A 
ATOM     11  F   UNL     1       1.000   2.274  22.193  0.00  0.00    +0.000 F 
ATOM     12  C   UNL     1       2.978   2.591  20.954  0.00  0.00    +0.000 A 
ATOM     13  C   UNL     1       3.667   3.284  19.958  0.00  0.00    +0.000 A 
ENDBRANCH   5   7
BRANCH   1  16
ATOM     14  O   UNL     1       7.347   5.164  14.436  0.00  0.00    +0.000 OA
ATOM     15  C   UNL     1       6.383   4.485  14.068  0.00  0.00    +0.000 C 
ATOM     16  N   UNL     1       5.191   4.361  14.775  0.00  0.00    +0.000 N 
ATOM     17  H   UNL     1       4.525   3.662  14.458  0.00  0.00    +0.000 HD
BRANCH  15  18
ATOM     18  C   UNL     1       6.528   3.639  12.812  0.00  0.00    +0.000 C 
ATOM     19 CL   UNL     1       4.912   3.336  12.146  0.00  0.00    +0.000 Cl
ATOM     20 CL   UNL     1       7.572   4.413  11.608  0.00  0.00    +0.000 Cl
ENDBRANCH  15  18
ENDBRANCH   1  16
TORSDOF 3
ENDMDL
MODEL 9
REMARK VINA RESULT:      -7.7      4.719      7.193
REMARK  Name = 
REMARK  3 active torsions:
REMARK  status: ('A' for Active; 'I' for Inactive)
REMARK    1  A    between atoms: C_2  and  C_17
REMARK    2  A    between atoms: N_3  and  C_4
REMARK    3  A    between atoms: C_8  and  C_9
REMARK                            x       y       z     vdW  Elec       q    Type
REMARK                         _______ _______ _______ _____ _____    ______ ____
ROOT
ATOM      1  C   UNL     1       4.910   4.447  18.552  0.00  0.00    +0.000 A 
ATOM      2  C   UNL     1       5.837   5.167  19.317  0.00  0.00    +0.000 A 
ATOM      3  C   UNL     1       7.021   5.621  18.759  0.00  0.00    +0.000 A 
ATOM      4  C   UNL     1       7.294   5.386  17.417  0.00  0.00    +0.000 A 
ATOM      5  C   UNL     1       6.375   4.692  16.600  0.00  0.00    +0.000 A 
ATOM      6  C   UNL     1       5.202   4.192  17.208  0.00  0.00    +0.000 A 
ENDROOT
BRANCH   5   7
ATOM      7  C   UNL     1       6.615   4.559  15.147  0.00  0.00    +0.000 A 
ATOM      8  C   UNL     1       5.827   3.717  14.341  0.00  0.00    +0.000 A 
ATOM      9  C   UNL     1       6.045   3.623  12.964  0.00  0.00    +0.000 A 
ATOM     10  C   UNL     1       7.054   4.371  12.374  0.00  0.00    +0.000 A 
ATOM     11  F   UNL     1       7.257   4.284  11.053  0.00  0.00    +0.000 F 
ATOM     12  C   UNL     1       7.850   5.213  13.135  0.00  0.00    +0.000 A 
ATOM     13  C   UNL     1       7.627   5.307  14.510  0.00  0.00    +0.000 A 
ENDBRANCH   5   7
BRANCH   1  16
ATOM     14  O   UNL     1       4.351   1.851  19.721  0.00  0.00    +0.000 OA
ATOM     15  C   UNL     1       3.478   2.718  19.616  0.00  0.00    +0.000 C 
ATOM     16  N   UNL     1       3.689   3.991  19.096  0.00  0.00    +0.000 N 
ATOM     17  H   UNL     1       2.942   4.672  19.195  0.00  0.00    +0.000 HD
BRANCH  15  18
ATOM     18  C   UNL     1       2.096   2.429  20.184  0.00  0.00    +0.000 C 
ATOM     19 CL   UNL     1       1.791   3.548  21.526  0.00  0.00    +0.000 Cl
ATOM     20 CL   UNL     1       0.832   2.562  18.949  0.00  0.00    +0.000 Cl
ENDBRANCH  15  18
ENDBRANCH   1  16
TORSDOF 3
ENDMDL
