MODEL 1
REMARK VINA RESULT:      -8.9      0.000      0.000
REMARK  Name = 
REMARK  7 active torsions:
REMARK  status: ('A' for Active; 'I' for Inactive)
REMARK    1  A    between atoms: C_1  and  C_2
REMARK    2  A    between atoms: C_3  and  S_4
REMARK    3  A    between atoms: S_4  and  N_7
REMARK    4  A    between atoms: N_7  and  C_8
REMARK    5  A    between atoms: C_14  and  C_15
REMARK    6  A    between atoms: C_15  and  C_16
REMARK    7  A    between atoms: C_16  and  N_17
REMARK                            x       y       z     vdW  Elec       q    Type
REMARK                         _______ _______ _______ _____ _____    ______ ____
ROOT
ATOM      1  C   UNL     1       2.153   6.894  20.141  0.00  0.00    +0.000 A 
ATOM      2  C   UNL     1       2.579   7.043  18.825  0.00  0.00    +0.000 A 
ATOM      3  C   UNL     1       2.208   8.164  18.072  0.00  0.00    +0.000 A 
ATOM      4  C   UNL     1       1.417   9.132  18.700  0.00  0.00    +0.000 A 
ATOM      5  N   UNL     1       0.899  10.308  18.210  0.00  0.00    +0.000 N 
ATOM      6  C   UNL     1       0.191  10.955  19.187  0.00  0.00    +0.000 A 
ATOM      7  C   UNL     1       0.237  10.196  20.342  0.00  0.00    +0.000 A 
ATOM      8  C   UNL     1       1.005   9.027  20.029  0.00  0.00    +0.000 A 
ATOM      9  C   UNL     1       1.383   7.883  20.762  0.00  0.00    +0.000 A 
ATOM     10  H   UNL     1       1.021  10.640  17.264  0.00  0.00    +0.000 HD
ENDROOT
BRANCH   1  11
ATOM     11  N   UNL     1       2.541   5.739  20.884  0.00  0.00    +0.000 N 
ATOM     12  H   UNL     1       3.436   5.813  21.363  0.00  0.00    +0.000 HD
BRANCH  11  13
ATOM     13  S   UNL     1       2.433   4.236  20.103  0.00  0.00    +0.000 S 
ATOM     14  O   UNL     1       1.125   4.088  19.507  0.00  0.00    +0.000 OA
ATOM     15  O   UNL     1       2.939   3.257  21.043  0.00  0.00    +0.000 OA
BRANCH  13  18
ATOM     16  C   UNL     1       2.195   3.563  16.703  0.00  0.00    +0.000 C 
ATOM     17  C   UNL     1       3.464   3.988  17.375  0.00  0.00    +0.000 A 
ATOM     18  C   UNL     1       3.598   4.262  18.730  0.00  0.00    +0.000 A 
ATOM     19  S   UNL     1       5.177   4.781  19.117  0.00  0.00    +0.000 S 
ATOM     20  C   UNL     1       5.748   4.570  17.514  0.00  0.00    +0.000 A 
ATOM     21  C   UNL     1       7.060   4.777  17.048  0.00  0.00    +0.000 A 
ATOM     22  C   UNL     1       7.345   4.565  15.696  0.00  0.00    +0.000 A 
ATOM     23  C   UNL     1       6.338   4.161  14.828  0.00  0.00    +0.000 A 
ATOM     24 CL   UNL     1       6.697   3.904  13.166  0.00  0.00    +0.000 Cl
ATOM     25  C   UNL     1       5.034   3.958  15.294  0.00  0.00    +0.000 A 
ATOM     26  C   UNL     1       4.718   4.151  16.663  0.00  0.00    +0.000 A 
ENDBRANCH  13  18
ENDBRANCH  11  13
ENDBRANCH   1  11
BRANCH   7  27
ATOM     27  C   UNL     1      -0.389  10.505  21.677  0.00  0.00    +0.000 C 
BRANCH  27  28
ATOM     28  C   UNL     1      -0.980  11.922  21.757  0.00  0.00    +0.000 C 
BRANCH  28  29
ATOM     29  N   UNL     1      -1.414  12.363  23.099  0.00  0.00    +0.000 NA
ATOM     30  C   UNL     1      -2.832  12.065  23.402  0.00  0.00    +0.000 C 
ATOM     31  C   UNL     1      -3.822  12.885  22.560  0.00  0.00    +0.000 C 
ATOM     32  O   UNL     1      -3.613  14.290  22.752  0.00  0.00    +0.000 OA
ATOM     33  C   UNL     1      -2.265  14.659  22.432  0.00  0.00    +0.000 C 
ATOM     34  C   UNL     1      -1.238  13.832  23.233  0.00  0.00    +0.000 C 
ENDBRANCH  28  29
ENDBRANCH  27  28
ENDBRANCH   7  27
TORSDOF 6
ENDMDL
MODEL 2
REMARK VINA RESULT:      -8.8      4.779     11.092
REMARK  Name = 
REMARK  7 active torsions:
REMARK  status: ('A' for Active; 'I' for Inactive)
REMARK    1  A    between atoms: C_1  and  C_2
REMARK    2  A    between atoms: C_3  and  S_4
REMARK    3  A    between atoms: S_4  and  N_7
REMARK    4  A    between atoms: N_7  and  C_8
REMARK    5  A    between atoms: C_14  and  C_15
REMARK    6  A    between atoms: C_15  and  C_16
REMARK    7  A    between atoms: C_16  and  N_17
REMARK                            x       y       z     vdW  Elec       q    Type
REMARK                         _______ _______ _______ _____ _____    ______ ____
ROOT
ATOM      1  C   UNL     1       0.695   9.801  19.514  0.00  0.00    +0.000 A 
ATOM      2  C   UNL     1       0.341   9.272  20.752  0.00  0.00    +0.000 A 
ATOM      3  C   UNL     1       0.865   8.048  21.187  0.00  0.00    +0.000 A 
ATOM      4  C   UNL     1       1.770   7.395  20.343  0.00  0.00    +0.000 A 
ATOM      5  N   UNL     1       2.421   6.194  20.500  0.00  0.00    +0.000 N 
ATOM      6  C   UNL     1       3.229   5.952  19.422  0.00  0.00    +0.000 A 
ATOM      7  C   UNL     1       3.112   7.006  18.535  0.00  0.00    +0.000 A 
ATOM      8  C   UNL     1       2.171   7.919  19.113  0.00  0.00    +0.000 A 
ATOM      9  C   UNL     1       1.620   9.148  18.693  0.00  0.00    +0.000 A 
ATOM     10  H   UNL     1       2.311   5.580  21.294  0.00  0.00    +0.000 HD
ENDROOT
BRANCH   1  11
ATOM     11  N   UNL     1       0.142  11.047  19.093  0.00  0.00    +0.000 N 
ATOM     12  H   UNL     1       0.402  11.341  18.153  0.00  0.00    +0.000 HD
BRANCH  11  13
ATOM     13  S   UNL     1       0.276  12.360  20.160  0.00  0.00    +0.000 S 
ATOM     14  O   UNL     1       0.429  13.586  19.409  0.00  0.00    +0.000 OA
ATOM     15  O   UNL     1       1.252  11.970  21.156  0.00  0.00    +0.000 OA
BRANCH  13  18
ATOM     16  C   UNL     1      -3.056  12.280  19.181  0.00  0.00    +0.000 C 
ATOM     17  C   UNL     1      -2.615  12.468  20.600  0.00  0.00    +0.000 A 
ATOM     18  C   UNL     1      -1.294  12.508  21.028  0.00  0.00    +0.000 A 
ATOM     19  S   UNL     1      -1.184  12.669  22.723  0.00  0.00    +0.000 S 
ATOM     20  C   UNL     1      -2.883  12.779  22.925  0.00  0.00    +0.000 A 
ATOM     21  C   UNL     1      -3.582  12.977  24.131  0.00  0.00    +0.000 A 
ATOM     22  C   UNL     1      -4.978  13.031  24.109  0.00  0.00    +0.000 A 
ATOM     23  C   UNL     1      -5.661  12.883  22.908  0.00  0.00    +0.000 A 
ATOM     24 CL   UNL     1      -7.380  12.949  22.890  0.00  0.00    +0.000 Cl
ATOM     25  C   UNL     1      -4.964  12.685  21.711  0.00  0.00    +0.000 A 
ATOM     26  C   UNL     1      -3.546  12.640  21.699  0.00  0.00    +0.000 A 
ENDBRANCH  13  18
ENDBRANCH  11  13
ENDBRANCH   1  11
BRANCH   7  27
ATOM     27  C   UNL     1       3.814   7.185  17.215  0.00  0.00    +0.000 C 
BRANCH  27  28
ATOM     28  C   UNL     1       4.736   6.009  16.853  0.00  0.00    +0.000 C 
BRANCH  28  29
ATOM     29  N   UNL     1       6.038   6.374  16.257  0.00  0.00    +0.000 NA
ATOM     30  C   UNL     1       6.558   5.384  15.288  0.00  0.00    +0.000 C 
ATOM     31  C   UNL     1       6.967   4.052  15.936  0.00  0.00    +0.000 C 
ATOM     32  O   UNL     1       7.970   4.258  16.939  0.00  0.00    +0.000 OA
ATOM     33  C   UNL     1       7.515   5.179  17.940  0.00  0.00    +0.000 C 
ATOM     34  C   UNL     1       7.061   6.519  17.325  0.00  0.00    +0.000 C 
ENDBRANCH  28  29
ENDBRANCH  27  28
ENDBRANCH   7  27
TORSDOF 6
ENDMDL
MODEL 3
REMARK VINA RESULT:      -8.8      3.594      5.604
REMARK  Name = 
REMARK  7 active torsions:
REMARK  status: ('A' for Active; 'I' for Inactive)
REMARK    1  A    between atoms: C_1  and  C_2
REMARK    2  A    between atoms: C_3  and  S_4
REMARK    3  A    between atoms: S_4  and  N_7
REMARK    4  A    between atoms: N_7  and  C_8
REMARK    5  A    between atoms: C_14  and  C_15
REMARK    6  A    between atoms: C_15  and  C_16
REMARK    7  A    between atoms: C_16  and  N_17
REMARK                            x       y       z     vdW  Elec       q    Type
REMARK                         _______ _______ _______ _____ _____    ______ ____
ROOT
ATOM      1  C   UNL     1      -1.527  11.371  18.743  0.00  0.00    +0.000 A 
ATOM      2  C   UNL     1      -1.683  10.352  17.807  0.00  0.00    +0.000 A 
ATOM      3  C   UNL     1      -2.952  10.008  17.324  0.00  0.00    +0.000 A 
ATOM      4  C   UNL     1      -4.045  10.740  17.799  0.00  0.00    +0.000 A 
ATOM      5  N   UNL     1      -5.386  10.615  17.517  0.00  0.00    +0.000 N 
ATOM      6  C   UNL     1      -6.101  11.559  18.203  0.00  0.00    +0.000 A 
ATOM      7  C   UNL     1      -5.225  12.320  18.953  0.00  0.00    +0.000 A 
ATOM      8  C   UNL     1      -3.916  11.789  18.709  0.00  0.00    +0.000 A 
ATOM      9  C   UNL     1      -2.628  12.110  19.189  0.00  0.00    +0.000 A 
ATOM     10  H   UNL     1      -5.781   9.922  16.897  0.00  0.00    +0.000 HD
ENDROOT
BRANCH   1  11
ATOM     11  N   UNL     1      -0.224  11.698  19.223  0.00  0.00    +0.000 N 
ATOM     12  H   UNL     1       0.514  11.678  18.521  0.00  0.00    +0.000 HD
BRANCH  11  13
ATOM     13  S   UNL     1       0.307  10.918  20.633  0.00  0.00    +0.000 S 
ATOM     14  O   UNL     1      -0.829  10.573  21.458  0.00  0.00    +0.000 OA
ATOM     15  O   UNL     1       1.390  11.725  21.156  0.00  0.00    +0.000 OA
BRANCH  13  18
ATOM     16  C   UNL     1       2.005   9.826  17.806  0.00  0.00    +0.000 C 
ATOM     17  C   UNL     1       1.722   8.953  18.988  0.00  0.00    +0.000 A 
ATOM     18  C   UNL     1       1.044   9.353  20.133  0.00  0.00    +0.000 A 
ATOM     19  S   UNL     1       0.972   8.103  21.294  0.00  0.00    +0.000 S 
ATOM     20  C   UNL     1       1.759   6.973  20.274  0.00  0.00    +0.000 A 
ATOM     21  C   UNL     1       2.033   5.621  20.559  0.00  0.00    +0.000 A 
ATOM     22  C   UNL     1       2.697   4.844  19.606  0.00  0.00    +0.000 A 
ATOM     23  C   UNL     1       3.086   5.408  18.397  0.00  0.00    +0.000 A 
ATOM     24 CL   UNL     1       3.905   4.445  17.231  0.00  0.00    +0.000 Cl
ATOM     25  C   UNL     1       2.814   6.752  18.117  0.00  0.00    +0.000 A 
ATOM     26  C   UNL     1       2.128   7.562  19.058  0.00  0.00    +0.000 A 
ENDBRANCH  13  18
ENDBRANCH  11  13
ENDBRANCH   1  11
BRANCH   7  27
ATOM     27  C   UNL     1      -5.549  13.478  19.861  0.00  0.00    +0.000 C 
BRANCH  27  28
ATOM     28  C   UNL     1      -5.741  13.063  21.329  0.00  0.00    +0.000 C 
BRANCH  28  29
ATOM     29  N   UNL     1      -5.099  13.937  22.332  0.00  0.00    +0.000 NA
ATOM     30  C   UNL     1      -3.660  13.660  22.543  0.00  0.00    +0.000 C 
ATOM     31  C   UNL     1      -3.392  12.304  23.214  0.00  0.00    +0.000 C 
ATOM     32  O   UNL     1      -4.049  12.225  24.486  0.00  0.00    +0.000 OA
ATOM     33  C   UNL     1      -5.460  12.442  24.350  0.00  0.00    +0.000 C 
ATOM     34  C   UNL     1      -5.771  13.779  23.648  0.00  0.00    +0.000 C 
ENDBRANCH  28  29
ENDBRANCH  27  28
ENDBRANCH   7  27
TORSDOF 6
ENDMDL
MODEL 4
REMARK VINA RESULT:      -8.8      4.837     11.060
REMARK  Name = 
REMARK  7 active torsions:
REMARK  status: ('A' for Active; 'I' for Inactive)
REMARK    1  A    between atoms: C_1  and  C_2
REMARK    2  A    between atoms: C_3  and  S_4
REMARK    3  A    between atoms: S_4  and  N_7
REMARK    4  A    between atoms: N_7  and  C_8
REMARK    5  A    between atoms: C_14  and  C_15
REMARK    6  A    between atoms: C_15  and  C_16
REMARK    7  A    between atoms: C_16  and  N_17
REMARK                            x       y       z     vdW  Elec       q    Type
REMARK                         _______ _______ _______ _____ _____    ______ ____
ROOT
ATOM      1  C   UNL     1       0.581  10.104  19.058  0.00  0.00    +0.000 A 
ATOM      2  C   UNL     1       0.247   9.783  20.371  0.00  0.00    +0.000 A 
ATOM      3  C   UNL     1       0.758   8.631  20.981  0.00  0.00    +0.000 A 
ATOM      4  C   UNL     1       1.629   7.834  20.231  0.00  0.00    +0.000 A 
ATOM      5  N   UNL     1       2.260   6.657  20.562  0.00  0.00    +0.000 N 
ATOM      6  C   UNL     1       3.038   6.230  19.519  0.00  0.00    +0.000 A 
ATOM      7  C   UNL     1       2.920   7.135  18.480  0.00  0.00    +0.000 A 
ATOM      8  C   UNL     1       2.011   8.148  18.927  0.00  0.00    +0.000 A 
ATOM      9  C   UNL     1       1.474   9.310  18.331  0.00  0.00    +0.000 A 
ATOM     10  H   UNL     1       2.158   6.178  21.445  0.00  0.00    +0.000 HD
ENDROOT
BRANCH   1  11
ATOM     11  N   UNL     1       0.043  11.281  18.457  0.00  0.00    +0.000 N 
ATOM     12  H   UNL     1       0.228  11.383  17.461  0.00  0.00    +0.000 HD
BRANCH  11  13
ATOM     13  S   UNL     1       0.326  12.757  19.245  0.00  0.00    +0.000 S 
ATOM     14  O   UNL     1       0.132  13.850  18.320  0.00  0.00    +0.000 OA
ATOM     15  O   UNL     1       1.575  12.599  19.960  0.00  0.00    +0.000 OA
BRANCH  13  18
ATOM     16  C   UNL     1      -3.084  12.103  19.362  0.00  0.00    +0.000 C 
ATOM     17  C   UNL     1      -2.311  12.669  20.513  0.00  0.00    +0.000 A 
ATOM     18  C   UNL     1      -0.950  12.946  20.502  0.00  0.00    +0.000 A 
ATOM     19  S   UNL     1      -0.410  13.519  22.017  0.00  0.00    +0.000 S 
ATOM     20  C   UNL     1      -1.983  13.498  22.699  0.00  0.00    +0.000 A 
ATOM     21  C   UNL     1      -2.349  13.907  23.996  0.00  0.00    +0.000 A 
ATOM     22  C   UNL     1      -3.686  13.810  24.389  0.00  0.00    +0.000 A 
ATOM     23  C   UNL     1      -4.636  13.309  23.507  0.00  0.00    +0.000 A 
ATOM     24 CL   UNL     1      -6.280  13.191  23.999  0.00  0.00    +0.000 Cl
ATOM     25  C   UNL     1      -4.269  12.902  22.219  0.00  0.00    +0.000 A 
ATOM     26  C   UNL     1      -2.922  13.003  21.786  0.00  0.00    +0.000 A 
ENDBRANCH  13  18
ENDBRANCH  11  13
ENDBRANCH   1  11
BRANCH   7  27
ATOM     27  C   UNL     1       3.593   7.089  17.134  0.00  0.00    +0.000 C 
BRANCH  27  28
ATOM     28  C   UNL     1       5.011   6.497  17.184  0.00  0.00    +0.000 C 
BRANCH  28  29
ATOM     29  N   UNL     1       5.102   5.030  17.032  0.00  0.00    +0.000 NA
ATOM     30  C   UNL     1       6.013   4.378  17.998  0.00  0.00    +0.000 C 
ATOM     31  C   UNL     1       7.493   4.724  17.770  0.00  0.00    +0.000 C 
ATOM     32  O   UNL     1       7.907   4.351  16.449  0.00  0.00    +0.000 OA
ATOM     33  C   UNL     1       7.090   4.985  15.456  0.00  0.00    +0.000 C 
ATOM     34  C   UNL     1       5.591   4.691  15.671  0.00  0.00    +0.000 C 
ENDBRANCH  28  29
ENDBRANCH  27  28
ENDBRANCH   7  27
TORSDOF 6
ENDMDL
MODEL 5
REMARK VINA RESULT:      -8.7      5.005     11.159
REMARK  Name = 
REMARK  7 active torsions:
REMARK  status: ('A' for Active; 'I' for Inactive)
REMARK    1  A    between atoms: C_1  and  C_2
REMARK    2  A    between atoms: C_3  and  S_4
REMARK    3  A    between atoms: S_4  and  N_7
REMARK    4  A    between atoms: N_7  and  C_8
REMARK    5  A    between atoms: C_14  and  C_15
REMARK    6  A    between atoms: C_15  and  C_16
REMARK    7  A    between atoms: C_16  and  N_17
REMARK                            x       y       z     vdW  Elec       q    Type
REMARK                         _______ _______ _______ _____ _____    ______ ____
ROOT
ATOM      1  C   UNL     1       0.563  10.225  19.892  0.00  0.00    +0.000 A 
ATOM      2  C   UNL     1       0.126   9.673  21.092  0.00  0.00    +0.000 A 
ATOM      3  C   UNL     1       0.514   8.381  21.472  0.00  0.00    +0.000 A 
ATOM      4  C   UNL     1       1.371   7.685  20.613  0.00  0.00    +0.000 A 
ATOM      5  N   UNL     1       1.894   6.417  20.720  0.00  0.00    +0.000 N 
ATOM      6  C   UNL     1       2.702   6.149  19.648  0.00  0.00    +0.000 A 
ATOM      7  C   UNL     1       2.714   7.253  18.816  0.00  0.00    +0.000 A 
ATOM      8  C   UNL     1       1.854   8.226  19.422  0.00  0.00    +0.000 A 
ATOM      9  C   UNL     1       1.440   9.525  19.057  0.00  0.00    +0.000 A 
ATOM     10  H   UNL     1       1.703   5.778  21.478  0.00  0.00    +0.000 HD
ENDROOT
BRANCH   1  11
ATOM     11  N   UNL     1       0.149  11.541  19.526  0.00  0.00    +0.000 N 
ATOM     12  H   UNL     1       0.034  12.191  20.302  0.00  0.00    +0.000 HD
BRANCH  11  13
ATOM     13  S   UNL     1      -1.172  11.677  18.468  0.00  0.00    +0.000 S 
ATOM     14  O   UNL     1      -1.440  10.396  17.855  0.00  0.00    +0.000 OA
ATOM     15  O   UNL     1      -0.920  12.852  17.660  0.00  0.00    +0.000 OA
BRANCH  13  18
ATOM     16  C   UNL     1      -1.653  12.947  21.665  0.00  0.00    +0.000 C 
ATOM     17  C   UNL     1      -2.775  12.570  20.748  0.00  0.00    +0.000 A 
ATOM     18  C   UNL     1      -2.621  12.057  19.467  0.00  0.00    +0.000 A 
ATOM     19  S   UNL     1      -4.126  11.810  18.700  0.00  0.00    +0.000 S 
ATOM     20  C   UNL     1      -5.022  12.293  20.080  0.00  0.00    +0.000 A 
ATOM     21  C   UNL     1      -6.423  12.310  20.217  0.00  0.00    +0.000 A 
ATOM     22  C   UNL     1      -6.986  12.747  21.419  0.00  0.00    +0.000 A 
ATOM     23  C   UNL     1      -6.165  13.165  22.459  0.00  0.00    +0.000 A 
ATOM     24 CL   UNL     1      -6.866  13.703  23.935  0.00  0.00    +0.000 Cl
ATOM     25  C   UNL     1      -4.772  13.148  22.320  0.00  0.00    +0.000 A 
ATOM     26  C   UNL     1      -4.172  12.696  21.117  0.00  0.00    +0.000 A 
ENDBRANCH  13  18
ENDBRANCH  11  13
ENDBRANCH   1  11
BRANCH   7  27
ATOM     27  C   UNL     1       3.464   7.428  17.522  0.00  0.00    +0.000 C 
BRANCH  27  28
ATOM     28  C   UNL     1       4.436   6.275  17.223  0.00  0.00    +0.000 C 
BRANCH  28  29
ATOM     29  N   UNL     1       5.618   6.625  16.408  0.00  0.00    +0.000 NA
ATOM     30  C   UNL     1       5.993   5.595  15.414  0.00  0.00    +0.000 C 
ATOM     31  C   UNL     1       6.528   4.301  16.050  0.00  0.00    +0.000 C 
ATOM     32  O   UNL     1       7.676   4.569  16.865  0.00  0.00    +0.000 OA
ATOM     33  C   UNL     1       7.371   5.533  17.882  0.00  0.00    +0.000 C 
ATOM     34  C   UNL     1       6.797   6.835  17.287  0.00  0.00    +0.000 C 
ENDBRANCH  28  29
ENDBRANCH  27  28
ENDBRANCH   7  27
TORSDOF 6
ENDMDL
MODEL 6
REMARK VINA RESULT:      -8.5      4.775     11.110
REMARK  Name = 
REMARK  7 active torsions:
REMARK  status: ('A' for Active; 'I' for Inactive)
REMARK    1  A    between atoms: C_1  and  C_2
REMARK    2  A    between atoms: C_3  and  S_4
REMARK    3  A    between atoms: S_4  and  N_7
REMARK    4  A    between atoms: N_7  and  C_8
REMARK    5  A    between atoms: C_14  and  C_15
REMARK    6  A    between atoms: C_15  and  C_16
REMARK    7  A    between atoms: C_16  and  N_17
REMARK                            x       y       z     vdW  Elec       q    Type
REMARK                         _______ _______ _______ _____ _____    ______ ____
ROOT
ATOM      1  C   UNL     1       1.004  10.110  19.480  0.00  0.00    +0.000 A 
ATOM      2  C   UNL     1       0.625   9.780  20.777  0.00  0.00    +0.000 A 
ATOM      3  C   UNL     1       0.926   8.522  21.315  0.00  0.00    +0.000 A 
ATOM      4  C   UNL     1       1.639   7.627  20.510  0.00  0.00    +0.000 A 
ATOM      5  N   UNL     1       2.053   6.341  20.765  0.00  0.00    +0.000 N 
ATOM      6  C   UNL     1       2.737   5.844  19.689  0.00  0.00    +0.000 A 
ATOM      7  C   UNL     1       2.776   6.813  18.703  0.00  0.00    +0.000 A 
ATOM      8  C   UNL     1       2.063   7.944  19.219  0.00  0.00    +0.000 A 
ATOM      9  C   UNL     1       1.738   9.214  18.696  0.00  0.00    +0.000 A 
ATOM     10  H   UNL     1       1.871   5.838  21.622  0.00  0.00    +0.000 HD
ENDROOT
BRANCH   1  11
ATOM     11  N   UNL     1       0.681  11.397  18.954  0.00  0.00    +0.000 N 
ATOM     12  H   UNL     1       1.209  12.172  19.348  0.00  0.00    +0.000 HD
BRANCH  11  13
ATOM     13  S   UNL     1      -0.963  11.812  18.866  0.00  0.00    +0.000 S 
ATOM     14  O   UNL     1      -1.767  10.614  18.792  0.00  0.00    +0.000 OA
ATOM     15  O   UNL     1      -1.064  12.841  17.851  0.00  0.00    +0.000 OA
BRANCH  13  18
ATOM     16  C   UNL     1       0.822  13.530  21.301  0.00  0.00    +0.000 C 
ATOM     17  C   UNL     1      -0.653  13.286  21.376  0.00  0.00    +0.000 A 
ATOM     18  C   UNL     1      -1.399  12.601  20.424  0.00  0.00    +0.000 A 
ATOM     19  S   UNL     1      -3.060  12.581  20.818  0.00  0.00    +0.000 S 
ATOM     20  C   UNL     1      -2.821  13.402  22.304  0.00  0.00    +0.000 A 
ATOM     21  C   UNL     1      -3.803  13.725  23.261  0.00  0.00    +0.000 A 
ATOM     22  C   UNL     1      -3.427  14.410  24.419  0.00  0.00    +0.000 A 
ATOM     23  C   UNL     1      -2.099  14.771  24.613  0.00  0.00    +0.000 A 
ATOM     24 CL   UNL     1      -1.645  15.617  26.041  0.00  0.00    +0.000 Cl
ATOM     25  C   UNL     1      -1.125  14.450  23.661  0.00  0.00    +0.000 A 
ATOM     26  C   UNL     1      -1.475  13.742  22.482  0.00  0.00    +0.000 A 
ENDBRANCH  13  18
ENDBRANCH  11  13
ENDBRANCH   1  11
BRANCH   7  27
ATOM     27  C   UNL     1       3.424   6.726  17.347  0.00  0.00    +0.000 C 
BRANCH  27  28
ATOM     28  C   UNL     1       4.894   6.279  17.403  0.00  0.00    +0.000 C 
BRANCH  28  29
ATOM     29  N   UNL     1       5.123   4.819  17.377  0.00  0.00    +0.000 NA
ATOM     30  C   UNL     1       6.186   4.358  18.298  0.00  0.00    +0.000 C 
ATOM     31  C   UNL     1       7.593   4.819  17.887  0.00  0.00    +0.000 C 
ATOM     32  O   UNL     1       7.917   4.356  16.570  0.00  0.00    +0.000 OA
ATOM     33  C   UNL     1       6.948   4.805  15.614  0.00  0.00    +0.000 C 
ATOM     34  C   UNL     1       5.516   4.392  16.009  0.00  0.00    +0.000 C 
ENDBRANCH  28  29
ENDBRANCH  27  28
ENDBRANCH   7  27
TORSDOF 6
ENDMDL
MODEL 7
REMARK VINA RESULT:      -8.5      4.852     10.529
REMARK  Name = 
REMARK  7 active torsions:
REMARK  status: ('A' for Active; 'I' for Inactive)
REMARK    1  A    between atoms: C_1  and  C_2
REMARK    2  A    between atoms: C_3  and  S_4
REMARK    3  A    between atoms: S_4  and  N_7
REMARK    4  A    between atoms: N_7  and  C_8
REMARK    5  A    between atoms: C_14  and  C_15
REMARK    6  A    between atoms: C_15  and  C_16
REMARK    7  A    between atoms: C_16  and  N_17
REMARK                            x       y       z     vdW  Elec       q    Type
REMARK                         _______ _______ _______ _____ _____    ______ ____
ROOT
ATOM      1  C   UNL     1       1.283   9.735  18.803  0.00  0.00    +0.000 A 
ATOM      2  C   UNL     1       0.773   9.541  20.083  0.00  0.00    +0.000 A 
ATOM      3  C   UNL     1       1.033   8.359  20.788  0.00  0.00    +0.000 A 
ATOM      4  C   UNL     1       1.839   7.399  20.167  0.00  0.00    +0.000 A 
ATOM      5  N   UNL     1       2.242   6.160  20.608  0.00  0.00    +0.000 N 
ATOM      6  C   UNL     1       3.043   5.564  19.672  0.00  0.00    +0.000 A 
ATOM      7  C   UNL     1       3.173   6.419  18.593  0.00  0.00    +0.000 A 
ATOM      8  C   UNL     1       2.394   7.581  18.901  0.00  0.00    +0.000 A 
ATOM      9  C   UNL     1       2.109   8.777  18.207  0.00  0.00    +0.000 A 
ATOM     10  H   UNL     1       1.977   5.750  21.493  0.00  0.00    +0.000 HD
ENDROOT
BRANCH   1  11
ATOM     11  N   UNL     1       0.999  10.946  18.104  0.00  0.00    +0.000 N 
ATOM     12  H   UNL     1       1.729  11.261  17.467  0.00  0.00    +0.000 HD
BRANCH  11  13
ATOM     13  S   UNL     1       0.434  12.260  19.018  0.00  0.00    +0.000 S 
ATOM     14  O   UNL     1       0.735  13.497  18.334  0.00  0.00    +0.000 OA
ATOM     15  O   UNL     1       0.885  12.030  20.375  0.00  0.00    +0.000 OA
BRANCH  13  18
ATOM     16  C   UNL     1      -2.021  13.425  21.183  0.00  0.00    +0.000 C 
ATOM     17  C   UNL     1      -2.317  12.632  19.948  0.00  0.00    +0.000 A 
ATOM     18  C   UNL     1      -1.363  12.148  19.061  0.00  0.00    +0.000 A 
ATOM     19  S   UNL     1      -2.081  11.349  17.735  0.00  0.00    +0.000 S 
ATOM     20  C   UNL     1      -3.670  11.547  18.347  0.00  0.00    +0.000 A 
ATOM     21  C   UNL     1      -4.865  11.073  17.771  0.00  0.00    +0.000 A 
ATOM     22  C   UNL     1      -6.080  11.338  18.407  0.00  0.00    +0.000 A 
ATOM     23  C   UNL     1      -6.102  12.067  19.590  0.00  0.00    +0.000 A 
ATOM     24 CL   UNL     1      -7.603  12.390  20.366  0.00  0.00    +0.000 Cl
ATOM     25  C   UNL     1      -4.913  12.538  20.160  0.00  0.00    +0.000 A 
ATOM     26  C   UNL     1      -3.663  12.272  19.544  0.00  0.00    +0.000 A 
ENDBRANCH  13  18
ENDBRANCH  11  13
ENDBRANCH   1  11
BRANCH   7  27
ATOM     27  C   UNL     1       3.962   6.198  17.329  0.00  0.00    +0.000 C 
BRANCH  27  28
ATOM     28  C   UNL     1       5.194   7.111  17.216  0.00  0.00    +0.000 C 
BRANCH  28  29
ATOM     29  N   UNL     1       6.390   6.503  16.596  0.00  0.00    +0.000 NA
ATOM     30  C   UNL     1       6.414   5.024  16.654  0.00  0.00    +0.000 C 
ATOM     31  C   UNL     1       6.586   4.472  18.077  0.00  0.00    +0.000 C 
ATOM     32  O   UNL     1       7.797   4.957  18.670  0.00  0.00    +0.000 OA
ATOM     33  C   UNL     1       7.823   6.391  18.688  0.00  0.00    +0.000 C 
ATOM     34  C   UNL     1       7.617   6.987  17.280  0.00  0.00    +0.000 C 
ENDBRANCH  28  29
ENDBRANCH  27  28
ENDBRANCH   7  27
TORSDOF 6
ENDMDL
MODEL 8
REMARK VINA RESULT:      -8.5      4.651     10.145
REMARK  Name = 
REMARK  7 active torsions:
REMARK  status: ('A' for Active; 'I' for Inactive)
REMARK    1  A    between atoms: C_1  and  C_2
REMARK    2  A    between atoms: C_3  and  S_4
REMARK    3  A    between atoms: S_4  and  N_7
REMARK    4  A    between atoms: N_7  and  C_8
REMARK    5  A    between atoms: C_14  and  C_15
REMARK    6  A    between atoms: C_15  and  C_16
REMARK    7  A    between atoms: C_16  and  N_17
REMARK                            x       y       z     vdW  Elec       q    Type
REMARK                         _______ _______ _______ _____ _____    ______ ____
ROOT
ATOM      1  C   UNL     1       1.616   9.105  18.780  0.00  0.00    +0.000 A 
ATOM      2  C   UNL     1       1.155   9.115  20.093  0.00  0.00    +0.000 A 
ATOM      3  C   UNL     1       1.255   7.973  20.898  0.00  0.00    +0.000 A 
ATOM      4  C   UNL     1       1.854   6.839  20.341  0.00  0.00    +0.000 A 
ATOM      5  N   UNL     1       2.070   5.593  20.883  0.00  0.00    +0.000 N 
ATOM      6  C   UNL     1       2.706   4.789  19.976  0.00  0.00    +0.000 A 
ATOM      7  C   UNL     1       2.914   5.509  18.815  0.00  0.00    +0.000 A 
ATOM      8  C   UNL     1       2.357   6.810  19.040  0.00  0.00    +0.000 A 
ATOM      9  C   UNL     1       2.235   7.971  18.246  0.00  0.00    +0.000 A 
ATOM     10  H   UNL     1       1.792   5.315  21.813  0.00  0.00    +0.000 HD
ENDROOT
BRANCH   1  11
ATOM     11  N   UNL     1       1.497  10.280  17.979  0.00  0.00    +0.000 N 
ATOM     12  H   UNL     1       2.268  10.445  17.335  0.00  0.00    +0.000 HD
BRANCH  11  13
ATOM     13  S   UNL     1       1.094  11.726  18.771  0.00  0.00    +0.000 S 
ATOM     14  O   UNL     1       1.481  12.854  17.955  0.00  0.00    +0.000 OA
ATOM     15  O   UNL     1       1.577  11.588  20.129  0.00  0.00    +0.000 OA
BRANCH  13  18
ATOM     16  C   UNL     1      -1.502  10.084  17.149  0.00  0.00    +0.000 C 
ATOM     17  C   UNL     1      -1.714  11.115  18.214  0.00  0.00    +0.000 A 
ATOM     18  C   UNL     1      -0.702  11.794  18.881  0.00  0.00    +0.000 A 
ATOM     19  S   UNL     1      -1.325  12.843  20.075  0.00  0.00    +0.000 S 
ATOM     20  C   UNL     1      -2.955  12.491  19.677  0.00  0.00    +0.000 A 
ATOM     21  C   UNL     1      -4.109  13.054  20.255  0.00  0.00    +0.000 A 
ATOM     22  C   UNL     1      -5.367  12.639  19.811  0.00  0.00    +0.000 A 
ATOM     23  C   UNL     1      -5.469  11.675  18.815  0.00  0.00    +0.000 A 
ATOM     24 CL   UNL     1      -7.021  11.167  18.275  0.00  0.00    +0.000 Cl
ATOM     25  C   UNL     1      -4.321  11.115  18.243  0.00  0.00    +0.000 A 
ATOM     26  C   UNL     1      -3.030  11.528  18.663  0.00  0.00    +0.000 A 
ENDBRANCH  13  18
ENDBRANCH  11  13
ENDBRANCH   1  11
BRANCH   7  27
ATOM     27  C   UNL     1       3.581   5.046  17.547  0.00  0.00    +0.000 C 
BRANCH  27  28
ATOM     28  C   UNL     1       4.958   4.405  17.785  0.00  0.00    +0.000 C 
BRANCH  28  29
ATOM     29  N   UNL     1       5.994   4.713  16.777  0.00  0.00    +0.000 NA
ATOM     30  C   UNL     1       7.381   4.561  17.270  0.00  0.00    +0.000 C 
ATOM     31  C   UNL     1       7.770   5.608  18.326  0.00  0.00    +0.000 C 
ATOM     32  O   UNL     1       7.628   6.936  17.806  0.00  0.00    +0.000 OA
ATOM     33  C   UNL     1       6.289   7.167  17.348  0.00  0.00    +0.000 C 
ATOM     34  C   UNL     1       5.846   6.115  16.310  0.00  0.00    +0.000 C 
ENDBRANCH  28  29
ENDBRANCH  27  28
ENDBRANCH   7  27
TORSDOF 6
ENDMDL
MODEL 9
REMARK VINA RESULT:      -8.5      4.870     11.234
REMARK  Name = 
REMARK  7 active torsions:
REMARK  status: ('A' for Active; 'I' for Inactive)
REMARK    1  A    between atoms: C_1  and  C_2
REMARK    2  A    between atoms: C_3  and  S_4
REMARK    3  A    between atoms: S_4  and  N_7
REMARK    4  A    between atoms: N_7  and  C_8
REMARK    5  A    between atoms: C_14  and  C_15
REMARK    6  A    between atoms: C_15  and  C_16
REMARK    7  A    between atoms: C_16  and  N_17
REMARK                            x       y       z     vdW  Elec       q    Type
REMARK                         _______ _______ _______ _____ _____    ______ ____
ROOT
ATOM      1  C   UNL     1       0.705  10.153  19.598  0.00  0.00    +0.000 A 
ATOM      2  C   UNL     1       0.302   9.698  20.850  0.00  0.00    +0.000 A 
ATOM      3  C   UNL     1       0.699   8.439  21.320  0.00  0.00    +0.000 A 
ATOM      4  C   UNL     1       1.531   7.675  20.495  0.00  0.00    +0.000 A 
ATOM      5  N   UNL     1       2.057   6.418  20.687  0.00  0.00    +0.000 N 
ATOM      6  C   UNL     1       2.834   6.064  19.617  0.00  0.00    +0.000 A 
ATOM      7  C   UNL     1       2.822   7.099  18.700  0.00  0.00    +0.000 A 
ATOM      8  C   UNL     1       1.980   8.119  19.252  0.00  0.00    +0.000 A 
ATOM      9  C   UNL     1       1.557   9.387  18.797  0.00  0.00    +0.000 A 
ATOM     10  H   UNL     1       1.886   5.841  21.498  0.00  0.00    +0.000 HD
ENDROOT
BRANCH   1  11
ATOM     11  N   UNL     1       0.281  11.436  19.141  0.00  0.00    +0.000 N 
ATOM     12  H   UNL     1       0.742  11.770  18.297  0.00  0.00    +0.000 HD
BRANCH  11  13
ATOM     13  S   UNL     1       0.211  12.688  20.286  0.00  0.00    +0.000 S 
ATOM     14  O   UNL     1       0.462  13.956  19.640  0.00  0.00    +0.000 OA
ATOM     15  O   UNL     1       1.016  12.251  21.408  0.00  0.00    +0.000 OA
BRANCH  13  18
ATOM     16  C   UNL     1      -1.259  13.636  23.287  0.00  0.00    +0.000 C 
ATOM     17  C   UNL     1      -2.037  13.159  22.100  0.00  0.00    +0.000 A 
ATOM     18  C   UNL     1      -1.484  12.770  20.887  0.00  0.00    +0.000 A 
ATOM     19  S   UNL     1      -2.687  12.353  19.749  0.00  0.00    +0.000 S 
ATOM     20  C   UNL     1      -3.967  12.593  20.864  0.00  0.00    +0.000 A 
ATOM     21  C   UNL     1      -5.341  12.387  20.633  0.00  0.00    +0.000 A 
ATOM     22  C   UNL     1      -6.251  12.645  21.662  0.00  0.00    +0.000 A 
ATOM     23  C   UNL     1      -5.798  13.107  22.892  0.00  0.00    +0.000 A 
ATOM     24 CL   UNL     1      -6.926  13.424  24.152  0.00  0.00    +0.000 Cl
ATOM     25  C   UNL     1      -4.432  13.312  23.118  0.00  0.00    +0.000 A 
ATOM     26  C   UNL     1      -3.483  13.044  22.098  0.00  0.00    +0.000 A 
ENDBRANCH  13  18
ENDBRANCH  11  13
ENDBRANCH   1  11
BRANCH   7  27
ATOM     27  C   UNL     1       3.536   7.168  17.376  0.00  0.00    +0.000 C 
BRANCH  27  28
ATOM     28  C   UNL     1       4.942   6.547  17.410  0.00  0.00    +0.000 C 
BRANCH  28  29
ATOM     29  N   UNL     1       5.015   5.105  17.094  0.00  0.00    +0.000 NA
ATOM     30  C   UNL     1       5.915   4.337  17.982  0.00  0.00    +0.000 C 
ATOM     31  C   UNL     1       7.400   4.688  17.798  0.00  0.00    +0.000 C 
ATOM     32  O   UNL     1       7.814   4.461  16.445  0.00  0.00    +0.000 OA
ATOM     33  C   UNL     1       7.008   5.213  15.527  0.00  0.00    +0.000 C 
ATOM     34  C   UNL     1       5.505   4.915  15.704  0.00  0.00    +0.000 C 
ENDBRANCH  28  29
ENDBRANCH  27  28
ENDBRANCH   7  27
TORSDOF 6
ENDMDL
