MODEL 1
REMARK VINA RESULT:      -7.5      0.000      0.000
REMARK  Name = 
REMARK  7 active torsions:
REMARK  status: ('A' for Active; 'I' for Inactive)
REMARK    1  A    between atoms: C_1  and  O_2
REMARK    2  A    between atoms: O_2  and  C_3
REMARK    3  A    between atoms: C_5  and  O_6
REMARK    4  A    between atoms: O_6  and  C_7
REMARK    5  A    between atoms: C_9  and  C_10
REMARK    6  A    between atoms: C_15  and  C_16
REMARK    7  A    between atoms: N_18  and  C_19
REMARK                            x       y       z     vdW  Elec       q    Type
REMARK                         _______ _______ _______ _____ _____    ______ ____
ROOT
ATOM      1  C   UNL     1       3.070   7.535  17.946  0.00  0.00    +0.000 C 
ATOM      2  O   UNL     1       2.823   8.269  16.991  0.00  0.00    +0.000 OA
ATOM      3  N   UNL     1       2.471   7.579  19.184  0.00  0.00    +0.000 N 
ATOM      4  C   UNL     1       1.492   8.498  19.454  0.00  0.00    +0.000 A 
ATOM      5  N   UNL     1       0.803   9.242  18.625  0.00  0.00    +0.000 NA
ATOM      6  C   UNL     1      -0.044  10.085  19.343  0.00  0.00    +0.000 A 
ATOM      7  C   UNL     1       0.052   9.949  20.718  0.00  0.00    +0.000 A 
ATOM      8  S   UNL     1       1.154   8.696  21.114  0.00  0.00    +0.000 S 
ATOM      9  H   UNL     1       2.853   7.075  19.972  0.00  0.00    +0.000 HD
ENDROOT
BRANCH   1  14
ATOM     10  C   UNL     1       6.188   5.737  16.727  0.00  0.00    +0.000 A 
ATOM     11  C   UNL     1       6.245   4.702  17.670  0.00  0.00    +0.000 A 
ATOM     12  C   UNL     1       5.275   4.579  18.666  0.00  0.00    +0.000 A 
ATOM     13  C   UNL     1       4.250   5.516  18.729  0.00  0.00    +0.000 A 
ATOM     14  C   UNL     1       4.176   6.553  17.787  0.00  0.00    +0.000 A 
ATOM     15  C   UNL     1       5.143   6.664  16.781  0.00  0.00    +0.000 A 
BRANCH  10  17
ATOM     16  C   UNL     1       7.081   4.845  14.710  0.00  0.00    +0.000 C 
ATOM     17  O   UNL     1       7.207   5.730  15.815  0.00  0.00    +0.000 OA
ENDBRANCH  10  17
BRANCH  12  18
ATOM     18  O   UNL     1       5.433   3.514  19.510  0.00  0.00    +0.000 OA
ATOM     19  C   UNL     1       4.306   2.659  19.680  0.00  0.00    +0.000 C 
ENDBRANCH  12  18
ENDBRANCH   1  14
BRANCH   6  20
ATOM     20  C   UNL     1      -0.953  11.028  18.683  0.00  0.00    +0.000 C 
ATOM     21  O   UNL     1      -1.223  12.126  19.162  0.00  0.00    +0.000 OA
ATOM     22  N   UNL     1      -1.474  10.555  17.494  0.00  0.00    +0.000 N 
ATOM     23  H   UNL     1      -1.150   9.639  17.189  0.00  0.00    +0.000 HD
BRANCH  22  24
ATOM     24  C   UNL     1      -2.393  11.307  16.700  0.00  0.00    +0.000 C 
ATOM     25  C   UNL     1      -2.925  10.772  15.401  0.00  0.00    +0.000 C 
ATOM     26  C   UNL     1      -3.834  10.887  16.590  0.00  0.00    +0.000 C 
ENDBRANCH  22  24
ENDBRANCH   6  20
TORSDOF 5
ENDMDL
MODEL 2
REMARK VINA RESULT:      -7.3      2.073      8.314
REMARK  Name = 
REMARK  7 active torsions:
REMARK  status: ('A' for Active; 'I' for Inactive)
REMARK    1  A    between atoms: C_1  and  O_2
REMARK    2  A    between atoms: O_2  and  C_3
REMARK    3  A    between atoms: C_5  and  O_6
REMARK    4  A    between atoms: O_6  and  C_7
REMARK    5  A    between atoms: C_9  and  C_10
REMARK    6  A    between atoms: C_15  and  C_16
REMARK    7  A    between atoms: N_18  and  C_19
REMARK                            x       y       z     vdW  Elec       q    Type
REMARK                         _______ _______ _______ _____ _____    ______ ____
ROOT
ATOM      1  C   UNL     1       1.969   8.366  19.243  0.00  0.00    +0.000 C 
ATOM      2  O   UNL     1       2.631   8.525  18.219  0.00  0.00    +0.000 OA
ATOM      3  N   UNL     1       1.971   7.252  20.051  0.00  0.00    +0.000 N 
ATOM      4  C   UNL     1       2.768   6.177  19.755  0.00  0.00    +0.000 A 
ATOM      5  N   UNL     1       3.772   6.095  18.919  0.00  0.00    +0.000 NA
ATOM      6  C   UNL     1       4.251   4.786  18.887  0.00  0.00    +0.000 A 
ATOM      7  C   UNL     1       3.564   3.910  19.710  0.00  0.00    +0.000 A 
ATOM      8  S   UNL     1       2.358   4.749  20.594  0.00  0.00    +0.000 S 
ATOM      9  H   UNL     1       1.269   7.117  20.764  0.00  0.00    +0.000 HD
ENDROOT
BRANCH   1  14
ATOM     10  C   UNL     1      -0.713  11.055  19.092  0.00  0.00    +0.000 A 
ATOM     11  C   UNL     1      -0.814  11.361  20.455  0.00  0.00    +0.000 A 
ATOM     12  C   UNL     1      -0.009  10.723  21.400  0.00  0.00    +0.000 A 
ATOM     13  C   UNL     1       0.892   9.753  20.974  0.00  0.00    +0.000 A 
ATOM     14  C   UNL     1       1.008   9.441  19.611  0.00  0.00    +0.000 A 
ATOM     15  C   UNL     1       0.209  10.094  18.666  0.00  0.00    +0.000 A 
BRANCH  10  17
ATOM     16  C   UNL     1      -2.309  11.016  17.327  0.00  0.00    +0.000 C 
ATOM     17  O   UNL     1      -1.566  11.757  18.287  0.00  0.00    +0.000 OA
ENDBRANCH  10  17
BRANCH  12  18
ATOM     18  O   UNL     1      -0.190  11.128  22.694  0.00  0.00    +0.000 OA
ATOM     19  C   UNL     1      -1.535  11.318  23.123  0.00  0.00    +0.000 C 
ENDBRANCH  12  18
ENDBRANCH   1  14
BRANCH   6  20
ATOM     20  C   UNL     1       5.388   4.390  18.050  0.00  0.00    +0.000 C 
ATOM     21  O   UNL     1       6.504   4.173  18.515  0.00  0.00    +0.000 OA
ATOM     22  N   UNL     1       5.082   4.301  16.705  0.00  0.00    +0.000 N 
ATOM     23  H   UNL     1       4.113   4.478  16.448  0.00  0.00    +0.000 HD
BRANCH  22  24
ATOM     24  C   UNL     1       6.048   3.947  15.715  0.00  0.00    +0.000 C 
ATOM     25  C   UNL     1       5.735   4.038  14.248  0.00  0.00    +0.000 C 
ATOM     26  C   UNL     1       6.700   5.006  14.867  0.00  0.00    +0.000 C 
ENDBRANCH  22  24
ENDBRANCH   6  20
TORSDOF 5
ENDMDL
MODEL 3
REMARK VINA RESULT:      -7.3      2.180      8.587
REMARK  Name = 
REMARK  7 active torsions:
REMARK  status: ('A' for Active; 'I' for Inactive)
REMARK    1  A    between atoms: C_1  and  O_2
REMARK    2  A    between atoms: O_2  and  C_3
REMARK    3  A    between atoms: C_5  and  O_6
REMARK    4  A    between atoms: O_6  and  C_7
REMARK    5  A    between atoms: C_9  and  C_10
REMARK    6  A    between atoms: C_15  and  C_16
REMARK    7  A    between atoms: N_18  and  C_19
REMARK                            x       y       z     vdW  Elec       q    Type
REMARK                         _______ _______ _______ _____ _____    ______ ____
ROOT
ATOM      1  C   UNL     1       1.809   8.249  19.642  0.00  0.00    +0.000 C 
ATOM      2  O   UNL     1       2.466   8.459  18.624  0.00  0.00    +0.000 OA
ATOM      3  N   UNL     1       1.814   7.097  20.393  0.00  0.00    +0.000 N 
ATOM      4  C   UNL     1       2.608   6.038  20.040  0.00  0.00    +0.000 A 
ATOM      5  N   UNL     1       3.609   5.997  19.196  0.00  0.00    +0.000 NA
ATOM      6  C   UNL     1       4.087   4.691  19.096  0.00  0.00    +0.000 A 
ATOM      7  C   UNL     1       3.403   3.775  19.877  0.00  0.00    +0.000 A 
ATOM      8  S   UNL     1       2.201   4.570  20.808  0.00  0.00    +0.000 S 
ATOM      9  H   UNL     1       1.115   6.926  21.101  0.00  0.00    +0.000 HD
ENDROOT
BRANCH   1  14
ATOM     10  C   UNL     1      -0.193  10.715  21.730  0.00  0.00    +0.000 A 
ATOM     11  C   UNL     1      -0.901  11.364  20.710  0.00  0.00    +0.000 A 
ATOM     12  C   UNL     1      -0.748  10.990  19.374  0.00  0.00    +0.000 A 
ATOM     13  C   UNL     1       0.141   9.969  19.057  0.00  0.00    +0.000 A 
ATOM     14  C   UNL     1       0.851   9.305  20.068  0.00  0.00    +0.000 A 
ATOM     15  C   UNL     1       0.683   9.673  21.408  0.00  0.00    +0.000 A 
BRANCH  10  17
ATOM     16  C   UNL     1      -1.415  12.222  23.108  0.00  0.00    +0.000 C 
ATOM     17  O   UNL     1      -0.444  11.190  22.987  0.00  0.00    +0.000 OA
ENDBRANCH  10  17
BRANCH  12  18
ATOM     18  O   UNL     1      -1.512  11.688  18.479  0.00  0.00    +0.000 OA
ATOM     19  C   UNL     1      -2.048  10.951  17.383  0.00  0.00    +0.000 C 
ENDBRANCH  12  18
ENDBRANCH   1  14
BRANCH   6  20
ATOM     20  C   UNL     1       5.219   4.337  18.234  0.00  0.00    +0.000 C 
ATOM     21  O   UNL     1       6.342   4.117  18.681  0.00  0.00    +0.000 OA
ATOM     22  N   UNL     1       4.901   4.291  16.891  0.00  0.00    +0.000 N 
ATOM     23  H   UNL     1       3.927   4.465  16.649  0.00  0.00    +0.000 HD
BRANCH  22  24
ATOM     24  C   UNL     1       5.861   3.982  15.879  0.00  0.00    +0.000 C 
ATOM     25  C   UNL     1       5.565   4.210  14.424  0.00  0.00    +0.000 C 
ATOM     26  C   UNL     1       6.564   5.081  15.128  0.00  0.00    +0.000 C 
ENDBRANCH  22  24
ENDBRANCH   6  20
TORSDOF 5
ENDMDL
MODEL 4
REMARK VINA RESULT:      -7.2      1.501      1.890
REMARK  Name = 
REMARK  7 active torsions:
REMARK  status: ('A' for Active; 'I' for Inactive)
REMARK    1  A    between atoms: C_1  and  O_2
REMARK    2  A    between atoms: O_2  and  C_3
REMARK    3  A    between atoms: C_5  and  O_6
REMARK    4  A    between atoms: O_6  and  C_7
REMARK    5  A    between atoms: C_9  and  C_10
REMARK    6  A    between atoms: C_15  and  C_16
REMARK    7  A    between atoms: N_18  and  C_19
REMARK                            x       y       z     vdW  Elec       q    Type
REMARK                         _______ _______ _______ _____ _____    ______ ____
ROOT
ATOM      1  C   UNL     1       2.472   7.023  19.241  0.00  0.00    +0.000 C 
ATOM      2  O   UNL     1       2.296   7.604  18.172  0.00  0.00    +0.000 OA
ATOM      3  N   UNL     1       2.015   7.427  20.474  0.00  0.00    +0.000 N 
ATOM      4  C   UNL     1       1.278   8.575  20.603  0.00  0.00    +0.000 A 
ATOM      5  N   UNL     1       0.687   9.288  19.678  0.00  0.00    +0.000 NA
ATOM      6  C   UNL     1       0.105  10.417  20.255  0.00  0.00    +0.000 A 
ATOM      7  C   UNL     1       0.298  10.519  21.622  0.00  0.00    +0.000 A 
ATOM      8  S   UNL     1       1.146   9.146  22.205  0.00  0.00    +0.000 S 
ATOM      9  H   UNL     1       2.354   7.005  21.326  0.00  0.00    +0.000 HD
ENDROOT
BRANCH   1  14
ATOM     10  C   UNL     1       5.465   4.685  19.094  0.00  0.00    +0.000 A 
ATOM     11  C   UNL     1       4.819   3.463  19.321  0.00  0.00    +0.000 A 
ATOM     12  C   UNL     1       3.435   3.399  19.494  0.00  0.00    +0.000 A 
ATOM     13  C   UNL     1       2.696   4.577  19.459  0.00  0.00    +0.000 A 
ATOM     14  C   UNL     1       3.330   5.807  19.226  0.00  0.00    +0.000 A 
ATOM     15  C   UNL     1       4.716   5.864  19.039  0.00  0.00    +0.000 A 
BRANCH  10  17
ATOM     16  C   UNL     1       7.334   4.648  17.622  0.00  0.00    +0.000 C 
ATOM     17  O   UNL     1       6.822   4.592  18.947  0.00  0.00    +0.000 OA
ENDBRANCH  10  17
BRANCH  12  18
ATOM     18  O   UNL     1       2.925   2.145  19.686  0.00  0.00    +0.000 OA
ATOM     19  C   UNL     1       1.674   1.860  19.065  0.00  0.00    +0.000 C 
ENDBRANCH  12  18
ENDBRANCH   1  14
BRANCH   6  20
ATOM     20  C   UNL     1      -0.644  11.400  19.466  0.00  0.00    +0.000 C 
ATOM     21  O   UNL     1      -0.643  12.598  19.737  0.00  0.00    +0.000 OA
ATOM     22  N   UNL     1      -1.348  10.847  18.414  0.00  0.00    +0.000 N 
ATOM     23  H   UNL     1      -1.245   9.843  18.277  0.00  0.00    +0.000 HD
BRANCH  22  24
ATOM     24  C   UNL     1      -2.157  11.626  17.532  0.00  0.00    +0.000 C 
ATOM     25  C   UNL     1      -2.696  11.051  16.252  0.00  0.00    +0.000 C 
ATOM     26  C   UNL     1      -3.629  11.343  17.391  0.00  0.00    +0.000 C 
ENDBRANCH  22  24
ENDBRANCH   6  20
TORSDOF 5
ENDMDL
MODEL 5
REMARK VINA RESULT:      -7.2      2.962      8.564
REMARK  Name = 
REMARK  7 active torsions:
REMARK  status: ('A' for Active; 'I' for Inactive)
REMARK    1  A    between atoms: C_1  and  O_2
REMARK    2  A    between atoms: O_2  and  C_3
REMARK    3  A    between atoms: C_5  and  O_6
REMARK    4  A    between atoms: O_6  and  C_7
REMARK    5  A    between atoms: C_9  and  C_10
REMARK    6  A    between atoms: C_15  and  C_16
REMARK    7  A    between atoms: N_18  and  C_19
REMARK                            x       y       z     vdW  Elec       q    Type
REMARK                         _______ _______ _______ _____ _____    ______ ____
ROOT
ATOM      1  C   UNL     1       1.872   7.966  19.429  0.00  0.00    +0.000 C 
ATOM      2  O   UNL     1       2.176   7.926  18.239  0.00  0.00    +0.000 OA
ATOM      3  N   UNL     1       1.983   6.937  20.335  0.00  0.00    +0.000 N 
ATOM      4  C   UNL     1       2.479   5.720  19.950  0.00  0.00    +0.000 A 
ATOM      5  N   UNL     1       3.132   5.398  18.862  0.00  0.00    +0.000 NA
ATOM      6  C   UNL     1       3.385   4.026  18.854  0.00  0.00    +0.000 A 
ATOM      7  C   UNL     1       2.890   3.351  19.957  0.00  0.00    +0.000 A 
ATOM      8  S   UNL     1       2.171   4.456  21.054  0.00  0.00    +0.000 S 
ATOM      9  H   UNL     1       1.541   6.983  21.242  0.00  0.00    +0.000 HD
ENDROOT
BRANCH   1  14
ATOM     10  C   UNL     1       0.265  10.582  21.671  0.00  0.00    +0.000 A 
ATOM     11  C   UNL     1       0.189  11.650  20.767  0.00  0.00    +0.000 A 
ATOM     12  C   UNL     1       0.629  11.513  19.449  0.00  0.00    +0.000 A 
ATOM     13  C   UNL     1       1.170  10.299  19.041  0.00  0.00    +0.000 A 
ATOM     14  C   UNL     1       1.246   9.219  19.934  0.00  0.00    +0.000 A 
ATOM     15  C   UNL     1       0.790   9.356  21.250  0.00  0.00    +0.000 A 
BRANCH  10  17
ATOM     16  C   UNL     1      -1.294  11.768  23.021  0.00  0.00    +0.000 C 
ATOM     17  O   UNL     1      -0.200  10.865  22.925  0.00  0.00    +0.000 OA
ENDBRANCH  10  17
BRANCH  12  18
ATOM     18  O   UNL     1       0.479  12.622  18.663  0.00  0.00    +0.000 OA
ATOM     19  C   UNL     1      -0.569  13.521  19.016  0.00  0.00    +0.000 C 
ENDBRANCH  12  18
ENDBRANCH   1  14
BRANCH   6  20
ATOM     20  C   UNL     1       4.117   3.373  17.764  0.00  0.00    +0.000 C 
ATOM     21  O   UNL     1       4.051   2.163  17.561  0.00  0.00    +0.000 OA
ATOM     22  N   UNL     1       4.884   4.241  17.012  0.00  0.00    +0.000 N 
ATOM     23  H   UNL     1       4.832   5.227  17.263  0.00  0.00    +0.000 HD
BRANCH  22  24
ATOM     24  C   UNL     1       5.689   3.808  15.914  0.00  0.00    +0.000 C 
ATOM     25  C   UNL     1       5.687   4.545  14.604  0.00  0.00    +0.000 C 
ATOM     26  C   UNL     1       6.897   4.599  15.490  0.00  0.00    +0.000 C 
ENDBRANCH  22  24
ENDBRANCH   6  20
TORSDOF 5
ENDMDL
MODEL 6
REMARK VINA RESULT:      -7.1      2.773      4.146
REMARK  Name = 
REMARK  7 active torsions:
REMARK  status: ('A' for Active; 'I' for Inactive)
REMARK    1  A    between atoms: C_1  and  O_2
REMARK    2  A    between atoms: O_2  and  C_3
REMARK    3  A    between atoms: C_5  and  O_6
REMARK    4  A    between atoms: O_6  and  C_7
REMARK    5  A    between atoms: C_9  and  C_10
REMARK    6  A    between atoms: C_15  and  C_16
REMARK    7  A    between atoms: N_18  and  C_19
REMARK                            x       y       z     vdW  Elec       q    Type
REMARK                         _______ _______ _______ _____ _____    ______ ____
ROOT
ATOM      1  C   UNL     1       2.285   6.968  19.344  0.00  0.00    +0.000 C 
ATOM      2  O   UNL     1       1.845   6.589  20.427  0.00  0.00    +0.000 OA
ATOM      3  N   UNL     1       2.102   8.209  18.779  0.00  0.00    +0.000 N 
ATOM      4  C   UNL     1       1.378   9.172  19.430  0.00  0.00    +0.000 A 
ATOM      5  N   UNL     1       0.994   9.217  20.681  0.00  0.00    +0.000 NA
ATOM      6  C   UNL     1       0.216  10.354  20.895  0.00  0.00    +0.000 A 
ATOM      7  C   UNL     1       0.027  11.133  19.765  0.00  0.00    +0.000 A 
ATOM      8  S   UNL     1       0.901  10.479  18.442  0.00  0.00    +0.000 S 
ATOM      9  H   UNL     1       2.331   8.386  17.811  0.00  0.00    +0.000 HD
ENDROOT
BRANCH   1  14
ATOM     10  C   UNL     1       3.351   3.757  17.612  0.00  0.00    +0.000 A 
ATOM     11  C   UNL     1       4.420   4.245  16.850  0.00  0.00    +0.000 A 
ATOM     12  C   UNL     1       4.800   5.587  16.918  0.00  0.00    +0.000 A 
ATOM     13  C   UNL     1       4.087   6.450  17.742  0.00  0.00    +0.000 A 
ATOM     14  C   UNL     1       3.019   5.972  18.516  0.00  0.00    +0.000 A 
ATOM     15  C   UNL     1       2.650   4.624  18.457  0.00  0.00    +0.000 A 
BRANCH  10  17
ATOM     16  C   UNL     1       3.468   1.551  18.498  0.00  0.00    +0.000 C 
ATOM     17  O   UNL     1       3.093   2.424  17.441  0.00  0.00    +0.000 OA
ENDBRANCH  10  17
BRANCH  12  18
ATOM     18  O   UNL     1       5.873   5.932  16.141  0.00  0.00    +0.000 OA
ATOM     19  C   UNL     1       6.834   4.912  15.888  0.00  0.00    +0.000 C 
ENDBRANCH  12  18
ENDBRANCH   1  14
BRANCH   6  20
ATOM     20  C   UNL     1      -0.346  10.682  22.209  0.00  0.00    +0.000 C 
ATOM     21  O   UNL     1       0.102  10.211  23.251  0.00  0.00    +0.000 OA
ATOM     22  N   UNL     1      -1.419  11.550  22.152  0.00  0.00    +0.000 N 
ATOM     23  H   UNL     1      -1.677  11.893  21.229  0.00  0.00    +0.000 HD
BRANCH  22  24
ATOM     24  C   UNL     1      -2.123  11.985  23.317  0.00  0.00    +0.000 C 
ATOM     25  C   UNL     1      -2.388  13.441  23.573  0.00  0.00    +0.000 C 
ATOM     26  C   UNL     1      -3.522  12.528  23.209  0.00  0.00    +0.000 C 
ENDBRANCH  22  24
ENDBRANCH   6  20
TORSDOF 5
ENDMDL
MODEL 7
REMARK VINA RESULT:      -7.1      2.850      8.268
REMARK  Name = 
REMARK  7 active torsions:
REMARK  status: ('A' for Active; 'I' for Inactive)
REMARK    1  A    between atoms: C_1  and  O_2
REMARK    2  A    between atoms: O_2  and  C_3
REMARK    3  A    between atoms: C_5  and  O_6
REMARK    4  A    between atoms: O_6  and  C_7
REMARK    5  A    between atoms: C_9  and  C_10
REMARK    6  A    between atoms: C_15  and  C_16
REMARK    7  A    between atoms: N_18  and  C_19
REMARK                            x       y       z     vdW  Elec       q    Type
REMARK                         _______ _______ _______ _____ _____    ______ ____
ROOT
ATOM      1  C   UNL     1       1.862   8.122  19.186  0.00  0.00    +0.000 C 
ATOM      2  O   UNL     1       2.174   8.043  17.999  0.00  0.00    +0.000 OA
ATOM      3  N   UNL     1       1.984   7.128  20.129  0.00  0.00    +0.000 N 
ATOM      4  C   UNL     1       2.501   5.906  19.791  0.00  0.00    +0.000 A 
ATOM      5  N   UNL     1       3.165   5.555  18.719  0.00  0.00    +0.000 NA
ATOM      6  C   UNL     1       3.441   4.188  18.762  0.00  0.00    +0.000 A 
ATOM      7  C   UNL     1       2.950   3.546  19.887  0.00  0.00    +0.000 A 
ATOM      8  S   UNL     1       2.207   4.678  20.939  0.00  0.00    +0.000 S 
ATOM      9  H   UNL     1       1.536   7.201  21.032  0.00  0.00    +0.000 HD
ENDROOT
BRANCH   1  14
ATOM     10  C   UNL     1       0.220  11.550  19.251  0.00  0.00    +0.000 A 
ATOM     11  C   UNL     1      -0.085  11.637  20.615  0.00  0.00    +0.000 A 
ATOM     12  C   UNL     1       0.258  10.612  21.499  0.00  0.00    +0.000 A 
ATOM     13  C   UNL     1       0.895   9.479  21.004  0.00  0.00    +0.000 A 
ATOM     14  C   UNL     1       1.213   9.382  19.641  0.00  0.00    +0.000 A 
ATOM     15  C   UNL     1       0.881  10.419  18.761  0.00  0.00    +0.000 A 
BRANCH  10  17
ATOM     16  C   UNL     1       0.156  13.916  19.008  0.00  0.00    +0.000 C 
ATOM     17  O   UNL     1      -0.179  12.627  18.509  0.00  0.00    +0.000 OA
ENDBRANCH  10  17
BRANCH  12  18
ATOM     18  O   UNL     1      -0.077  10.829  22.807  0.00  0.00    +0.000 OA
ATOM     19  C   UNL     1      -1.276  11.560  23.049  0.00  0.00    +0.000 C 
ENDBRANCH  12  18
ENDBRANCH   1  14
BRANCH   6  20
ATOM     20  C   UNL     1       4.189   3.507  17.701  0.00  0.00    +0.000 C 
ATOM     21  O   UNL     1       4.046   2.311  17.460  0.00  0.00    +0.000 OA
ATOM     22  N   UNL     1       5.064   4.332  17.023  0.00  0.00    +0.000 N 
ATOM     23  H   UNL     1       5.071   5.312  17.298  0.00  0.00    +0.000 HD
BRANCH  22  24
ATOM     24  C   UNL     1       5.902   3.866  15.964  0.00  0.00    +0.000 C 
ATOM     25  C   UNL     1       5.678   4.296  14.542  0.00  0.00    +0.000 C 
ATOM     26  C   UNL     1       6.879   4.794  15.293  0.00  0.00    +0.000 C 
ENDBRANCH  22  24
ENDBRANCH   6  20
TORSDOF 5
ENDMDL
MODEL 8
REMARK VINA RESULT:      -7.1      1.927      8.415
REMARK  Name = 
REMARK  7 active torsions:
REMARK  status: ('A' for Active; 'I' for Inactive)
REMARK    1  A    between atoms: C_1  and  O_2
REMARK    2  A    between atoms: O_2  and  C_3
REMARK    3  A    between atoms: C_5  and  O_6
REMARK    4  A    between atoms: O_6  and  C_7
REMARK    5  A    between atoms: C_9  and  C_10
REMARK    6  A    between atoms: C_15  and  C_16
REMARK    7  A    between atoms: N_18  and  C_19
REMARK                            x       y       z     vdW  Elec       q    Type
REMARK                         _______ _______ _______ _____ _____    ______ ____
ROOT
ATOM      1  C   UNL     1       1.831   8.771  18.338  0.00  0.00    +0.000 C 
ATOM      2  O   UNL     1       2.544   8.723  17.338  0.00  0.00    +0.000 OA
ATOM      3  N   UNL     1       1.779   7.839  19.349  0.00  0.00    +0.000 N 
ATOM      4  C   UNL     1       2.574   6.724  19.311  0.00  0.00    +0.000 A 
ATOM      5  N   UNL     1       3.617   6.475  18.560  0.00  0.00    +0.000 NA
ATOM      6  C   UNL     1       4.080   5.183  18.810  0.00  0.00    +0.000 A 
ATOM      7  C   UNL     1       3.341   4.489  19.753  0.00  0.00    +0.000 A 
ATOM      8  S   UNL     1       2.105   5.491  20.393  0.00  0.00    +0.000 S 
ATOM      9  H   UNL     1       1.041   7.850  20.038  0.00  0.00    +0.000 HD
ENDROOT
BRANCH   1  14
ATOM     10  C   UNL     1       0.256  12.153  19.068  0.00  0.00    +0.000 A 
ATOM     11  C   UNL     1      -0.994  11.963  18.466  0.00  0.00    +0.000 A 
ATOM     12  C   UNL     1      -1.326  10.752  17.857  0.00  0.00    +0.000 A 
ATOM     13  C   UNL     1      -0.385   9.728  17.834  0.00  0.00    +0.000 A 
ATOM     14  C   UNL     1       0.868   9.902  18.439  0.00  0.00    +0.000 A 
ATOM     15  C   UNL     1       1.192  11.113  19.061  0.00  0.00    +0.000 A 
BRANCH  10  17
ATOM     16  C   UNL     1       0.149  14.515  18.802  0.00  0.00    +0.000 C 
ATOM     17  O   UNL     1       0.439  13.390  19.621  0.00  0.00    +0.000 OA
ENDBRANCH  10  17
BRANCH  12  18
ATOM     18  O   UNL     1      -2.585  10.688  17.325  0.00  0.00    +0.000 OA
ATOM     19  C   UNL     1      -2.689  10.804  15.909  0.00  0.00    +0.000 C 
ENDBRANCH  12  18
ENDBRANCH   1  14
BRANCH   6  20
ATOM     20  C   UNL     1       5.250   4.626  18.125  0.00  0.00    +0.000 C 
ATOM     21  O   UNL     1       6.244   4.237  18.733  0.00  0.00    +0.000 OA
ATOM     22  N   UNL     1       5.125   4.596  16.750  0.00  0.00    +0.000 N 
ATOM     23  H   UNL     1       4.240   4.920  16.366  0.00  0.00    +0.000 HD
BRANCH  22  24
ATOM     24  C   UNL     1       6.157   4.107  15.891  0.00  0.00    +0.000 C 
ATOM     25  C   UNL     1       5.927   3.920  14.418  0.00  0.00    +0.000 C 
ATOM     26  C   UNL     1       6.827   5.020  14.900  0.00  0.00    +0.000 C 
ENDBRANCH  22  24
ENDBRANCH   6  20
TORSDOF 5
ENDMDL
MODEL 9
REMARK VINA RESULT:      -7.1      2.016      8.392
REMARK  Name = 
REMARK  7 active torsions:
REMARK  status: ('A' for Active; 'I' for Inactive)
REMARK    1  A    between atoms: C_1  and  O_2
REMARK    2  A    between atoms: O_2  and  C_3
REMARK    3  A    between atoms: C_5  and  O_6
REMARK    4  A    between atoms: O_6  and  C_7
REMARK    5  A    between atoms: C_9  and  C_10
REMARK    6  A    between atoms: C_15  and  C_16
REMARK    7  A    between atoms: N_18  and  C_19
REMARK                            x       y       z     vdW  Elec       q    Type
REMARK                         _______ _______ _______ _____ _____    ______ ____
ROOT
ATOM      1  C   UNL     1       1.874   8.790  18.307  0.00  0.00    +0.000 C 
ATOM      2  O   UNL     1       2.589   8.733  17.309  0.00  0.00    +0.000 OA
ATOM      3  N   UNL     1       1.807   7.858  19.317  0.00  0.00    +0.000 N 
ATOM      4  C   UNL     1       2.587   6.733  19.281  0.00  0.00    +0.000 A 
ATOM      5  N   UNL     1       3.628   6.471  18.533  0.00  0.00    +0.000 NA
ATOM      6  C   UNL     1       4.073   5.173  18.783  0.00  0.00    +0.000 A 
ATOM      7  C   UNL     1       3.323   4.488  19.724  0.00  0.00    +0.000 A 
ATOM      8  S   UNL     1       2.098   5.506  20.361  0.00  0.00    +0.000 S 
ATOM      9  H   UNL     1       1.067   7.879  20.004  0.00  0.00    +0.000 HD
ENDROOT
BRANCH   1  14
ATOM     10  C   UNL     1      -1.283  10.907  18.310  0.00  0.00    +0.000 A 
ATOM     11  C   UNL     1      -0.744  12.131  18.727  0.00  0.00    +0.000 A 
ATOM     12  C   UNL     1       0.623  12.270  18.979  0.00  0.00    +0.000 A 
ATOM     13  C   UNL     1       1.452  11.163  18.830  0.00  0.00    +0.000 A 
ATOM     14  C   UNL     1       0.926   9.934  18.406  0.00  0.00    +0.000 A 
ATOM     15  C   UNL     1      -0.442   9.802  18.141  0.00  0.00    +0.000 A 
BRANCH  10  17
ATOM     16  C   UNL     1      -3.203   9.796  17.450  0.00  0.00    +0.000 C 
ATOM     17  O   UNL     1      -2.635  10.922  18.106  0.00  0.00    +0.000 OA
ENDBRANCH  10  17
BRANCH  12  18
ATOM     18  O   UNL     1       1.025  13.521  19.358  0.00  0.00    +0.000 OA
ATOM     19  C   UNL     1       2.260  13.610  20.064  0.00  0.00    +0.000 C 
ENDBRANCH  12  18
ENDBRANCH   1  14
BRANCH   6  20
ATOM     20  C   UNL     1       5.238   4.600  18.102  0.00  0.00    +0.000 C 
ATOM     21  O   UNL     1       6.251   4.257  18.707  0.00  0.00    +0.000 OA
ATOM     22  N   UNL     1       5.086   4.500  16.732  0.00  0.00    +0.000 N 
ATOM     23  H   UNL     1       4.187   4.792  16.353  0.00  0.00    +0.000 HD
BRANCH  22  24
ATOM     24  C   UNL     1       6.108   3.985  15.877  0.00  0.00    +0.000 C 
ATOM     25  C   UNL     1       5.960   4.006  14.382  0.00  0.00    +0.000 C 
ATOM     26  C   UNL     1       6.953   4.914  15.047  0.00  0.00    +0.000 C 
ENDBRANCH  22  24
ENDBRANCH   6  20
TORSDOF 5
ENDMDL
