MODEL 1
REMARK VINA RESULT:      -7.5      0.000      0.000
REMARK  Name = 
REMARK  9 active torsions:
REMARK  status: ('A' for Active; 'I' for Inactive)
REMARK    1  A    between atoms: C_1  and  C_2
REMARK    2  A    between atoms: C_2  and  C_3
REMARK    3  A    between atoms: C_3  and  N_4
REMARK    4  A    between atoms: N_4  and  C_5
REMARK    5  A    between atoms: C_5  and  C_6
REMARK    6  A    between atoms: C_6  and  C_7
REMARK    7  A    between atoms: C_7  and  N_8
REMARK    8  A    between atoms: N_20  and  C_21
REMARK    9  A    between atoms: C_26  and  C_27
REMARK                            x       y       z     vdW  Elec       q    Type
REMARK                         _______ _______ _______ _____ _____    ______ ____
ROOT
ATOM      1  C   UNL     1       1.361   9.966  19.344  0.00  0.00    +0.000 C 
ATOM      2  C   UNL     1       1.641   8.664  19.626  0.00  0.00    +0.000 C 
ATOM      3  C   UNL     1       1.294   8.097  20.959  0.00  0.00    +0.000 C 
ATOM      4  O   UNL     1       1.023   8.729  21.978  0.00  0.00    +0.000 OA
ATOM      5  N   UNL     1       1.381   6.739  21.051  0.00  0.00    +0.000 N 
ATOM      6  C   UNL     1       2.322   6.016  20.388  0.00  0.00    +0.000 C 
ATOM      7  O   UNL     1       2.756   4.995  20.921  0.00  0.00    +0.000 OA
ATOM      8  N   UNL     1       2.757   6.531  19.179  0.00  0.00    +0.000 N 
ATOM      9  C   UNL     1       2.315   7.744  18.651  0.00  0.00    +0.000 C 
ATOM     10  O   UNL     1       2.396   8.016  17.455  0.00  0.00    +0.000 OA
ATOM     11  H   UNL     1       1.209   6.395  21.987  0.00  0.00    +0.000 HD
ENDROOT
BRANCH   8  12
ATOM     12  C   UNL     1       3.484   5.664  18.310  0.00  0.00    +0.000 A 
ATOM     13  C   UNL     1       4.864   5.879  18.154  0.00  0.00    +0.000 A 
ATOM     14  C   UNL     1       5.627   5.021  17.367  0.00  0.00    +0.000 A 
ATOM     15  C   UNL     1       5.016   3.953  16.717  0.00  0.00    +0.000 A 
ATOM     16  C   UNL     1       3.642   3.742  16.853  0.00  0.00    +0.000 A 
ATOM     17  C   UNL     1       2.857   4.591  17.647  0.00  0.00    +0.000 A 
ATOM     18  C   UNL     1       1.374   4.360  17.728  0.00  0.00    +0.000 C 
ENDBRANCH   8  12
BRANCH   1  20
ATOM     19  C   UNL     1       2.169  12.163  18.407  0.00  0.00    +0.000 C 
ATOM     20  C   UNL     1       1.829  10.711  18.095  0.00  0.00    +0.000 C 
ENDBRANCH   1  20
BRANCH   1  21
ATOM     21  N   UNL     1       0.606  10.769  20.204  0.00  0.00    +0.000 N 
ATOM     22  H   UNL     1       0.951  11.728  20.237  0.00  0.00    +0.000 HD
BRANCH  21  23
ATOM     23  C   UNL     1      -0.860  10.747  20.186  0.00  0.00    +0.000 C 
BRANCH  23  24
ATOM     24  C   UNL     1      -1.355  12.038  19.539  0.00  0.00    +0.000 C 
BRANCH  24  25
ATOM     25  C   UNL     1      -1.726  11.840  18.065  0.00  0.00    +0.000 C 
BRANCH  25  26
ATOM     26  N   UNL     1      -2.459  10.585  17.831  0.00  0.00    +0.000 NA
ATOM     27  C   UNL     1      -2.166   9.944  16.528  0.00  0.00    +0.000 C 
ATOM     28  C   UNL     1      -2.803  10.649  15.318  0.00  0.00    +0.000 C 
ATOM     29  O   UNL     1      -4.219  10.785  15.476  0.00  0.00    +0.000 OA
ATOM     30  C   UNL     1      -4.530  11.486  16.687  0.00  0.00    +0.000 C 
ATOM     31  C   UNL     1      -3.924  10.784  17.915  0.00  0.00    +0.000 C 
ENDBRANCH  25  26
ENDBRANCH  24  25
ENDBRANCH  23  24
ENDBRANCH  21  23
ENDBRANCH   1  21
TORSDOF 7
ENDMDL
MODEL 2
REMARK VINA RESULT:      -7.2      2.585      3.885
REMARK  Name = 
REMARK  9 active torsions:
REMARK  status: ('A' for Active; 'I' for Inactive)
REMARK    1  A    between atoms: C_1  and  C_2
REMARK    2  A    between atoms: C_2  and  C_3
REMARK    3  A    between atoms: C_3  and  N_4
REMARK    4  A    between atoms: N_4  and  C_5
REMARK    5  A    between atoms: C_5  and  C_6
REMARK    6  A    between atoms: C_6  and  C_7
REMARK    7  A    between atoms: C_7  and  N_8
REMARK    8  A    between atoms: N_20  and  C_21
REMARK    9  A    between atoms: C_26  and  C_27
REMARK                            x       y       z     vdW  Elec       q    Type
REMARK                         _______ _______ _______ _____ _____    ______ ____
ROOT
ATOM      1  C   UNL     1       2.104   7.487  19.638  0.00  0.00    +0.000 C 
ATOM      2  C   UNL     1       2.774   6.335  19.363  0.00  0.00    +0.000 C 
ATOM      3  C   UNL     1       2.673   5.172  20.289  0.00  0.00    +0.000 C 
ATOM      4  O   UNL     1       2.271   5.191  21.451  0.00  0.00    +0.000 OA
ATOM      5  N   UNL     1       3.167   3.999  19.801  0.00  0.00    +0.000 N 
ATOM      6  C   UNL     1       4.251   3.941  18.982  0.00  0.00    +0.000 C 
ATOM      7  O   UNL     1       4.994   2.964  19.066  0.00  0.00    +0.000 OA
ATOM      8  N   UNL     1       4.457   5.031  18.154  0.00  0.00    +0.000 N 
ATOM      9  C   UNL     1       3.648   6.167  18.155  0.00  0.00    +0.000 C 
ATOM     10  O   UNL     1       3.589   6.942  17.202  0.00  0.00    +0.000 OA
ATOM     11  H   UNL     1       3.149   3.249  20.480  0.00  0.00    +0.000 HD
ENDROOT
BRANCH   8  12
ATOM     12  C   UNL     1       5.370   4.878  17.069  0.00  0.00    +0.000 A 
ATOM     13  C   UNL     1       4.917   4.245  15.899  0.00  0.00    +0.000 A 
ATOM     14  C   UNL     1       5.752   4.128  14.791  0.00  0.00    +0.000 A 
ATOM     15  C   UNL     1       7.048   4.628  14.848  0.00  0.00    +0.000 A 
ATOM     16  C   UNL     1       7.514   5.244  16.013  0.00  0.00    +0.000 A 
ATOM     17  C   UNL     1       6.685   5.377  17.137  0.00  0.00    +0.000 A 
ATOM     18  C   UNL     1       7.239   6.002  18.388  0.00  0.00    +0.000 C 
ENDBRANCH   8  12
BRANCH   1  20
ATOM     19  C   UNL     1       1.086   9.062  17.953  0.00  0.00    +0.000 C 
ATOM     20  C   UNL     1       2.270   8.800  18.875  0.00  0.00    +0.000 C 
ENDBRANCH   1  20
BRANCH   1  21
ATOM     21  N   UNL     1       1.182   7.581  20.686  0.00  0.00    +0.000 N 
ATOM     22  H   UNL     1       1.021   6.681  21.138  0.00  0.00    +0.000 HD
BRANCH  21  23
ATOM     23  C   UNL     1       1.258   8.654  21.682  0.00  0.00    +0.000 C 
BRANCH  23  24
ATOM     24  C   UNL     1      -0.162   9.048  22.079  0.00  0.00    +0.000 C 
BRANCH  24  25
ATOM     25  C   UNL     1      -0.386  10.562  21.999  0.00  0.00    +0.000 C 
BRANCH  25  26
ATOM     26  N   UNL     1       0.029  11.126  20.704  0.00  0.00    +0.000 NA
ATOM     27  C   UNL     1       0.877  12.336  20.812  0.00  0.00    +0.000 C 
ATOM     28  C   UNL     1       0.117  13.607  21.227  0.00  0.00    +0.000 C 
ATOM     29  O   UNL     1      -0.983  13.871  20.348  0.00  0.00    +0.000 OA
ATOM     30  C   UNL     1      -1.872  12.749  20.296  0.00  0.00    +0.000 C 
ATOM     31  C   UNL     1      -1.138  11.469  19.859  0.00  0.00    +0.000 C 
ENDBRANCH  25  26
ENDBRANCH  24  25
ENDBRANCH  23  24
ENDBRANCH  21  23
ENDBRANCH   1  21
TORSDOF 7
ENDMDL
MODEL 3
REMARK VINA RESULT:      -7.2      2.963      4.107
REMARK  Name = 
REMARK  9 active torsions:
REMARK  status: ('A' for Active; 'I' for Inactive)
REMARK    1  A    between atoms: C_1  and  C_2
REMARK    2  A    between atoms: C_2  and  C_3
REMARK    3  A    between atoms: C_3  and  N_4
REMARK    4  A    between atoms: N_4  and  C_5
REMARK    5  A    between atoms: C_5  and  C_6
REMARK    6  A    between atoms: C_6  and  C_7
REMARK    7  A    between atoms: C_7  and  N_8
REMARK    8  A    between atoms: N_20  and  C_21
REMARK    9  A    between atoms: C_26  and  C_27
REMARK                            x       y       z     vdW  Elec       q    Type
REMARK                         _______ _______ _______ _____ _____    ______ ____
ROOT
ATOM      1  C   UNL     1       2.062   7.543  19.617  0.00  0.00    +0.000 C 
ATOM      2  C   UNL     1       2.691   6.374  19.317  0.00  0.00    +0.000 C 
ATOM      3  C   UNL     1       2.523   5.187  20.202  0.00  0.00    +0.000 C 
ATOM      4  O   UNL     1       2.097   5.185  21.355  0.00  0.00    +0.000 OA
ATOM      5  N   UNL     1       2.981   4.011  19.685  0.00  0.00    +0.000 N 
ATOM      6  C   UNL     1       4.079   3.936  18.887  0.00  0.00    +0.000 C 
ATOM      7  O   UNL     1       4.781   2.927  18.953  0.00  0.00    +0.000 OA
ATOM      8  N   UNL     1       4.347   5.043  18.101  0.00  0.00    +0.000 N 
ATOM      9  C   UNL     1       3.584   6.210  18.123  0.00  0.00    +0.000 C 
ATOM     10  O   UNL     1       3.578   7.017  17.196  0.00  0.00    +0.000 OA
ATOM     11  H   UNL     1       2.917   3.241  20.338  0.00  0.00    +0.000 HD
ENDROOT
BRANCH   8  12
ATOM     12  C   UNL     1       5.277   4.888  17.030  0.00  0.00    +0.000 A 
ATOM     13  C   UNL     1       4.828   4.299  15.836  0.00  0.00    +0.000 A 
ATOM     14  C   UNL     1       5.681   4.183  14.742  0.00  0.00    +0.000 A 
ATOM     15  C   UNL     1       6.992   4.641  14.837  0.00  0.00    +0.000 A 
ATOM     16  C   UNL     1       7.452   5.212  16.026  0.00  0.00    +0.000 A 
ATOM     17  C   UNL     1       6.605   5.344  17.137  0.00  0.00    +0.000 A 
ATOM     18  C   UNL     1       7.152   5.920  18.413  0.00  0.00    +0.000 C 
ENDBRANCH   8  12
BRANCH   1  20
ATOM     19  C   UNL     1       1.095   9.270  18.055  0.00  0.00    +0.000 C 
ATOM     20  C   UNL     1       2.298   8.873  18.902  0.00  0.00    +0.000 C 
ENDBRANCH   1  20
BRANCH   1  21
ATOM     21  N   UNL     1       1.122   7.641  20.648  0.00  0.00    +0.000 N 
ATOM     22  H   UNL     1       0.913   6.733  21.065  0.00  0.00    +0.000 HD
BRANCH  21  23
ATOM     23  C   UNL     1       1.221   8.674  21.683  0.00  0.00    +0.000 C 
BRANCH  23  24
ATOM     24  C   UNL     1      -0.176   9.222  21.956  0.00  0.00    +0.000 C 
BRANCH  24  25
ATOM     25  C   UNL     1      -0.397  10.593  21.306  0.00  0.00    +0.000 C 
BRANCH  25  26
ATOM     26  N   UNL     1      -0.317  11.697  22.277  0.00  0.00    +0.000 NA
ATOM     27  C   UNL     1      -1.538  11.873  23.098  0.00  0.00    +0.000 C 
ATOM     28  C   UNL     1      -2.722  12.501  22.343  0.00  0.00    +0.000 C 
ATOM     29  O   UNL     1      -2.361  13.752  21.747  0.00  0.00    +0.000 OA
ATOM     30  C   UNL     1      -1.237  13.592  20.874  0.00  0.00    +0.000 C 
ATOM     31  C   UNL     1      -0.030  12.988  21.613  0.00  0.00    +0.000 C 
ENDBRANCH  25  26
ENDBRANCH  24  25
ENDBRANCH  23  24
ENDBRANCH  21  23
ENDBRANCH   1  21
TORSDOF 7
ENDMDL
MODEL 4
REMARK VINA RESULT:      -7.1      1.508      2.825
REMARK  Name = 
REMARK  9 active torsions:
REMARK  status: ('A' for Active; 'I' for Inactive)
REMARK    1  A    between atoms: C_1  and  C_2
REMARK    2  A    between atoms: C_2  and  C_3
REMARK    3  A    between atoms: C_3  and  N_4
REMARK    4  A    between atoms: N_4  and  C_5
REMARK    5  A    between atoms: C_5  and  C_6
REMARK    6  A    between atoms: C_6  and  C_7
REMARK    7  A    between atoms: C_7  and  N_8
REMARK    8  A    between atoms: N_20  and  C_21
REMARK    9  A    between atoms: C_26  and  C_27
REMARK                            x       y       z     vdW  Elec       q    Type
REMARK                         _______ _______ _______ _____ _____    ______ ____
ROOT
ATOM      1  C   UNL     1       1.081   8.937  20.222  0.00  0.00    +0.000 C 
ATOM      2  C   UNL     1       1.873   8.167  19.427  0.00  0.00    +0.000 C 
ATOM      3  C   UNL     1       2.500   8.750  18.207  0.00  0.00    +0.000 C 
ATOM      4  O   UNL     1       2.177   9.793  17.643  0.00  0.00    +0.000 OA
ATOM      5  N   UNL     1       3.465   7.980  17.628  0.00  0.00    +0.000 N 
ATOM      6  C   UNL     1       3.409   6.622  17.607  0.00  0.00    +0.000 C 
ATOM      7  O   UNL     1       3.884   6.033  16.636  0.00  0.00    +0.000 OA
ATOM      8  N   UNL     1       2.762   6.015  18.670  0.00  0.00    +0.000 N 
ATOM      9  C   UNL     1       2.148   6.719  19.706  0.00  0.00    +0.000 C 
ATOM     10  O   UNL     1       1.917   6.216  20.803  0.00  0.00    +0.000 OA
ATOM     11  H   UNL     1       3.817   8.372  16.764  0.00  0.00    +0.000 HD
ENDROOT
BRANCH   8  12
ATOM     12  C   UNL     1       2.959   4.614  18.856  0.00  0.00    +0.000 A 
ATOM     13  C   UNL     1       1.878   3.750  18.614  0.00  0.00    +0.000 A 
ATOM     14  C   UNL     1       2.040   2.371  18.720  0.00  0.00    +0.000 A 
ATOM     15  C   UNL     1       3.276   1.847  19.084  0.00  0.00    +0.000 A 
ATOM     16  C   UNL     1       4.352   2.700  19.344  0.00  0.00    +0.000 A 
ATOM     17  C   UNL     1       4.211   4.091  19.234  0.00  0.00    +0.000 A 
ATOM     18  C   UNL     1       5.379   4.977  19.569  0.00  0.00    +0.000 C 
ENDBRANCH   8  12
BRANCH   1  20
ATOM     19  C   UNL     1       0.500   9.211  22.660  0.00  0.00    +0.000 C 
ATOM     20  C   UNL     1       0.240   8.417  21.386  0.00  0.00    +0.000 C 
ENDBRANCH   1  20
BRANCH   1  21
ATOM     21  N   UNL     1       0.950  10.316  20.032  0.00  0.00    +0.000 N 
ATOM     22  H   UNL     1       1.610  10.673  19.341  0.00  0.00    +0.000 HD
BRANCH  21  23
ATOM     23  C   UNL     1      -0.362  10.948  19.868  0.00  0.00    +0.000 C 
BRANCH  23  24
ATOM     24  C   UNL     1      -0.290  11.914  18.689  0.00  0.00    +0.000 C 
BRANCH  24  25
ATOM     25  C   UNL     1      -1.638  12.054  17.972  0.00  0.00    +0.000 C 
BRANCH  25  26
ATOM     26  N   UNL     1      -2.397  10.792  17.947  0.00  0.00    +0.000 NA
ATOM     27  C   UNL     1      -2.127   9.944  16.762  0.00  0.00    +0.000 C 
ATOM     28  C   UNL     1      -2.761  10.458  15.458  0.00  0.00    +0.000 C 
ATOM     29  O   UNL     1      -4.174  10.647  15.601  0.00  0.00    +0.000 OA
ATOM     30  C   UNL     1      -4.461  11.538  16.685  0.00  0.00    +0.000 C 
ATOM     31  C   UNL     1      -3.856  11.032  18.006  0.00  0.00    +0.000 C 
ENDBRANCH  25  26
ENDBRANCH  24  25
ENDBRANCH  23  24
ENDBRANCH  21  23
ENDBRANCH   1  21
TORSDOF 7
ENDMDL
MODEL 5
REMARK VINA RESULT:      -7.1      0.552      1.352
REMARK  Name = 
REMARK  9 active torsions:
REMARK  status: ('A' for Active; 'I' for Inactive)
REMARK    1  A    between atoms: C_1  and  C_2
REMARK    2  A    between atoms: C_2  and  C_3
REMARK    3  A    between atoms: C_3  and  N_4
REMARK    4  A    between atoms: N_4  and  C_5
REMARK    5  A    between atoms: C_5  and  C_6
REMARK    6  A    between atoms: C_6  and  C_7
REMARK    7  A    between atoms: C_7  and  N_8
REMARK    8  A    between atoms: N_20  and  C_21
REMARK    9  A    between atoms: C_26  and  C_27
REMARK                            x       y       z     vdW  Elec       q    Type
REMARK                         _______ _______ _______ _____ _____    ______ ____
ROOT
ATOM      1  C   UNL     1       1.431   9.804  19.281  0.00  0.00    +0.000 C 
ATOM      2  C   UNL     1       1.583   8.513  19.684  0.00  0.00    +0.000 C 
ATOM      3  C   UNL     1       1.279   8.128  21.091  0.00  0.00    +0.000 C 
ATOM      4  O   UNL     1       1.163   8.887  22.051  0.00  0.00    +0.000 OA
ATOM      5  N   UNL     1       1.218   6.786  21.323  0.00  0.00    +0.000 N 
ATOM      6  C   UNL     1       2.015   5.891  20.681  0.00  0.00    +0.000 C 
ATOM      7  O   UNL     1       2.370   4.883  21.292  0.00  0.00    +0.000 OA
ATOM      8  N   UNL     1       2.410   6.226  19.398  0.00  0.00    +0.000 N 
ATOM      9  C   UNL     1       2.068   7.425  18.772  0.00  0.00    +0.000 C 
ATOM     10  O   UNL     1       2.085   7.565  17.551  0.00  0.00    +0.000 OA
ATOM     11  H   UNL     1       1.082   6.560  22.300  0.00  0.00    +0.000 HD
ENDROOT
BRANCH   8  12
ATOM     12  C   UNL     1       2.962   5.195  18.582  0.00  0.00    +0.000 A 
ATOM     13  C   UNL     1       2.080   4.326  17.917  0.00  0.00    +0.000 A 
ATOM     14  C   UNL     1       2.570   3.344  17.060  0.00  0.00    +0.000 A 
ATOM     15  C   UNL     1       3.942   3.212  16.873  0.00  0.00    +0.000 A 
ATOM     16  C   UNL     1       4.827   4.060  17.543  0.00  0.00    +0.000 A 
ATOM     17  C   UNL     1       4.353   5.061  18.405  0.00  0.00    +0.000 A 
ATOM     18  C   UNL     1       5.339   5.922  19.145  0.00  0.00    +0.000 C 
ENDBRANCH   8  12
BRANCH   1  20
ATOM     19  C   UNL     1       2.439  11.770  18.065  0.00  0.00    +0.000 C 
ATOM     20  C   UNL     1       1.881  10.359  17.930  0.00  0.00    +0.000 C 
ENDBRANCH   1  20
BRANCH   1  21
ATOM     21  N   UNL     1       0.843  10.775  20.098  0.00  0.00    +0.000 N 
ATOM     22  H   UNL     1       1.352  11.659  20.073  0.00  0.00    +0.000 HD
BRANCH  21  23
ATOM     23  C   UNL     1      -0.604  11.013  20.088  0.00  0.00    +0.000 C 
BRANCH  23  24
ATOM     24  C   UNL     1      -0.876  12.317  19.345  0.00  0.00    +0.000 C 
BRANCH  24  25
ATOM     25  C   UNL     1      -1.603  12.085  18.016  0.00  0.00    +0.000 C 
BRANCH  25  26
ATOM     26  N   UNL     1      -2.368  10.827  18.004  0.00  0.00    +0.000 NA
ATOM     27  C   UNL     1      -2.095   9.962  16.833  0.00  0.00    +0.000 C 
ATOM     28  C   UNL     1      -2.717  10.460  15.518  0.00  0.00    +0.000 C 
ATOM     29  O   UNL     1      -4.130  10.657  15.647  0.00  0.00    +0.000 OA
ATOM     30  C   UNL     1      -4.420  11.566  16.716  0.00  0.00    +0.000 C 
ATOM     31  C   UNL     1      -3.827  11.075  18.049  0.00  0.00    +0.000 C 
ENDBRANCH  25  26
ENDBRANCH  24  25
ENDBRANCH  23  24
ENDBRANCH  21  23
ENDBRANCH   1  21
TORSDOF 7
ENDMDL
MODEL 6
REMARK VINA RESULT:      -7.0      2.353      3.654
REMARK  Name = 
REMARK  9 active torsions:
REMARK  status: ('A' for Active; 'I' for Inactive)
REMARK    1  A    between atoms: C_1  and  C_2
REMARK    2  A    between atoms: C_2  and  C_3
REMARK    3  A    between atoms: C_3  and  N_4
REMARK    4  A    between atoms: N_4  and  C_5
REMARK    5  A    between atoms: C_5  and  C_6
REMARK    6  A    between atoms: C_6  and  C_7
REMARK    7  A    between atoms: C_7  and  N_8
REMARK    8  A    between atoms: N_20  and  C_21
REMARK    9  A    between atoms: C_26  and  C_27
REMARK                            x       y       z     vdW  Elec       q    Type
REMARK                         _______ _______ _______ _____ _____    ______ ____
ROOT
ATOM      1  C   UNL     1       2.101   7.472  19.612  0.00  0.00    +0.000 C 
ATOM      2  C   UNL     1       2.761   6.312  19.344  0.00  0.00    +0.000 C 
ATOM      3  C   UNL     1       2.637   5.151  20.269  0.00  0.00    +0.000 C 
ATOM      4  O   UNL     1       2.223   5.175  21.426  0.00  0.00    +0.000 OA
ATOM      5  N   UNL     1       3.124   3.972  19.786  0.00  0.00    +0.000 N 
ATOM      6  C   UNL     1       4.215   3.902  18.978  0.00  0.00    +0.000 C 
ATOM      7  O   UNL     1       4.947   2.917  19.070  0.00  0.00    +0.000 OA
ATOM      8  N   UNL     1       4.442   4.990  18.153  0.00  0.00    +0.000 N 
ATOM      9  C   UNL     1       3.646   6.135  18.145  0.00  0.00    +0.000 C 
ATOM     10  O   UNL     1       3.606   6.910  17.192  0.00  0.00    +0.000 OA
ATOM     11  H   UNL     1       3.089   3.223  20.465  0.00  0.00    +0.000 HD
ENDROOT
BRANCH   8  12
ATOM     12  C   UNL     1       5.365   4.826  17.077  0.00  0.00    +0.000 A 
ATOM     13  C   UNL     1       4.915   4.204  15.900  0.00  0.00    +0.000 A 
ATOM     14  C   UNL     1       5.760   4.079  14.801  0.00  0.00    +0.000 A 
ATOM     15  C   UNL     1       7.064   4.558  14.874  0.00  0.00    +0.000 A 
ATOM     16  C   UNL     1       7.526   5.162  16.046  0.00  0.00    +0.000 A 
ATOM     17  C   UNL     1       6.687   5.304  17.162  0.00  0.00    +0.000 A 
ATOM     18  C   UNL     1       7.236   5.916  18.421  0.00  0.00    +0.000 C 
ENDBRANCH   8  12
BRANCH   1  20
ATOM     19  C   UNL     1       1.155   9.021  17.862  0.00  0.00    +0.000 C 
ATOM     20  C   UNL     1       2.290   8.783  18.850  0.00  0.00    +0.000 C 
ENDBRANCH   1  20
BRANCH   1  21
ATOM     21  N   UNL     1       1.169   7.577  20.649  0.00  0.00    +0.000 N 
ATOM     22  H   UNL     1       1.031   6.689  21.133  0.00  0.00    +0.000 HD
BRANCH  21  23
ATOM     23  C   UNL     1       1.207   8.686  21.607  0.00  0.00    +0.000 C 
BRANCH  23  24
ATOM     24  C   UNL     1      -0.012   9.572  21.370  0.00  0.00    +0.000 C 
BRANCH  24  25
ATOM     25  C   UNL     1       0.369  11.046  21.196  0.00  0.00    +0.000 C 
BRANCH  25  26
ATOM     26  N   UNL     1      -0.804  11.911  20.983  0.00  0.00    +0.000 NA
ATOM     27  C   UNL     1      -1.573  11.601  19.755  0.00  0.00    +0.000 C 
ATOM     28  C   UNL     1      -0.891  12.050  18.452  0.00  0.00    +0.000 C 
ATOM     29  O   UNL     1      -0.575  13.446  18.479  0.00  0.00    +0.000 OA
ATOM     30  C   UNL     1       0.248  13.759  19.609  0.00  0.00    +0.000 C 
ATOM     31  C   UNL     1      -0.425  13.341  20.928  0.00  0.00    +0.000 C 
ENDBRANCH  25  26
ENDBRANCH  24  25
ENDBRANCH  23  24
ENDBRANCH  21  23
ENDBRANCH   1  21
TORSDOF 7
ENDMDL
MODEL 7
REMARK VINA RESULT:      -6.9      2.202      7.972
REMARK  Name = 
REMARK  9 active torsions:
REMARK  status: ('A' for Active; 'I' for Inactive)
REMARK    1  A    between atoms: C_1  and  C_2
REMARK    2  A    between atoms: C_2  and  C_3
REMARK    3  A    between atoms: C_3  and  N_4
REMARK    4  A    between atoms: N_4  and  C_5
REMARK    5  A    between atoms: C_5  and  C_6
REMARK    6  A    between atoms: C_6  and  C_7
REMARK    7  A    between atoms: C_7  and  N_8
REMARK    8  A    between atoms: N_20  and  C_21
REMARK    9  A    between atoms: C_26  and  C_27
REMARK                            x       y       z     vdW  Elec       q    Type
REMARK                         _______ _______ _______ _____ _____    ______ ____
ROOT
ATOM      1  C   UNL     1       2.718   6.859  18.561  0.00  0.00    +0.000 C 
ATOM      2  C   UNL     1       2.056   7.728  19.372  0.00  0.00    +0.000 C 
ATOM      3  C   UNL     1       1.655   7.312  20.745  0.00  0.00    +0.000 C 
ATOM      4  O   UNL     1       1.596   6.161  21.176  0.00  0.00    +0.000 OA
ATOM      5  N   UNL     1       1.231   8.322  21.556  0.00  0.00    +0.000 N 
ATOM      6  C   UNL     1       0.531   9.392  21.093  0.00  0.00    +0.000 C 
ATOM      7  O   UNL     1      -0.309   9.904  21.833  0.00  0.00    +0.000 OA
ATOM      8  N   UNL     1       0.789   9.781  19.790  0.00  0.00    +0.000 N 
ATOM      9  C   UNL     1       1.679   9.116  18.947  0.00  0.00    +0.000 C 
ATOM     10  O   UNL     1       2.186   9.651  17.963  0.00  0.00    +0.000 OA
ATOM     11  H   UNL     1       0.899   7.995  22.454  0.00  0.00    +0.000 HD
ENDROOT
BRANCH   8  12
ATOM     12  C   UNL     1       0.333  11.069  19.378  0.00  0.00    +0.000 A 
ATOM     13  C   UNL     1       1.093  12.194  19.740  0.00  0.00    +0.000 A 
ATOM     14  C   UNL     1       0.722  13.464  19.308  0.00  0.00    +0.000 A 
ATOM     15  C   UNL     1      -0.417  13.622  18.527  0.00  0.00    +0.000 A 
ATOM     16  C   UNL     1      -1.189  12.512  18.176  0.00  0.00    +0.000 A 
ATOM     17  C   UNL     1      -0.828  11.222  18.596  0.00  0.00    +0.000 A 
ATOM     18  C   UNL     1      -1.711  10.059  18.239  0.00  0.00    +0.000 C 
ENDBRANCH   8  12
BRANCH   1  20
ATOM     19  C   UNL     1       4.455   7.558  16.872  0.00  0.00    +0.000 C 
ATOM     20  C   UNL     1       3.018   7.097  17.082  0.00  0.00    +0.000 C 
ENDBRANCH   1  20
BRANCH   1  21
ATOM     21  N   UNL     1       3.189   5.624  19.018  0.00  0.00    +0.000 N 
ATOM     22  H   UNL     1       2.751   5.346  19.896  0.00  0.00    +0.000 HD
BRANCH  21  23
ATOM     23  C   UNL     1       3.321   4.472  18.120  0.00  0.00    +0.000 C 
BRANCH  23  24
ATOM     24  C   UNL     1       4.741   3.926  18.239  0.00  0.00    +0.000 C 
BRANCH  24  25
ATOM     25  C   UNL     1       5.652   4.856  19.049  0.00  0.00    +0.000 C 
BRANCH  25  26
ATOM     26  N   UNL     1       7.070   4.720  18.677  0.00  0.00    +0.000 NA
ATOM     27  C   UNL     1       7.892   5.918  18.967  0.00  0.00    +0.000 C 
ATOM     28  C   UNL     1       7.657   7.095  18.005  0.00  0.00    +0.000 C 
ATOM     29  O   UNL     1       7.847   6.704  16.641  0.00  0.00    +0.000 OA
ATOM     30  C   UNL     1       6.995   5.603  16.305  0.00  0.00    +0.000 C 
ATOM     31  C   UNL     1       7.230   4.403  17.239  0.00  0.00    +0.000 C 
ENDBRANCH  25  26
ENDBRANCH  24  25
ENDBRANCH  23  24
ENDBRANCH  21  23
ENDBRANCH   1  21
TORSDOF 7
ENDMDL
MODEL 8
REMARK VINA RESULT:      -6.8      2.201      3.574
REMARK  Name = 
REMARK  9 active torsions:
REMARK  status: ('A' for Active; 'I' for Inactive)
REMARK    1  A    between atoms: C_1  and  C_2
REMARK    2  A    between atoms: C_2  and  C_3
REMARK    3  A    between atoms: C_3  and  N_4
REMARK    4  A    between atoms: N_4  and  C_5
REMARK    5  A    between atoms: C_5  and  C_6
REMARK    6  A    between atoms: C_6  and  C_7
REMARK    7  A    between atoms: C_7  and  N_8
REMARK    8  A    between atoms: N_20  and  C_21
REMARK    9  A    between atoms: C_26  and  C_27
REMARK                            x       y       z     vdW  Elec       q    Type
REMARK                         _______ _______ _______ _____ _____    ______ ____
ROOT
ATOM      1  C   UNL     1       1.395   9.762  19.135  0.00  0.00    +0.000 C 
ATOM      2  C   UNL     1       1.744   8.477  19.415  0.00  0.00    +0.000 C 
ATOM      3  C   UNL     1       1.364   7.867  20.721  0.00  0.00    +0.000 C 
ATOM      4  O   UNL     1       1.000   8.465  21.732  0.00  0.00    +0.000 OA
ATOM      5  N   UNL     1       1.534   6.517  20.801  0.00  0.00    +0.000 N 
ATOM      6  C   UNL     1       2.553   5.866  20.180  0.00  0.00    +0.000 C 
ATOM      7  O   UNL     1       3.023   4.866  20.722  0.00  0.00    +0.000 OA
ATOM      8  N   UNL     1       3.017   6.427  19.003  0.00  0.00    +0.000 N 
ATOM      9  C   UNL     1       2.525   7.617  18.467  0.00  0.00    +0.000 C 
ATOM     10  O   UNL     1       2.652   7.913  17.280  0.00  0.00    +0.000 OA
ATOM     11  H   UNL     1       1.335   6.147  21.721  0.00  0.00    +0.000 HD
ENDROOT
BRANCH   8  12
ATOM     12  C   UNL     1       3.843   5.621  18.163  0.00  0.00    +0.000 A 
ATOM     13  C   UNL     1       5.207   5.944  18.061  0.00  0.00    +0.000 A 
ATOM     14  C   UNL     1       6.065   5.150  17.304  0.00  0.00    +0.000 A 
ATOM     15  C   UNL     1       5.565   4.040  16.632  0.00  0.00    +0.000 A 
ATOM     16  C   UNL     1       4.207   3.721  16.713  0.00  0.00    +0.000 A 
ATOM     17  C   UNL     1       3.328   4.505  17.477  0.00  0.00    +0.000 A 
ATOM     18  C   UNL     1       1.865   4.157  17.500  0.00  0.00    +0.000 C 
ENDBRANCH   8  12
BRANCH   1  20
ATOM     19  C   UNL     1       2.282  11.973  18.308  0.00  0.00    +0.000 C 
ATOM     20  C   UNL     1       1.879  10.555  17.922  0.00  0.00    +0.000 C 
ENDBRANCH   1  20
BRANCH   1  21
ATOM     21  N   UNL     1       0.546  10.502  19.964  0.00  0.00    +0.000 N 
ATOM     22  H   UNL     1       0.933  11.418  20.192  0.00  0.00    +0.000 HD
BRANCH  21  23
ATOM     23  C   UNL     1      -0.893  10.601  19.697  0.00  0.00    +0.000 C 
BRANCH  23  24
ATOM     24  C   UNL     1      -1.230  12.058  19.393  0.00  0.00    +0.000 C 
BRANCH  24  25
ATOM     25  C   UNL     1      -1.574  12.848  20.661  0.00  0.00    +0.000 C 
BRANCH  25  26
ATOM     26  N   UNL     1      -0.588  12.647  21.736  0.00  0.00    +0.000 NA
ATOM     27  C   UNL     1      -1.162  12.687  23.101  0.00  0.00    +0.000 C 
ATOM     28  C   UNL     1      -1.541  14.096  23.587  0.00  0.00    +0.000 C 
ATOM     29  O   UNL     1      -0.430  14.995  23.509  0.00  0.00    +0.000 OA
ATOM     30  C   UNL     1       0.089  15.047  22.174  0.00  0.00    +0.000 C 
ATOM     31  C   UNL     1       0.499  13.650  21.675  0.00  0.00    +0.000 C 
ENDBRANCH  25  26
ENDBRANCH  24  25
ENDBRANCH  23  24
ENDBRANCH  21  23
ENDBRANCH   1  21
TORSDOF 7
ENDMDL
MODEL 9
REMARK VINA RESULT:      -6.7      5.757      8.283
REMARK  Name = 
REMARK  9 active torsions:
REMARK  status: ('A' for Active; 'I' for Inactive)
REMARK    1  A    between atoms: C_1  and  C_2
REMARK    2  A    between atoms: C_2  and  C_3
REMARK    3  A    between atoms: C_3  and  N_4
REMARK    4  A    between atoms: N_4  and  C_5
REMARK    5  A    between atoms: C_5  and  C_6
REMARK    6  A    between atoms: C_6  and  C_7
REMARK    7  A    between atoms: C_7  and  N_8
REMARK    8  A    between atoms: N_20  and  C_21
REMARK    9  A    between atoms: C_26  and  C_27
REMARK                            x       y       z     vdW  Elec       q    Type
REMARK                         _______ _______ _______ _____ _____    ______ ____
ROOT
ATOM      1  C   UNL     1       6.090   6.676  17.270  0.00  0.00    +0.000 C 
ATOM      2  C   UNL     1       5.754   5.635  18.079  0.00  0.00    +0.000 C 
ATOM      3  C   UNL     1       6.816   4.766  18.661  0.00  0.00    +0.000 C 
ATOM      4  O   UNL     1       7.984   4.685  18.287  0.00  0.00    +0.000 OA
ATOM      5  N   UNL     1       6.398   3.922  19.646  0.00  0.00    +0.000 N 
ATOM      6  C   UNL     1       5.169   3.340  19.645  0.00  0.00    +0.000 C 
ATOM      7  O   UNL     1       5.056   2.213  20.126  0.00  0.00    +0.000 OA
ATOM      8  N   UNL     1       4.149   4.055  19.040  0.00  0.00    +0.000 N 
ATOM      9  C   UNL     1       4.334   5.289  18.417  0.00  0.00    +0.000 C 
ATOM     10  O   UNL     1       3.412   6.079  18.224  0.00  0.00    +0.000 OA
ATOM     11  H   UNL     1       7.126   3.298  19.968  0.00  0.00    +0.000 HD
ENDROOT
BRANCH   8  12
ATOM     12  C   UNL     1       2.807   3.644  19.297  0.00  0.00    +0.000 A 
ATOM     13  C   UNL     1       2.169   4.133  20.450  0.00  0.00    +0.000 A 
ATOM     14  C   UNL     1       0.839   3.811  20.710  0.00  0.00    +0.000 A 
ATOM     15  C   UNL     1       0.144   2.987  19.831  0.00  0.00    +0.000 A 
ATOM     16  C   UNL     1       0.775   2.483  18.692  0.00  0.00    +0.000 A 
ATOM     17  C   UNL     1       2.112   2.801  18.408  0.00  0.00    +0.000 A 
ATOM     18  C   UNL     1       2.770   2.199  17.198  0.00  0.00    +0.000 C 
ENDBRANCH   8  12
BRANCH   1  20
ATOM     19  C   UNL     1       4.835   6.916  15.097  0.00  0.00    +0.000 C 
ATOM     20  C   UNL     1       5.099   7.519  16.470  0.00  0.00    +0.000 C 
ENDBRANCH   1  20
BRANCH   1  21
ATOM     21  N   UNL     1       7.418   7.074  17.081  0.00  0.00    +0.000 N 
ATOM     22  H   UNL     1       7.566   7.495  16.164  0.00  0.00    +0.000 HD
BRANCH  21  23
ATOM     23  C   UNL     1       8.152   7.812  18.113  0.00  0.00    +0.000 C 
BRANCH  23  24
ATOM     24  C   UNL     1       8.142   9.294  17.749  0.00  0.00    +0.000 C 
BRANCH  24  25
ATOM     25  C   UNL     1       8.977  10.135  18.720  0.00  0.00    +0.000 C 
BRANCH  25  26
ATOM     26  N   UNL     1       9.777  11.162  18.032  0.00  0.00    +0.000 NA
ATOM     27  C   UNL     1      11.074  11.459  18.684  0.00  0.00    +0.000 C 
ATOM     28  C   UNL     1      10.960  12.283  19.977  0.00  0.00    +0.000 C 
ATOM     29  O   UNL     1      10.243  13.504  19.760  0.00  0.00    +0.000 OA
ATOM     30  C   UNL     1       8.945  13.240  19.215  0.00  0.00    +0.000 C 
ATOM     31  C   UNL     1       9.036  12.437  17.905  0.00  0.00    +0.000 C 
ENDBRANCH  25  26
ENDBRANCH  24  25
ENDBRANCH  23  24
ENDBRANCH  21  23
ENDBRANCH   1  21
TORSDOF 7
ENDMDL
