MODEL 1
REMARK VINA RESULT:      -6.6      0.000      0.000
REMARK  Name = 
REMARK  4 active torsions:
REMARK  status: ('A' for Active; 'I' for Inactive)
REMARK    1  A    between atoms: N_1  and  C_2
REMARK    2  A    between atoms: N_10  and  C_11
REMARK    3  A    between atoms: C_14  and  C_15
REMARK    4  A    between atoms: C_15  and  O_16
REMARK                            x       y       z     vdW  Elec       q    Type
REMARK                         _______ _______ _______ _____ _____    ______ ____
ROOT
ATOM      1  C   UNL     1       7.276   7.002  17.831  0.00  0.00    +0.000 A 
ATOM      2  N   UNL     1       8.077   6.545  18.840  0.00  0.00    +0.000 NA
ATOM      3  C   UNL     1       7.663   5.547  19.687  0.00  0.00    +0.000 A 
ATOM      4  N   UNL     1       6.427   4.975  19.537  0.00  0.00    +0.000 NA
ATOM      5  C   UNL     1       5.636   5.430  18.534  0.00  0.00    +0.000 A 
ATOM      6  C   UNL     1       6.024   6.419  17.693  0.00  0.00    +0.000 A 
ATOM      7  N   UNL     1       5.047   6.676  16.807  0.00  0.00    +0.000 NA
ATOM      8  C   UNL     1       4.062   5.810  17.152  0.00  0.00    +0.000 A 
ATOM      9  N   UNL     1       4.398   5.028  18.210  0.00  0.00    +0.000 N 
ENDROOT
BRANCH   9  10
ATOM     10  C   UNL     1       3.572   3.991  18.837  0.00  0.00    +0.000 C 
ATOM     11  C   UNL     1       2.662   3.349  17.800  0.00  0.00    +0.000 C 
ATOM     12 SE   UNL     1       1.250   2.503  18.785  0.00  0.00    +0.000 Se
ATOM     13  C   UNL     1       1.828   3.615  20.279  0.00  0.00    +0.000 C 
ATOM     14  O   UNL     1       2.785   4.570  19.851  0.00  0.00    +0.000 OA
BRANCH  13  15
ATOM     15  C   UNL     1       2.378   2.706  21.384  0.00  0.00    +0.000 C 
BRANCH  15  16
ATOM     16  O   UNL     1       1.427   2.508  22.391  0.00  0.00    +0.000 OA
ATOM     17  H   UNL     1       1.871   1.957  23.088  0.00  0.00    +0.000 HD
ENDBRANCH  15  16
ENDBRANCH  13  15
ENDBRANCH   9  10
BRANCH   1  18
ATOM     18  N   UNL     1       7.718   8.033  16.968  0.00  0.00    +0.000 N 
ATOM     19  H   UNL     1       7.472   8.012  15.968  0.00  0.00    +0.000 HD
ATOM     20  H   UNL     1       8.287   8.813  17.326  0.00  0.00    +0.000 HD
ENDBRANCH   1  18
TORSDOF 4
ENDMDL
MODEL 2
REMARK VINA RESULT:      -6.3      1.519      1.553
REMARK  Name = 
REMARK  4 active torsions:
REMARK  status: ('A' for Active; 'I' for Inactive)
REMARK    1  A    between atoms: N_1  and  C_2
REMARK    2  A    between atoms: N_10  and  C_11
REMARK    3  A    between atoms: C_14  and  C_15
REMARK    4  A    between atoms: C_15  and  O_16
REMARK                            x       y       z     vdW  Elec       q    Type
REMARK                         _______ _______ _______ _____ _____    ______ ____
ROOT
ATOM      1  C   UNL     1       7.112   5.424  16.459  0.00  0.00    +0.000 A 
ATOM      2  N   UNL     1       7.802   5.831  17.566  0.00  0.00    +0.000 NA
ATOM      3  C   UNL     1       7.333   5.584  18.833  0.00  0.00    +0.000 A 
ATOM      4  N   UNL     1       6.154   4.914  19.019  0.00  0.00    +0.000 NA
ATOM      5  C   UNL     1       5.472   4.510  17.918  0.00  0.00    +0.000 A 
ATOM      6  C   UNL     1       5.915   4.750  16.661  0.00  0.00    +0.000 A 
ATOM      7  N   UNL     1       5.045   4.254  15.766  0.00  0.00    +0.000 NA
ATOM      8  C   UNL     1       4.066   3.712  16.533  0.00  0.00    +0.000 A 
ATOM      9  N   UNL     1       4.305   3.853  17.862  0.00  0.00    +0.000 N 
ENDROOT
BRANCH   9  10
ATOM     10  C   UNL     1       3.456   3.387  18.964  0.00  0.00    +0.000 C 
ATOM     11  C   UNL     1       2.542   2.269  18.483  0.00  0.00    +0.000 C 
ATOM     12 SE   UNL     1       1.109   2.172  19.754  0.00  0.00    +0.000 Se
ATOM     13  C   UNL     1       1.696   3.941  20.327  0.00  0.00    +0.000 C 
ATOM     14  O   UNL     1       2.672   4.456  19.437  0.00  0.00    +0.000 OA
BRANCH  13  15
ATOM     15  C   UNL     1       2.223   3.843  21.763  0.00  0.00    +0.000 C 
BRANCH  15  16
ATOM     16  O   UNL     1       2.479   2.512  22.114  0.00  0.00    +0.000 OA
ATOM     17  H   UNL     1       2.186   2.412  23.057  0.00  0.00    +0.000 HD
ENDBRANCH  15  16
ENDBRANCH  13  15
ENDBRANCH   9  10
BRANCH   1  18
ATOM     18  N   UNL     1       7.609   5.688  15.160  0.00  0.00    +0.000 N 
ATOM     19  H   UNL     1       6.957   5.847  14.379  0.00  0.00    +0.000 HD
ATOM     20  H   UNL     1       8.623   5.726  14.980  0.00  0.00    +0.000 HD
ENDBRANCH   1  18
TORSDOF 4
ENDMDL
MODEL 3
REMARK VINA RESULT:      -6.3      3.320      4.063
REMARK  Name = 
REMARK  4 active torsions:
REMARK  status: ('A' for Active; 'I' for Inactive)
REMARK    1  A    between atoms: N_1  and  C_2
REMARK    2  A    between atoms: N_10  and  C_11
REMARK    3  A    between atoms: C_14  and  C_15
REMARK    4  A    between atoms: C_15  and  O_16
REMARK                            x       y       z     vdW  Elec       q    Type
REMARK                         _______ _______ _______ _____ _____    ______ ____
ROOT
ATOM      1  C   UNL     1       7.666   5.174  13.496  0.00  0.00    +0.000 A 
ATOM      2  N   UNL     1       7.084   4.355  12.569  0.00  0.00    +0.000 NA
ATOM      3  C   UNL     1       5.973   3.606  12.872  0.00  0.00    +0.000 A 
ATOM      4  N   UNL     1       5.412   3.668  14.119  0.00  0.00    +0.000 NA
ATOM      5  C   UNL     1       5.990   4.482  15.036  0.00  0.00    +0.000 A 
ATOM      6  C   UNL     1       7.091   5.222  14.759  0.00  0.00    +0.000 A 
ATOM      7  N   UNL     1       7.456   5.925  15.845  0.00  0.00    +0.000 NA
ATOM      8  C   UNL     1       6.537   5.575  16.779  0.00  0.00    +0.000 A 
ATOM      9  N   UNL     1       5.621   4.690  16.308  0.00  0.00    +0.000 N 
ENDROOT
BRANCH   9  10
ATOM     10  C   UNL     1       4.497   4.108  17.049  0.00  0.00    +0.000 C 
ATOM     11  C   UNL     1       3.547   5.205  17.507  0.00  0.00    +0.000 C 
ATOM     12 SE   UNL     1       2.511   4.448  18.932  0.00  0.00    +0.000 Se
ATOM     13  C   UNL     1       3.887   3.068  19.001  0.00  0.00    +0.000 C 
ATOM     14  O   UNL     1       4.985   3.416  18.174  0.00  0.00    +0.000 OA
BRANCH  13  15
ATOM     15  C   UNL     1       3.262   1.730  18.592  0.00  0.00    +0.000 C 
BRANCH  15  16
ATOM     16  O   UNL     1       4.239   0.733  18.479  0.00  0.00    +0.000 OA
ATOM     17  H   UNL     1       5.007   1.033  19.032  0.00  0.00    +0.000 HD
ENDBRANCH  15  16
ENDBRANCH  13  15
ENDBRANCH   9  10
BRANCH   1  18
ATOM     18  N   UNL     1       8.812   5.937  13.169  0.00  0.00    +0.000 N 
ATOM     19  H   UNL     1       9.148   6.667  13.812  0.00  0.00    +0.000 HD
ATOM     20  H   UNL     1       9.322   5.772  12.289  0.00  0.00    +0.000 HD
ENDBRANCH   1  18
TORSDOF 4
ENDMDL
MODEL 4
REMARK VINA RESULT:      -6.2      3.407      5.794
REMARK  Name = 
REMARK  4 active torsions:
REMARK  status: ('A' for Active; 'I' for Inactive)
REMARK    1  A    between atoms: N_1  and  C_2
REMARK    2  A    between atoms: N_10  and  C_11
REMARK    3  A    between atoms: C_14  and  C_15
REMARK    4  A    between atoms: C_15  and  O_16
REMARK                            x       y       z     vdW  Elec       q    Type
REMARK                         _______ _______ _______ _____ _____    ______ ____
ROOT
ATOM      1  C   UNL     1       1.250   2.772  19.141  0.00  0.00    +0.000 A 
ATOM      2  N   UNL     1       0.798   3.605  20.126  0.00  0.00    +0.000 NA
ATOM      3  C   UNL     1       1.539   4.681  20.550  0.00  0.00    +0.000 A 
ATOM      4  N   UNL     1       2.758   4.950  19.988  0.00  0.00    +0.000 NA
ATOM      5  C   UNL     1       3.203   4.122  19.010  0.00  0.00    +0.000 A 
ATOM      6  C   UNL     1       2.490   3.052  18.583  0.00  0.00    +0.000 A 
ATOM      7  N   UNL     1       3.168   2.405  17.621  0.00  0.00    +0.000 NA
ATOM      8  C   UNL     1       4.311   3.123  17.492  0.00  0.00    +0.000 A 
ATOM      9  N   UNL     1       4.359   4.188  18.333  0.00  0.00    +0.000 N 
ENDROOT
BRANCH   9  10
ATOM     10  C   UNL     1       5.444   5.167  18.454  0.00  0.00    +0.000 C 
ATOM     11  C   UNL     1       5.491   6.051  17.215  0.00  0.00    +0.000 C 
ATOM     12 SE   UNL     1       7.243   6.831  17.188  0.00  0.00    +0.000 Se
ATOM     13  C   UNL     1       7.722   5.436  18.463  0.00  0.00    +0.000 C 
ATOM     14  O   UNL     1       6.672   4.492  18.590  0.00  0.00    +0.000 OA
BRANCH  13  15
ATOM     15  C   UNL     1       8.066   6.093  19.804  0.00  0.00    +0.000 C 
BRANCH  15  16
ATOM     16  O   UNL     1       8.354   5.129  20.777  0.00  0.00    +0.000 OA
ATOM     17  H   UNL     1       7.479   4.800  21.111  0.00  0.00    +0.000 HD
ENDBRANCH  15  16
ENDBRANCH  13  15
ENDBRANCH   9  10
BRANCH   1  18
ATOM     18  N   UNL     1       0.474   1.667  18.717  0.00  0.00    +0.000 N 
ATOM     19  H   UNL     1       0.519   1.349  17.738  0.00  0.00    +0.000 HD
ATOM     20  H   UNL     1      -0.140   1.168  19.377  0.00  0.00    +0.000 HD
ENDBRANCH   1  18
TORSDOF 4
ENDMDL
MODEL 5
REMARK VINA RESULT:      -6.1      3.468      5.915
REMARK  Name = 
REMARK  4 active torsions:
REMARK  status: ('A' for Active; 'I' for Inactive)
REMARK    1  A    between atoms: N_1  and  C_2
REMARK    2  A    between atoms: N_10  and  C_11
REMARK    3  A    between atoms: C_14  and  C_15
REMARK    4  A    between atoms: C_15  and  O_16
REMARK                            x       y       z     vdW  Elec       q    Type
REMARK                         _______ _______ _______ _____ _____    ______ ____
ROOT
ATOM      1  C   UNL     1       1.287   3.620  20.142  0.00  0.00    +0.000 A 
ATOM      2  N   UNL     1       1.166   4.869  20.685  0.00  0.00    +0.000 NA
ATOM      3  C   UNL     1       2.045   5.876  20.369  0.00  0.00    +0.000 A 
ATOM      4  N   UNL     1       3.070   5.653  19.488  0.00  0.00    +0.000 NA
ATOM      5  C   UNL     1       3.186   4.414  18.950  0.00  0.00    +0.000 A 
ATOM      6  C   UNL     1       2.334   3.406  19.255  0.00  0.00    +0.000 A 
ATOM      7  N   UNL     1       2.685   2.292  18.592  0.00  0.00    +0.000 NA
ATOM      8  C   UNL     1       3.779   2.669  17.883  0.00  0.00    +0.000 A 
ATOM      9  N   UNL     1       4.108   3.971  18.083  0.00  0.00    +0.000 N 
ENDROOT
BRANCH   9  10
ATOM     10  C   UNL     1       5.228   4.700  17.476  0.00  0.00    +0.000 C 
ATOM     11  C   UNL     1       5.440   4.234  16.043  0.00  0.00    +0.000 C 
ATOM     12 SE   UNL     1       7.226   4.755  15.576  0.00  0.00    +0.000 Se
ATOM     13  C   UNL     1       7.506   4.969  17.493  0.00  0.00    +0.000 C 
ATOM     14  O   UNL     1       6.399   4.462  18.220  0.00  0.00    +0.000 OA
BRANCH  13  15
ATOM     15  C   UNL     1       7.756   6.452  17.791  0.00  0.00    +0.000 C 
BRANCH  15  16
ATOM     16  O   UNL     1       7.727   7.211  16.615  0.00  0.00    +0.000 OA
ATOM     17  H   UNL     1       6.801   7.560  16.532  0.00  0.00    +0.000 HD
ENDBRANCH  15  16
ENDBRANCH  13  15
ENDBRANCH   9  10
BRANCH   1  18
ATOM     18  N   UNL     1       0.374   2.594  20.480  0.00  0.00    +0.000 N 
ATOM     19  H   UNL     1       0.288   2.278  21.457  0.00  0.00    +0.000 HD
ATOM     20  H   UNL     1      -0.214   2.151  19.759  0.00  0.00    +0.000 HD
ENDBRANCH   1  18
TORSDOF 4
ENDMDL
MODEL 6
REMARK VINA RESULT:      -6.0      3.499      6.015
REMARK  Name = 
REMARK  4 active torsions:
REMARK  status: ('A' for Active; 'I' for Inactive)
REMARK    1  A    between atoms: N_1  and  C_2
REMARK    2  A    between atoms: N_10  and  C_11
REMARK    3  A    between atoms: C_14  and  C_15
REMARK    4  A    between atoms: C_15  and  O_16
REMARK                            x       y       z     vdW  Elec       q    Type
REMARK                         _______ _______ _______ _____ _____    ______ ____
ROOT
ATOM      1  C   UNL     1       1.760   3.822  20.855  0.00  0.00    +0.000 A 
ATOM      2  N   UNL     1       1.405   5.142  20.868  0.00  0.00    +0.000 NA
ATOM      3  C   UNL     1       2.094   6.077  20.135  0.00  0.00    +0.000 A 
ATOM      4  N   UNL     1       3.161   5.704  19.362  0.00  0.00    +0.000 NA
ATOM      5  C   UNL     1       3.510   4.394  19.350  0.00  0.00    +0.000 A 
ATOM      6  C   UNL     1       2.848   3.459  20.072  0.00  0.00    +0.000 A 
ATOM      7  N   UNL     1       3.409   2.253  19.885  0.00  0.00    +0.000 NA
ATOM      8  C   UNL     1       4.431   2.502  19.029  0.00  0.00    +0.000 A 
ATOM      9  N   UNL     1       4.516   3.812  18.681  0.00  0.00    +0.000 N 
ENDROOT
BRANCH   9  10
ATOM     10  C   UNL     1       5.499   4.422  17.779  0.00  0.00    +0.000 C 
ATOM     11  C   UNL     1       6.373   5.404  18.546  0.00  0.00    +0.000 C 
ATOM     12 SE   UNL     1       7.157   6.556  17.228  0.00  0.00    +0.000 Se
ATOM     13  C   UNL     1       5.773   5.882  16.031  0.00  0.00    +0.000 C 
ATOM     14  O   UNL     1       4.827   5.105  16.747  0.00  0.00    +0.000 OA
BRANCH  13  15
ATOM     15  C   UNL     1       6.441   5.080  14.909  0.00  0.00    +0.000 C 
BRANCH  15  16
ATOM     16  O   UNL     1       7.807   5.376  14.825  0.00  0.00    +0.000 OA
ATOM     17  H   UNL     1       7.883   6.180  14.248  0.00  0.00    +0.000 HD
ENDBRANCH  15  16
ENDBRANCH  13  15
ENDBRANCH   9  10
BRANCH   1  18
ATOM     18  N   UNL     1       1.040   2.873  21.618  0.00  0.00    +0.000 N 
ATOM     19  H   UNL     1       1.312   2.679  22.593  0.00  0.00    +0.000 HD
ATOM     20  H   UNL     1       0.240   2.366  21.213  0.00  0.00    +0.000 HD
ENDBRANCH   1  18
TORSDOF 4
ENDMDL
MODEL 7
REMARK VINA RESULT:      -6.0      3.277      5.695
REMARK  Name = 
REMARK  4 active torsions:
REMARK  status: ('A' for Active; 'I' for Inactive)
REMARK    1  A    between atoms: N_1  and  C_2
REMARK    2  A    between atoms: N_10  and  C_11
REMARK    3  A    between atoms: C_14  and  C_15
REMARK    4  A    between atoms: C_15  and  O_16
REMARK                            x       y       z     vdW  Elec       q    Type
REMARK                         _______ _______ _______ _____ _____    ______ ____
ROOT
ATOM      1  C   UNL     1       1.341   2.837  19.211  0.00  0.00    +0.000 A 
ATOM      2  N   UNL     1       1.887   1.793  18.519  0.00  0.00    +0.000 NA
ATOM      3  C   UNL     1       3.158   1.862  18.004  0.00  0.00    +0.000 A 
ATOM      4  N   UNL     1       3.919   2.987  18.179  0.00  0.00    +0.000 NA
ATOM      5  C   UNL     1       3.375   4.021  18.867  0.00  0.00    +0.000 A 
ATOM      6  C   UNL     1       2.120   3.975  19.376  0.00  0.00    +0.000 A 
ATOM      7  N   UNL     1       1.834   5.131  19.997  0.00  0.00    +0.000 NA
ATOM      8  C   UNL     1       2.961   5.870  19.837  0.00  0.00    +0.000 A 
ATOM      9  N   UNL     1       3.927   5.210  19.148  0.00  0.00    +0.000 N 
ENDROOT
BRANCH   9  10
ATOM     10  C   UNL     1       5.260   5.713  18.800  0.00  0.00    +0.000 C 
ATOM     11  C   UNL     1       5.288   6.158  17.344  0.00  0.00    +0.000 C 
ATOM     12 SE   UNL     1       7.137   6.197  16.837  0.00  0.00    +0.000 Se
ATOM     13  C   UNL     1       7.442   5.111  18.428  0.00  0.00    +0.000 C 
ATOM     14  O   UNL     1       6.211   4.692  18.992  0.00  0.00    +0.000 OA
BRANCH  13  15
ATOM     15  C   UNL     1       8.281   5.921  19.422  0.00  0.00    +0.000 C 
BRANCH  15  16
ATOM     16  O   UNL     1       8.209   5.370  20.707  0.00  0.00    +0.000 OA
ATOM     17  H   UNL     1       7.957   4.417  20.587  0.00  0.00    +0.000 HD
ENDBRANCH  15  16
ENDBRANCH  13  15
ENDBRANCH   9  10
BRANCH   1  18
ATOM     18  N   UNL     1       0.028   2.750  19.734  0.00  0.00    +0.000 N 
ATOM     19  H   UNL     1      -0.634   2.058  19.356  0.00  0.00    +0.000 HD
ATOM     20  H   UNL     1      -0.280   3.374  20.494  0.00  0.00    +0.000 HD
ENDBRANCH   1  18
TORSDOF 4
ENDMDL
MODEL 8
REMARK VINA RESULT:      -6.0      3.257      5.874
REMARK  Name = 
REMARK  4 active torsions:
REMARK  status: ('A' for Active; 'I' for Inactive)
REMARK    1  A    between atoms: N_1  and  C_2
REMARK    2  A    between atoms: N_10  and  C_11
REMARK    3  A    between atoms: C_14  and  C_15
REMARK    4  A    between atoms: C_15  and  O_16
REMARK                            x       y       z     vdW  Elec       q    Type
REMARK                         _______ _______ _______ _____ _____    ______ ____
ROOT
ATOM      1  C   UNL     1       1.620   2.935  19.728  0.00  0.00    +0.000 A 
ATOM      2  N   UNL     1       2.147   1.798  19.182  0.00  0.00    +0.000 NA
ATOM      3  C   UNL     1       3.308   1.828  18.448  0.00  0.00    +0.000 A 
ATOM      4  N   UNL     1       3.974   3.007  18.249  0.00  0.00    +0.000 NA
ATOM      5  C   UNL     1       3.450   4.133  18.793  0.00  0.00    +0.000 A 
ATOM      6  C   UNL     1       2.302   4.125  19.513  0.00  0.00    +0.000 A 
ATOM      7  N   UNL     1       2.009   5.371  19.921  0.00  0.00    +0.000 NA
ATOM      8  C   UNL     1       3.019   6.122  19.415  0.00  0.00    +0.000 A 
ATOM      9  N   UNL     1       3.922   5.386  18.719  0.00  0.00    +0.000 N 
ENDROOT
BRANCH   9  10
ATOM     10  C   UNL     1       5.128   5.878  18.044  0.00  0.00    +0.000 C 
ATOM     11  C   UNL     1       5.180   5.353  16.616  0.00  0.00    +0.000 C 
ATOM     12 SE   UNL     1       7.007   5.518  16.058  0.00  0.00    +0.000 Se
ATOM     13  C   UNL     1       7.414   5.713  17.955  0.00  0.00    +0.000 C 
ATOM     14  O   UNL     1       6.268   5.437  18.743  0.00  0.00    +0.000 OA
BRANCH  13  15
ATOM     15  C   UNL     1       7.952   7.127  18.199  0.00  0.00    +0.000 C 
BRANCH  15  16
ATOM     16  O   UNL     1       7.788   7.930  17.064  0.00  0.00    +0.000 OA
ATOM     17  H   UNL     1       7.914   8.867  17.366  0.00  0.00    +0.000 HD
ENDBRANCH  15  16
ENDBRANCH  13  15
ENDBRANCH   9  10
BRANCH   1  18
ATOM     18  N   UNL     1       0.422   2.887  20.479  0.00  0.00    +0.000 N 
ATOM     19  H   UNL     1      -0.243   2.112  20.345  0.00  0.00    +0.000 HD
ATOM     20  H   UNL     1       0.201   3.621  21.168  0.00  0.00    +0.000 HD
ENDBRANCH   1  18
TORSDOF 4
ENDMDL
MODEL 9
REMARK VINA RESULT:      -6.0      3.435      6.000
REMARK  Name = 
REMARK  4 active torsions:
REMARK  status: ('A' for Active; 'I' for Inactive)
REMARK    1  A    between atoms: N_1  and  C_2
REMARK    2  A    between atoms: N_10  and  C_11
REMARK    3  A    between atoms: C_14  and  C_15
REMARK    4  A    between atoms: C_15  and  O_16
REMARK                            x       y       z     vdW  Elec       q    Type
REMARK                         _______ _______ _______ _____ _____    ______ ____
ROOT
ATOM      1  C   UNL     1       1.794   3.436  21.219  0.00  0.00    +0.000 A 
ATOM      2  N   UNL     1       1.158   4.643  21.145  0.00  0.00    +0.000 NA
ATOM      3  C   UNL     1       1.653   5.667  20.375  0.00  0.00    +0.000 A 
ATOM      4  N   UNL     1       2.803   5.499  19.651  0.00  0.00    +0.000 NA
ATOM      5  C   UNL     1       3.431   4.300  19.724  0.00  0.00    +0.000 A 
ATOM      6  C   UNL     1       2.963   3.280  20.484  0.00  0.00    +0.000 A 
ATOM      7  N   UNL     1       3.780   2.219  20.382  0.00  0.00    +0.000 NA
ATOM      8  C   UNL     1       4.754   2.643  19.538  0.00  0.00    +0.000 A 
ATOM      9  N   UNL     1       4.563   3.919  19.115  0.00  0.00    +0.000 N 
ENDROOT
BRANCH   9  10
ATOM     10  C   UNL     1       5.421   4.683  18.203  0.00  0.00    +0.000 C 
ATOM     11  C   UNL     1       5.350   4.093  16.801  0.00  0.00    +0.000 C 
ATOM     12 SE   UNL     1       6.908   4.729  15.880  0.00  0.00    +0.000 Se
ATOM     13  C   UNL     1       7.594   5.167  17.652  0.00  0.00    +0.000 C 
ATOM     14  O   UNL     1       6.751   4.636  18.661  0.00  0.00    +0.000 OA
BRANCH  13  15
ATOM     15  C   UNL     1       7.731   6.689  17.763  0.00  0.00    +0.000 C 
BRANCH  15  16
ATOM     16  O   UNL     1       7.165   7.327  16.653  0.00  0.00    +0.000 OA
ATOM     17  H   UNL     1       6.425   7.889  17.002  0.00  0.00    +0.000 HD
ENDBRANCH  15  16
ENDBRANCH  13  15
ENDBRANCH   9  10
BRANCH   1  18
ATOM     18  N   UNL     1       1.272   2.392  22.019  0.00  0.00    +0.000 N 
ATOM     19  H   UNL     1       0.347   2.492  22.461  0.00  0.00    +0.000 HD
ATOM     20  H   UNL     1       1.805   1.523  22.168  0.00  0.00    +0.000 HD
ENDBRANCH   1  18
TORSDOF 4
ENDMDL
