MODEL 1
REMARK VINA RESULT:      -7.6      0.000      0.000
REMARK  Name = 
REMARK  7 active torsions:
REMARK  status: ('A' for Active; 'I' for Inactive)
REMARK    1  A    between atoms: C_1  and  C_2
REMARK    2  A    between atoms: C_2  and  N_3
REMARK    3  A    between atoms: C_2  and  C_21
REMARK    4  A    between atoms: N_3  and  C_4
REMARK    5  A    between atoms: C_8  and  S_9
REMARK    6  A    between atoms: S_9  and  N_12
REMARK    7  A    between atoms: N_12  and  C_13
REMARK                            x       y       z     vdW  Elec       q    Type
REMARK                         _______ _______ _______ _____ _____    ______ ____
ROOT
ATOM      1  C   UNL     1       1.884   7.126  20.270  0.00  0.00    +0.000 A 
ATOM      2  C   UNL     1       1.838   5.880  20.907  0.00  0.00    +0.000 A 
ATOM      3  C   UNL     1       2.129   4.698  20.219  0.00  0.00    +0.000 A 
ATOM      4  F   UNL     1       2.034   3.544  20.889  0.00  0.00    +0.000 F 
ATOM      5  C   UNL     1       2.520   4.738  18.888  0.00  0.00    +0.000 A 
ATOM      6  C   UNL     1       2.587   5.964  18.222  0.00  0.00    +0.000 A 
ATOM      7  C   UNL     1       2.271   7.141  18.910  0.00  0.00    +0.000 A 
ATOM      8 CL   UNL     1       2.402   8.636  18.047  0.00  0.00    +0.000 Cl
ENDROOT
BRANCH   5   9
ATOM      9  S   UNL     1       2.889   3.245  18.009  0.00  0.00    +0.000 S 
ATOM     10  O   UNL     1       2.046   2.173  18.488  0.00  0.00    +0.000 OA
ATOM     11  O   UNL     1       2.905   3.589  16.600  0.00  0.00    +0.000 OA
BRANCH   9  12
ATOM     12  N   UNL     1       4.505   2.931  18.426  0.00  0.00    +0.000 N 
ATOM     13  H   UNL     1       4.795   2.085  17.940  0.00  0.00    +0.000 HD
BRANCH  12  14
ATOM     14  C   UNL     1       5.415   3.973  18.284  0.00  0.00    +0.000 A 
ATOM     15  C   UNL     1       5.871   4.497  17.093  0.00  0.00    +0.000 A 
ATOM     16  S   UNL     1       6.979   5.769  17.401  0.00  0.00    +0.000 S 
ATOM     17  C   UNL     1       6.751   5.520  19.083  0.00  0.00    +0.000 A 
ATOM     18  N   UNL     1       5.881   4.592  19.421  0.00  0.00    +0.000 NA
ENDBRANCH  12  14
ENDBRANCH   9  12
ENDBRANCH   5   9
BRANCH   1  19
ATOM     19  N   UNL     1       1.635   8.312  20.941  0.00  0.00    +0.000 N 
ATOM     20  H   UNL     1       2.454   8.863  21.189  0.00  0.00    +0.000 HD
BRANCH  19  22
ATOM     21  C   UNL     1       0.210   9.277  22.653  0.00  0.00    +0.000 C 
ATOM     22  C   UNL     1       0.328   8.917  21.165  0.00  0.00    +0.000 C 
BRANCH  22  23
ATOM     23  C   UNL     1       0.123  10.127  20.275  0.00  0.00    +0.000 A 
ATOM     24  C   UNL     1       0.834  11.308  20.543  0.00  0.00    +0.000 A 
ATOM     25  C   UNL     1       0.629  12.452  19.771  0.00  0.00    +0.000 A 
ATOM     26  C   UNL     1      -0.276  12.426  18.713  0.00  0.00    +0.000 A 
ATOM     27  C   UNL     1      -0.971  11.254  18.421  0.00  0.00    +0.000 A 
ATOM     28  C   UNL     1      -0.773  10.110  19.197  0.00  0.00    +0.000 A 
ENDBRANCH  22  23
ENDBRANCH  19  22
ENDBRANCH   1  19
TORSDOF 6
ENDMDL
MODEL 2
REMARK VINA RESULT:      -7.6      0.932      1.092
REMARK  Name = 
REMARK  7 active torsions:
REMARK  status: ('A' for Active; 'I' for Inactive)
REMARK    1  A    between atoms: C_1  and  C_2
REMARK    2  A    between atoms: C_2  and  N_3
REMARK    3  A    between atoms: C_2  and  C_21
REMARK    4  A    between atoms: N_3  and  C_4
REMARK    5  A    between atoms: C_8  and  S_9
REMARK    6  A    between atoms: S_9  and  N_12
REMARK    7  A    between atoms: N_12  and  C_13
REMARK                            x       y       z     vdW  Elec       q    Type
REMARK                         _______ _______ _______ _____ _____    ______ ____
ROOT
ATOM      1  C   UNL     1       1.893   7.434  20.047  0.00  0.00    +0.000 A 
ATOM      2  C   UNL     1       1.960   6.272  20.827  0.00  0.00    +0.000 A 
ATOM      3  C   UNL     1       2.432   5.066  20.298  0.00  0.00    +0.000 A 
ATOM      4  F   UNL     1       2.437   3.993  21.097  0.00  0.00    +0.000 F 
ATOM      5  C   UNL     1       2.895   5.005  18.992  0.00  0.00    +0.000 A 
ATOM      6  C   UNL     1       2.853   6.146  18.187  0.00  0.00    +0.000 A 
ATOM      7  C   UNL     1       2.357   7.343  18.714  0.00  0.00    +0.000 A 
ATOM      8 CL   UNL     1       2.357   8.736  17.685  0.00  0.00    +0.000 Cl
ENDROOT
BRANCH   5   9
ATOM      9  S   UNL     1       3.494   3.482  18.316  0.00  0.00    +0.000 S 
ATOM     10  O   UNL     1       2.754   2.373  18.875  0.00  0.00    +0.000 OA
ATOM     11  O   UNL     1       3.561   3.666  16.879  0.00  0.00    +0.000 OA
BRANCH   9  12
ATOM     12  N   UNL     1       5.105   3.419  18.849  0.00  0.00    +0.000 N 
ATOM     13  H   UNL     1       5.464   2.488  18.652  0.00  0.00    +0.000 HD
BRANCH  12  14
ATOM     14  C   UNL     1       5.959   4.429  18.417  0.00  0.00    +0.000 A 
ATOM     15  C   UNL     1       6.477   5.443  19.196  0.00  0.00    +0.000 A 
ATOM     16  S   UNL     1       7.482   6.453  18.243  0.00  0.00    +0.000 S 
ATOM     17  C   UNL     1       7.151   5.456  16.888  0.00  0.00    +0.000 A 
ATOM     18  N   UNL     1       6.385   4.408  17.110  0.00  0.00    +0.000 NA
ENDBRANCH  12  14
ENDBRANCH   9  12
ENDBRANCH   5   9
BRANCH   1  19
ATOM     19  N   UNL     1       1.463   8.647  20.559  0.00  0.00    +0.000 N 
ATOM     20  H   UNL     1       2.131   9.414  20.508  0.00  0.00    +0.000 HD
BRANCH  19  22
ATOM     21  C   UNL     1       0.137   9.226  22.508  0.00  0.00    +0.000 C 
ATOM     22  C   UNL     1       0.109   8.966  20.996  0.00  0.00    +0.000 C 
BRANCH  22  23
ATOM     23  C   UNL     1      -0.448  10.151  20.232  0.00  0.00    +0.000 A 
ATOM     24  C   UNL     1      -0.668  11.364  20.905  0.00  0.00    +0.000 A 
ATOM     25  C   UNL     1      -1.226  12.456  20.239  0.00  0.00    +0.000 A 
ATOM     26  C   UNL     1      -1.557  12.354  18.890  0.00  0.00    +0.000 A 
ATOM     27  C   UNL     1      -1.322  11.165  18.204  0.00  0.00    +0.000 A 
ATOM     28  C   UNL     1      -0.770  10.069  18.870  0.00  0.00    +0.000 A 
ENDBRANCH  22  23
ENDBRANCH  19  22
ENDBRANCH   1  19
TORSDOF 6
ENDMDL
MODEL 3
REMARK VINA RESULT:      -7.6      0.373      1.008
REMARK  Name = 
REMARK  7 active torsions:
REMARK  status: ('A' for Active; 'I' for Inactive)
REMARK    1  A    between atoms: C_1  and  C_2
REMARK    2  A    between atoms: C_2  and  N_3
REMARK    3  A    between atoms: C_2  and  C_21
REMARK    4  A    between atoms: N_3  and  C_4
REMARK    5  A    between atoms: C_8  and  S_9
REMARK    6  A    between atoms: S_9  and  N_12
REMARK    7  A    between atoms: N_12  and  C_13
REMARK                            x       y       z     vdW  Elec       q    Type
REMARK                         _______ _______ _______ _____ _____    ______ ____
ROOT
ATOM      1  C   UNL     1       1.848   7.400  20.141  0.00  0.00    +0.000 A 
ATOM      2  C   UNL     1       1.861   6.195  20.854  0.00  0.00    +0.000 A 
ATOM      3  C   UNL     1       2.229   4.991  20.244  0.00  0.00    +0.000 A 
ATOM      4  F   UNL     1       2.187   3.877  20.984  0.00  0.00    +0.000 F 
ATOM      5  C   UNL     1       2.641   4.971  18.919  0.00  0.00    +0.000 A 
ATOM      6  C   UNL     1       2.650   6.156  18.179  0.00  0.00    +0.000 A 
ATOM      7  C   UNL     1       2.258   7.353  18.788  0.00  0.00    +0.000 A 
ATOM      8 CL   UNL     1       2.319   8.798  17.835  0.00  0.00    +0.000 Cl
ENDROOT
BRANCH   5   9
ATOM      9  S   UNL     1       3.108   3.451  18.140  0.00  0.00    +0.000 S 
ATOM     10  O   UNL     1       2.232   2.387  18.578  0.00  0.00    +0.000 OA
ATOM     11  O   UNL     1       3.257   3.740  16.727  0.00  0.00    +0.000 OA
BRANCH   9  12
ATOM     12  N   UNL     1       4.678   3.174  18.723  0.00  0.00    +0.000 N 
ATOM     13  H   UNL     1       4.986   2.269  18.376  0.00  0.00    +0.000 HD
BRANCH  12  14
ATOM     14  C   UNL     1       5.620   4.178  18.522  0.00  0.00    +0.000 A 
ATOM     15  C   UNL     1       6.083   4.624  17.302  0.00  0.00    +0.000 A 
ATOM     16  S   UNL     1       7.233   5.874  17.536  0.00  0.00    +0.000 S 
ATOM     17  C   UNL     1       7.010   5.721  19.230  0.00  0.00    +0.000 A 
ATOM     18  N   UNL     1       6.113   4.841  19.621  0.00  0.00    +0.000 NA
ENDBRANCH  12  14
ENDBRANCH   9  12
ENDBRANCH   5   9
BRANCH   1  19
ATOM     19  N   UNL     1       1.522   8.609  20.733  0.00  0.00    +0.000 N 
ATOM     20  H   UNL     1       2.289   9.268  20.850  0.00  0.00    +0.000 HD
BRANCH  19  22
ATOM     21  C   UNL     1       0.102   9.392  22.539  0.00  0.00    +0.000 C 
ATOM     22  C   UNL     1       0.178   9.084  21.037  0.00  0.00    +0.000 C 
BRANCH  22  23
ATOM     23  C   UNL     1      -0.179  10.294  20.196  0.00  0.00    +0.000 A 
ATOM     24  C   UNL     1      -0.958  10.125  19.040  0.00  0.00    +0.000 A 
ATOM     25  C   UNL     1      -1.260  11.213  18.221  0.00  0.00    +0.000 A 
ATOM     26  C   UNL     1      -0.802  12.485  18.554  0.00  0.00    +0.000 A 
ATOM     27  C   UNL     1      -0.049  12.671  19.712  0.00  0.00    +0.000 A 
ATOM     28  C   UNL     1       0.261  11.583  20.529  0.00  0.00    +0.000 A 
ENDBRANCH  22  23
ENDBRANCH  19  22
ENDBRANCH   1  19
TORSDOF 6
ENDMDL
MODEL 4
REMARK VINA RESULT:      -7.4      1.206      1.415
REMARK  Name = 
REMARK  7 active torsions:
REMARK  status: ('A' for Active; 'I' for Inactive)
REMARK    1  A    between atoms: C_1  and  C_2
REMARK    2  A    between atoms: C_2  and  N_3
REMARK    3  A    between atoms: C_2  and  C_21
REMARK    4  A    between atoms: N_3  and  C_4
REMARK    5  A    between atoms: C_8  and  S_9
REMARK    6  A    between atoms: S_9  and  N_12
REMARK    7  A    between atoms: N_12  and  C_13
REMARK                            x       y       z     vdW  Elec       q    Type
REMARK                         _______ _______ _______ _____ _____    ______ ____
ROOT
ATOM      1  C   UNL     1       1.715   7.488  20.190  0.00  0.00    +0.000 A 
ATOM      2  C   UNL     1       1.648   6.271  20.879  0.00  0.00    +0.000 A 
ATOM      3  C   UNL     1       2.002   5.065  20.266  0.00  0.00    +0.000 A 
ATOM      4  F   UNL     1       1.881   3.941  20.981  0.00  0.00    +0.000 F 
ATOM      5  C   UNL     1       2.481   5.053  18.964  0.00  0.00    +0.000 A 
ATOM      6  C   UNL     1       2.572   6.249  18.248  0.00  0.00    +0.000 A 
ATOM      7  C   UNL     1       2.192   7.449  18.859  0.00  0.00    +0.000 A 
ATOM      8 CL   UNL     1       2.356   8.907  17.938  0.00  0.00    +0.000 Cl
ENDROOT
BRANCH   5   9
ATOM      9  S   UNL     1       2.931   3.530  18.180  0.00  0.00    +0.000 S 
ATOM     10  O   UNL     1       3.835   2.790  19.032  0.00  0.00    +0.000 OA
ATOM     11  O   UNL     1       1.698   2.922  17.719  0.00  0.00    +0.000 OA
BRANCH   9  12
ATOM     12  N   UNL     1       3.749   4.034  16.780  0.00  0.00    +0.000 N 
ATOM     13  H   UNL     1       3.254   4.837  16.400  0.00  0.00    +0.000 HD
BRANCH  12  14
ATOM     14  C   UNL     1       5.121   4.245  16.883  0.00  0.00    +0.000 A 
ATOM     15  C   UNL     1       5.800   4.628  18.021  0.00  0.00    +0.000 A 
ATOM     16  S   UNL     1       7.475   4.764  17.681  0.00  0.00    +0.000 S 
ATOM     17  C   UNL     1       7.154   4.298  16.062  0.00  0.00    +0.000 A 
ATOM     18  N   UNL     1       5.903   4.008  15.777  0.00  0.00    +0.000 NA
ENDBRANCH  12  14
ENDBRANCH   9  12
ENDBRANCH   5   9
BRANCH   1  19
ATOM     19  N   UNL     1       1.404   8.698  20.788  0.00  0.00    +0.000 N 
ATOM     20  H   UNL     1       2.124   9.416  20.741  0.00  0.00    +0.000 HD
BRANCH  19  22
ATOM     21  C   UNL     1       0.262   9.430  22.801  0.00  0.00    +0.000 C 
ATOM     22  C   UNL     1       0.102   9.089  21.313  0.00  0.00    +0.000 C 
BRANCH  22  23
ATOM     23  C   UNL     1      -0.480  10.249  20.529  0.00  0.00    +0.000 A 
ATOM     24  C   UNL     1      -0.787  11.446  21.195  0.00  0.00    +0.000 A 
ATOM     25  C   UNL     1      -1.369  12.513  20.509  0.00  0.00    +0.000 A 
ATOM     26  C   UNL     1      -1.638  12.402  19.147  0.00  0.00    +0.000 A 
ATOM     27  C   UNL     1      -1.316  11.228  18.468  0.00  0.00    +0.000 A 
ATOM     28  C   UNL     1      -0.740  10.157  19.154  0.00  0.00    +0.000 A 
ENDBRANCH  22  23
ENDBRANCH  19  22
ENDBRANCH   1  19
TORSDOF 6
ENDMDL
MODEL 5
REMARK VINA RESULT:      -7.2      1.257      1.607
REMARK  Name = 
REMARK  7 active torsions:
REMARK  status: ('A' for Active; 'I' for Inactive)
REMARK    1  A    between atoms: C_1  and  C_2
REMARK    2  A    between atoms: C_2  and  N_3
REMARK    3  A    between atoms: C_2  and  C_21
REMARK    4  A    between atoms: N_3  and  C_4
REMARK    5  A    between atoms: C_8  and  S_9
REMARK    6  A    between atoms: S_9  and  N_12
REMARK    7  A    between atoms: N_12  and  C_13
REMARK                            x       y       z     vdW  Elec       q    Type
REMARK                         _______ _______ _______ _____ _____    ______ ____
ROOT
ATOM      1  C   UNL     1       1.890   7.421  19.912  0.00  0.00    +0.000 A 
ATOM      2  C   UNL     1       1.927   6.303  20.755  0.00  0.00    +0.000 A 
ATOM      3  C   UNL     1       2.422   5.072  20.311  0.00  0.00    +0.000 A 
ATOM      4  F   UNL     1       2.397   4.044  21.167  0.00  0.00    +0.000 F 
ATOM      5  C   UNL     1       2.937   4.942  19.030  0.00  0.00    +0.000 A 
ATOM      6  C   UNL     1       2.926   6.039  18.164  0.00  0.00    +0.000 A 
ATOM      7  C   UNL     1       2.407   7.261  18.605  0.00  0.00    +0.000 A 
ATOM      8 CL   UNL     1       2.446   8.596  17.503  0.00  0.00    +0.000 Cl
ENDROOT
BRANCH   5   9
ATOM      9  S   UNL     1       3.565   3.387  18.461  0.00  0.00    +0.000 S 
ATOM     10  O   UNL     1       2.864   2.307  19.117  0.00  0.00    +0.000 OA
ATOM     11  O   UNL     1       3.603   3.462  17.013  0.00  0.00    +0.000 OA
BRANCH   9  12
ATOM     12  N   UNL     1       5.186   3.407  18.968  0.00  0.00    +0.000 N 
ATOM     13  H   UNL     1       5.577   2.483  18.799  0.00  0.00    +0.000 HD
BRANCH  12  14
ATOM     14  C   UNL     1       5.993   4.432  18.484  0.00  0.00    +0.000 A 
ATOM     15  C   UNL     1       6.532   5.460  19.228  0.00  0.00    +0.000 A 
ATOM     16  S   UNL     1       7.461   6.486  18.216  0.00  0.00    +0.000 S 
ATOM     17  C   UNL     1       7.075   5.475  16.886  0.00  0.00    +0.000 A 
ATOM     18  N   UNL     1       6.345   4.413  17.155  0.00  0.00    +0.000 NA
ENDBRANCH  12  14
ENDBRANCH   9  12
ENDBRANCH   5   9
BRANCH   1  19
ATOM     19  N   UNL     1       1.438   8.659  20.340  0.00  0.00    +0.000 N 
ATOM     20  H   UNL     1       1.617   9.440  19.712  0.00  0.00    +0.000 HD
BRANCH  19  22
ATOM     21  C   UNL     1       1.500   9.126  22.721  0.00  0.00    +0.000 C 
ATOM     22  C   UNL     1       0.594   8.912  21.501  0.00  0.00    +0.000 C 
BRANCH  22  23
ATOM     23  C   UNL     1      -0.322  10.098  21.265  0.00  0.00    +0.000 A 
ATOM     24  C   UNL     1      -0.651  10.464  19.950  0.00  0.00    +0.000 A 
ATOM     25  C   UNL     1      -1.451  11.580  19.702  0.00  0.00    +0.000 A 
ATOM     26  C   UNL     1      -1.943  12.334  20.763  0.00  0.00    +0.000 A 
ATOM     27  C   UNL     1      -1.644  11.968  22.074  0.00  0.00    +0.000 A 
ATOM     28  C   UNL     1      -0.839  10.856  22.325  0.00  0.00    +0.000 A 
ENDBRANCH  22  23
ENDBRANCH  19  22
ENDBRANCH   1  19
TORSDOF 6
ENDMDL
MODEL 6
REMARK VINA RESULT:      -7.2      5.000      8.248
REMARK  Name = 
REMARK  7 active torsions:
REMARK  status: ('A' for Active; 'I' for Inactive)
REMARK    1  A    between atoms: C_1  and  C_2
REMARK    2  A    between atoms: C_2  and  N_3
REMARK    3  A    between atoms: C_2  and  C_21
REMARK    4  A    between atoms: N_3  and  C_4
REMARK    5  A    between atoms: C_8  and  S_9
REMARK    6  A    between atoms: S_9  and  N_12
REMARK    7  A    between atoms: N_12  and  C_13
REMARK                            x       y       z     vdW  Elec       q    Type
REMARK                         _______ _______ _______ _____ _____    ______ ____
ROOT
ATOM      1  C   UNL     1       1.846   8.596  19.272  0.00  0.00    +0.000 A 
ATOM      2  C   UNL     1       2.246   9.509  18.288  0.00  0.00    +0.000 A 
ATOM      3  C   UNL     1       1.667  10.779  18.192  0.00  0.00    +0.000 A 
ATOM      4  F   UNL     1       2.081  11.582  17.206  0.00  0.00    +0.000 F 
ATOM      5  C   UNL     1       0.708  11.184  19.109  0.00  0.00    +0.000 A 
ATOM      6  C   UNL     1       0.291  10.304  20.111  0.00  0.00    +0.000 A 
ATOM      7  C   UNL     1       0.857   9.027  20.186  0.00  0.00    +0.000 A 
ATOM      8 CL   UNL     1       0.329   7.988  21.467  0.00  0.00    +0.000 Cl
ENDROOT
BRANCH   5   9
ATOM      9  S   UNL     1      -0.030  12.790  18.995  0.00  0.00    +0.000 S 
ATOM     10  O   UNL     1      -0.860  13.031  20.154  0.00  0.00    +0.000 OA
ATOM     11  O   UNL     1       1.036  13.712  18.655  0.00  0.00    +0.000 OA
BRANCH   9  12
ATOM     12  N   UNL     1      -1.004  12.679  17.608  0.00  0.00    +0.000 N 
ATOM     13  H   UNL     1      -0.391  12.588  16.801  0.00  0.00    +0.000 HD
BRANCH  12  14
ATOM     14  C   UNL     1      -2.024  11.732  17.619  0.00  0.00    +0.000 A 
ATOM     15  C   UNL     1      -3.270  11.888  18.188  0.00  0.00    +0.000 A 
ATOM     16  S   UNL     1      -4.198  10.465  17.957  0.00  0.00    +0.000 S 
ATOM     17  C   UNL     1      -2.873   9.773  17.117  0.00  0.00    +0.000 A 
ATOM     18  N   UNL     1      -1.816  10.541  16.963  0.00  0.00    +0.000 NA
ENDBRANCH  12  14
ENDBRANCH   9  12
ENDBRANCH   5   9
BRANCH   1  19
ATOM     19  N   UNL     1       2.431   7.348  19.408  0.00  0.00    +0.000 N 
ATOM     20  H   UNL     1       2.718   7.091  20.350  0.00  0.00    +0.000 HD
BRANCH  19  22
ATOM     21  C   UNL     1       3.978   6.180  17.947  0.00  0.00    +0.000 C 
ATOM     22  C   UNL     1       2.512   6.319  18.379  0.00  0.00    +0.000 C 
BRANCH  22  23
ATOM     23  C   UNL     1       1.945   5.003  18.874  0.00  0.00    +0.000 A 
ATOM     24  C   UNL     1       1.693   4.832  20.244  0.00  0.00    +0.000 A 
ATOM     25  C   UNL     1       1.218   3.615  20.735  0.00  0.00    +0.000 A 
ATOM     26  C   UNL     1       0.974   2.559  19.860  0.00  0.00    +0.000 A 
ATOM     27  C   UNL     1       1.197   2.722  18.494  0.00  0.00    +0.000 A 
ATOM     28  C   UNL     1       1.679   3.937  18.003  0.00  0.00    +0.000 A 
ENDBRANCH  22  23
ENDBRANCH  19  22
ENDBRANCH   1  19
TORSDOF 6
ENDMDL
MODEL 7
REMARK VINA RESULT:      -7.2      4.980      8.494
REMARK  Name = 
REMARK  7 active torsions:
REMARK  status: ('A' for Active; 'I' for Inactive)
REMARK    1  A    between atoms: C_1  and  C_2
REMARK    2  A    between atoms: C_2  and  N_3
REMARK    3  A    between atoms: C_2  and  C_21
REMARK    4  A    between atoms: N_3  and  C_4
REMARK    5  A    between atoms: C_8  and  S_9
REMARK    6  A    between atoms: S_9  and  N_12
REMARK    7  A    between atoms: N_12  and  C_13
REMARK                            x       y       z     vdW  Elec       q    Type
REMARK                         _______ _______ _______ _____ _____    ______ ____
ROOT
ATOM      1  C   UNL     1       1.760   8.344  20.309  0.00  0.00    +0.000 A 
ATOM      2  C   UNL     1       1.272   8.461  21.617  0.00  0.00    +0.000 A 
ATOM      3  C   UNL     1       0.484   9.549  22.007  0.00  0.00    +0.000 A 
ATOM      4  F   UNL     1       0.082   9.604  23.282  0.00  0.00    +0.000 F 
ATOM      5  C   UNL     1       0.125  10.522  21.087  0.00  0.00    +0.000 A 
ATOM      6  C   UNL     1       0.585  10.434  19.770  0.00  0.00    +0.000 A 
ATOM      7  C   UNL     1       1.392   9.356  19.392  0.00  0.00    +0.000 A 
ATOM      8 CL   UNL     1       1.907   9.278  17.741  0.00  0.00    +0.000 Cl
ENDROOT
BRANCH   5   9
ATOM      9  S   UNL     1      -0.871  11.903  21.573  0.00  0.00    +0.000 S 
ATOM     10  O   UNL     1      -2.058  11.436  22.254  0.00  0.00    +0.000 OA
ATOM     11  O   UNL     1       0.019  12.847  22.222  0.00  0.00    +0.000 OA
BRANCH   9  12
ATOM     12  N   UNL     1      -1.304  12.618  20.095  0.00  0.00    +0.000 N 
ATOM     13  H   UNL     1      -0.549  12.452  19.434  0.00  0.00    +0.000 HD
BRANCH  12  14
ATOM     14  C   UNL     1      -2.555  12.300  19.575  0.00  0.00    +0.000 A 
ATOM     15  C   UNL     1      -2.805  11.432  18.533  0.00  0.00    +0.000 A 
ATOM     16  S   UNL     1      -4.491  11.347  18.236  0.00  0.00    +0.000 S 
ATOM     17  C   UNL     1      -4.742  12.460  19.517  0.00  0.00    +0.000 A 
ATOM     18  N   UNL     1      -3.667  12.849  20.169  0.00  0.00    +0.000 NA
ENDBRANCH  12  14
ENDBRANCH   9  12
ENDBRANCH   5   9
BRANCH   1  19
ATOM     19  N   UNL     1       2.510   7.258  19.891  0.00  0.00    +0.000 N 
ATOM     20  H   UNL     1       3.400   7.123  20.366  0.00  0.00    +0.000 HD
BRANCH  19  22
ATOM     21  C   UNL     1       3.102   6.099  17.842  0.00  0.00    +0.000 C 
ATOM     22  C   UNL     1       2.073   6.211  18.975  0.00  0.00    +0.000 C 
BRANCH  22  23
ATOM     23  C   UNL     1       1.888   4.892  19.699  0.00  0.00    +0.000 A 
ATOM     24  C   UNL     1       1.296   3.812  19.024  0.00  0.00    +0.000 A 
ATOM     25  C   UNL     1       1.068   2.602  19.681  0.00  0.00    +0.000 A 
ATOM     26  C   UNL     1       1.443   2.451  21.013  0.00  0.00    +0.000 A 
ATOM     27  C   UNL     1       2.053   3.506  21.688  0.00  0.00    +0.000 A 
ATOM     28  C   UNL     1       2.276   4.720  21.036  0.00  0.00    +0.000 A 
ENDBRANCH  22  23
ENDBRANCH  19  22
ENDBRANCH   1  19
TORSDOF 6
ENDMDL
MODEL 8
REMARK VINA RESULT:      -7.2      2.578      3.739
REMARK  Name = 
REMARK  7 active torsions:
REMARK  status: ('A' for Active; 'I' for Inactive)
REMARK    1  A    between atoms: C_1  and  C_2
REMARK    2  A    between atoms: C_2  and  N_3
REMARK    3  A    between atoms: C_2  and  C_21
REMARK    4  A    between atoms: N_3  and  C_4
REMARK    5  A    between atoms: C_8  and  S_9
REMARK    6  A    between atoms: S_9  and  N_12
REMARK    7  A    between atoms: N_12  and  C_13
REMARK                            x       y       z     vdW  Elec       q    Type
REMARK                         _______ _______ _______ _____ _____    ______ ____
ROOT
ATOM      1  C   UNL     1       2.407   7.692  18.291  0.00  0.00    +0.000 A 
ATOM      2  C   UNL     1       3.351   7.506  17.273  0.00  0.00    +0.000 A 
ATOM      3  C   UNL     1       4.413   6.607  17.418  0.00  0.00    +0.000 A 
ATOM      4  F   UNL     1       5.290   6.508  16.413  0.00  0.00    +0.000 F 
ATOM      5  C   UNL     1       4.530   5.837  18.566  0.00  0.00    +0.000 A 
ATOM      6  C   UNL     1       3.601   5.988  19.599  0.00  0.00    +0.000 A 
ATOM      7  C   UNL     1       2.555   6.906  19.458  0.00  0.00    +0.000 A 
ATOM      8 CL   UNL     1       1.413   7.030  20.754  0.00  0.00    +0.000 Cl
ENDROOT
BRANCH   5   9
ATOM      9  S   UNL     1       5.872   4.698  18.758  0.00  0.00    +0.000 S 
ATOM     10  O   UNL     1       6.372   4.307  17.459  0.00  0.00    +0.000 OA
ATOM     11  O   UNL     1       6.767   5.276  19.742  0.00  0.00    +0.000 OA
BRANCH   9  12
ATOM     12  N   UNL     1       5.150   3.362  19.518  0.00  0.00    +0.000 N 
ATOM     13  H   UNL     1       5.162   3.529  20.522  0.00  0.00    +0.000 HD
BRANCH  12  14
ATOM     14  C   UNL     1       3.902   2.960  19.053  0.00  0.00    +0.000 A 
ATOM     15  C   UNL     1       2.770   2.779  19.819  0.00  0.00    +0.000 A 
ATOM     16  S   UNL     1       1.466   2.283  18.823  0.00  0.00    +0.000 S 
ATOM     17  C   UNL     1       2.512   2.359  17.466  0.00  0.00    +0.000 A 
ATOM     18  N   UNL     1       3.741   2.768  17.701  0.00  0.00    +0.000 NA
ENDBRANCH  12  14
ENDBRANCH   9  12
ENDBRANCH   5   9
BRANCH   1  19
ATOM     19  N   UNL     1       1.327   8.548  18.155  0.00  0.00    +0.000 N 
ATOM     20  H   UNL     1       0.508   8.161  17.691  0.00  0.00    +0.000 HD
BRANCH  19  22
ATOM     21  C   UNL     1       2.193  10.815  18.073  0.00  0.00    +0.000 C 
ATOM     22  C   UNL     1       1.195   9.869  18.757  0.00  0.00    +0.000 C 
BRANCH  22  23
ATOM     23  C   UNL     1      -0.228  10.381  18.650  0.00  0.00    +0.000 A 
ATOM     24  C   UNL     1      -1.061   9.893  17.630  0.00  0.00    +0.000 A 
ATOM     25  C   UNL     1      -2.359  10.382  17.477  0.00  0.00    +0.000 A 
ATOM     26  C   UNL     1      -2.845  11.353  18.350  0.00  0.00    +0.000 A 
ATOM     27  C   UNL     1      -2.038  11.828  19.381  0.00  0.00    +0.000 A 
ATOM     28  C   UNL     1      -0.736  11.345  19.532  0.00  0.00    +0.000 A 
ENDBRANCH  22  23
ENDBRANCH  19  22
ENDBRANCH   1  19
TORSDOF 6
ENDMDL
MODEL 9
REMARK VINA RESULT:      -7.2      4.058      7.968
REMARK  Name = 
REMARK  7 active torsions:
REMARK  status: ('A' for Active; 'I' for Inactive)
REMARK    1  A    between atoms: C_1  and  C_2
REMARK    2  A    between atoms: C_2  and  N_3
REMARK    3  A    between atoms: C_2  and  C_21
REMARK    4  A    between atoms: N_3  and  C_4
REMARK    5  A    between atoms: C_8  and  S_9
REMARK    6  A    between atoms: S_9  and  N_12
REMARK    7  A    between atoms: N_12  and  C_13
REMARK                            x       y       z     vdW  Elec       q    Type
REMARK                         _______ _______ _______ _____ _____    ______ ____
ROOT
ATOM      1  C   UNL     1       3.251   5.852  19.049  0.00  0.00    +0.000 A 
ATOM      2  C   UNL     1       3.372   6.899  18.128  0.00  0.00    +0.000 A 
ATOM      3  C   UNL     1       2.590   8.055  18.229  0.00  0.00    +0.000 A 
ATOM      4  F   UNL     1       2.743   8.997  17.292  0.00  0.00    +0.000 F 
ATOM      5  C   UNL     1       1.702   8.212  19.283  0.00  0.00    +0.000 A 
ATOM      6  C   UNL     1       1.561   7.192  20.228  0.00  0.00    +0.000 A 
ATOM      7  C   UNL     1       2.329   6.029  20.107  0.00  0.00    +0.000 A 
ATOM      8 CL   UNL     1       2.139   4.810  21.323  0.00  0.00    +0.000 Cl
ENDROOT
BRANCH   5   9
ATOM      9  S   UNL     1       0.708   9.671  19.418  0.00  0.00    +0.000 S 
ATOM     10  O   UNL     1      -0.293   9.488  20.445  0.00  0.00    +0.000 OA
ATOM     11  O   UNL     1       1.626  10.792  19.484  0.00  0.00    +0.000 OA
BRANCH   9  12
ATOM     12  N   UNL     1      -0.045   9.778  17.900  0.00  0.00    +0.000 N 
ATOM     13  H   UNL     1      -0.001   8.860  17.464  0.00  0.00    +0.000 HD
BRANCH  12  14
ATOM     14  C   UNL     1      -1.319  10.335  17.857  0.00  0.00    +0.000 A 
ATOM     15  C   UNL     1      -2.450   9.737  17.344  0.00  0.00    +0.000 A 
ATOM     16  S   UNL     1      -3.792  10.792  17.505  0.00  0.00    +0.000 S 
ATOM     17  C   UNL     1      -2.759  11.943  18.247  0.00  0.00    +0.000 A 
ATOM     18  N   UNL     1      -1.507  11.577  18.418  0.00  0.00    +0.000 NA
ENDBRANCH  12  14
ENDBRANCH   9  12
ENDBRANCH   5   9
BRANCH   1  19
ATOM     19  N   UNL     1       4.040   4.715  18.989  0.00  0.00    +0.000 N 
ATOM     20  H   UNL     1       4.561   4.490  19.834  0.00  0.00    +0.000 HD
BRANCH  19  22
ATOM     21  C   UNL     1       2.644   3.645  17.317  0.00  0.00    +0.000 C 
ATOM     22  C   UNL     1       4.057   3.735  17.911  0.00  0.00    +0.000 C 
BRANCH  22  23
ATOM     23  C   UNL     1       5.087   4.095  16.858  0.00  0.00    +0.000 A 
ATOM     24  C   UNL     1       6.378   4.475  17.259  0.00  0.00    +0.000 A 
ATOM     25  C   UNL     1       7.332   4.859  16.316  0.00  0.00    +0.000 A 
ATOM     26  C   UNL     1       7.012   4.855  14.960  0.00  0.00    +0.000 A 
ATOM     27  C   UNL     1       5.742   4.458  14.547  0.00  0.00    +0.000 A 
ATOM     28  C   UNL     1       4.785   4.079  15.490  0.00  0.00    +0.000 A 
ENDBRANCH  22  23
ENDBRANCH  19  22
ENDBRANCH   1  19
TORSDOF 6
ENDMDL
