MODEL 1
REMARK VINA RESULT:      -7.3      0.000      0.000
REMARK  Name = 
REMARK  7 active torsions:
REMARK  status: ('A' for Active; 'I' for Inactive)
REMARK    1  A    between atoms: C_1  and  S_2
REMARK    2  A    between atoms: S_2  and  N_5
REMARK    3  A    between atoms: N_5  and  C_6
REMARK    4  A    between atoms: C_9  and  C_10
REMARK    5  A    between atoms: C_10  and  C_11
REMARK    6  A    between atoms: C_11  and  N_12
REMARK    7  A    between atoms: N_15  and  C_16
REMARK                            x       y       z     vdW  Elec       q    Type
REMARK                         _______ _______ _______ _____ _____    ______ ____
ROOT
ATOM      1  C   UNL     1       8.477   8.220  18.547  0.00  0.00    +0.000 C 
ENDROOT
BRANCH   1   5
ATOM      2  C   UNL     1       9.196  12.464  18.730  0.00  0.00    +0.000 A 
ATOM      3  C   UNL     1       9.755  11.626  19.692  0.00  0.00    +0.000 A 
ATOM      4  C   UNL     1       9.538  10.247  19.620  0.00  0.00    +0.000 A 
ATOM      5  C   UNL     1       8.777   9.701  18.579  0.00  0.00    +0.000 A 
ATOM      6  C   UNL     1       8.243  10.552  17.601  0.00  0.00    +0.000 A 
ATOM      7  C   UNL     1       8.459  11.929  17.674  0.00  0.00    +0.000 A 
BRANCH   2   8
ATOM      8  N   UNL     1       9.422  13.870  18.790  0.00  0.00    +0.000 N 
ATOM      9  H   UNL     1       9.245  14.296  19.701  0.00  0.00    +0.000 HD
BRANCH   8  11
ATOM     10  C   UNL     1      10.446  16.034  17.570  0.00  0.00    +0.000 C 
ATOM     11  S   UNL     1      10.907  14.438  18.206  0.00  0.00    +0.000 S 
ATOM     12  O   UNL     1      11.369  13.606  17.119  0.00  0.00    +0.000 OA
ATOM     13  O   UNL     1      11.722  14.655  19.384  0.00  0.00    +0.000 OA
ENDBRANCH   8  11
ENDBRANCH   2   8
ENDBRANCH   1   5
BRANCH   1  14
ATOM     14  C   UNL     1       7.398   7.920  17.493  0.00  0.00    +0.000 C 
BRANCH  14  15
ATOM     15  N   UNL     1       7.439   6.559  16.928  0.00  0.00    +0.000 NA
ATOM     16  C   UNL     1       7.381   5.494  17.959  0.00  0.00    +0.000 C 
ATOM     17  C   UNL     1       6.046   5.393  18.739  0.00  0.00    +0.000 C 
ATOM     18  N   UNL     1       4.922   5.288  17.797  0.00  0.00    +0.000 N 
ATOM     19  C   UNL     1       4.901   6.296  16.724  0.00  0.00    +0.000 C 
ATOM     20  C   UNL     1       6.279   6.353  16.017  0.00  0.00    +0.000 C 
BRANCH  18  21
ATOM     21  C   UNL     1       3.867   4.422  18.007  0.00  0.00    +0.000 A 
ATOM     22  C   UNL     1       4.055   3.072  18.318  0.00  0.00    +0.000 A 
ATOM     23  C   UNL     1       2.955   2.238  18.473  0.00  0.00    +0.000 A 
ATOM     24  N   UNL     1       1.676   2.642  18.340  0.00  0.00    +0.000 NA
ATOM     25  C   UNL     1       1.503   3.943  18.038  0.00  0.00    +0.000 A 
ATOM     26  C   UNL     1       2.541   4.843  17.871  0.00  0.00    +0.000 A 
ENDBRANCH  18  21
ENDBRANCH  14  15
ENDBRANCH   1  14
TORSDOF 6
ENDMDL
MODEL 2
REMARK VINA RESULT:      -7.2      1.369      1.765
REMARK  Name = 
REMARK  7 active torsions:
REMARK  status: ('A' for Active; 'I' for Inactive)
REMARK    1  A    between atoms: C_1  and  S_2
REMARK    2  A    between atoms: S_2  and  N_5
REMARK    3  A    between atoms: N_5  and  C_6
REMARK    4  A    between atoms: C_9  and  C_10
REMARK    5  A    between atoms: C_10  and  C_11
REMARK    6  A    between atoms: C_11  and  N_12
REMARK    7  A    between atoms: N_15  and  C_16
REMARK                            x       y       z     vdW  Elec       q    Type
REMARK                         _______ _______ _______ _____ _____    ______ ____
ROOT
ATOM      1  C   UNL     1       8.459   8.208  18.576  0.00  0.00    +0.000 C 
ENDROOT
BRANCH   1   5
ATOM      2  C   UNL     1       9.414  12.408  18.646  0.00  0.00    +0.000 A 
ATOM      3  C   UNL     1       8.602  11.901  17.635  0.00  0.00    +0.000 A 
ATOM      4  C   UNL     1       8.276  10.542  17.624  0.00  0.00    +0.000 A 
ATOM      5  C   UNL     1       8.746   9.690  18.632  0.00  0.00    +0.000 A 
ATOM      6  C   UNL     1       9.541  10.218  19.660  0.00  0.00    +0.000 A 
ATOM      7  C   UNL     1       9.868  11.575  19.669  0.00  0.00    +0.000 A 
BRANCH   2   8
ATOM      8  N   UNL     1       9.742  13.795  18.671  0.00  0.00    +0.000 N 
ATOM      9  H   UNL     1      10.190  14.146  17.822  0.00  0.00    +0.000 HD
BRANCH   8  11
ATOM     10  C   UNL     1       9.453  16.191  19.852  0.00  0.00    +0.000 C 
ATOM     11  S   UNL     1       8.514  14.870  19.118  0.00  0.00    +0.000 S 
ATOM     12  O   UNL     1       7.666  14.271  20.123  0.00  0.00    +0.000 OA
ATOM     13  O   UNL     1       7.966  15.364  17.871  0.00  0.00    +0.000 OA
ENDBRANCH   8  11
ENDBRANCH   2   8
ENDBRANCH   1   5
BRANCH   1  14
ATOM     14  C   UNL     1       7.457   7.904  17.450  0.00  0.00    +0.000 C 
BRANCH  14  15
ATOM     15  N   UNL     1       7.512   6.529  16.919  0.00  0.00    +0.000 NA
ATOM     16  C   UNL     1       7.351   5.490  17.966  0.00  0.00    +0.000 C 
ATOM     17  C   UNL     1       5.958   5.434  18.641  0.00  0.00    +0.000 C 
ATOM     18  N   UNL     1       4.908   5.329  17.615  0.00  0.00    +0.000 N 
ATOM     19  C   UNL     1       4.993   6.312  16.522  0.00  0.00    +0.000 C 
ATOM     20  C   UNL     1       6.423   6.324  15.925  0.00  0.00    +0.000 C 
BRANCH  18  21
ATOM     21  C   UNL     1       3.822   4.490  17.761  0.00  0.00    +0.000 A 
ATOM     22  C   UNL     1       3.939   3.097  17.722  0.00  0.00    +0.000 A 
ATOM     23  C   UNL     1       2.803   2.304  17.828  0.00  0.00    +0.000 A 
ATOM     24  N   UNL     1       1.554   2.789  17.967  0.00  0.00    +0.000 NA
ATOM     25  C   UNL     1       1.448   4.131  18.001  0.00  0.00    +0.000 A 
ATOM     26  C   UNL     1       2.526   4.995  17.907  0.00  0.00    +0.000 A 
ENDBRANCH  18  21
ENDBRANCH  14  15
ENDBRANCH   1  14
TORSDOF 6
ENDMDL
MODEL 3
REMARK VINA RESULT:      -7.2      0.997      1.527
REMARK  Name = 
REMARK  7 active torsions:
REMARK  status: ('A' for Active; 'I' for Inactive)
REMARK    1  A    between atoms: C_1  and  S_2
REMARK    2  A    between atoms: S_2  and  N_5
REMARK    3  A    between atoms: N_5  and  C_6
REMARK    4  A    between atoms: C_9  and  C_10
REMARK    5  A    between atoms: C_10  and  C_11
REMARK    6  A    between atoms: C_11  and  N_12
REMARK    7  A    between atoms: N_15  and  C_16
REMARK                            x       y       z     vdW  Elec       q    Type
REMARK                         _______ _______ _______ _____ _____    ______ ____
ROOT
ATOM      1  C   UNL     1       8.492   8.350  18.498  0.00  0.00    +0.000 C 
ENDROOT
BRANCH   1   5
ATOM      2  C   UNL     1       9.385  12.563  18.590  0.00  0.00    +0.000 A 
ATOM      3  C   UNL     1       8.505  12.064  17.634  0.00  0.00    +0.000 A 
ATOM      4  C   UNL     1       8.199  10.700  17.617  0.00  0.00    +0.000 A 
ATOM      5  C   UNL     1       8.760   9.835  18.566  0.00  0.00    +0.000 A 
ATOM      6  C   UNL     1       9.624  10.354  19.541  0.00  0.00    +0.000 A 
ATOM      7  C   UNL     1       9.929  11.716  19.556  0.00  0.00    +0.000 A 
BRANCH   2   8
ATOM      8  N   UNL     1       9.693  13.954  18.621  0.00  0.00    +0.000 N 
ATOM      9  H   UNL     1       9.729  14.367  19.555  0.00  0.00    +0.000 HD
BRANCH   8  11
ATOM     10  C   UNL     1      12.273  14.572  19.045  0.00  0.00    +0.000 C 
ATOM     11  S   UNL     1      11.055  14.463  17.753  0.00  0.00    +0.000 S 
ATOM     12  O   UNL     1      10.831  15.776  17.195  0.00  0.00    +0.000 OA
ATOM     13  O   UNL     1      11.411  13.340  16.910  0.00  0.00    +0.000 OA
ENDBRANCH   8  11
ENDBRANCH   2   8
ENDBRANCH   1   5
BRANCH   1  14
ATOM     14  C   UNL     1       7.275   8.070  17.601  0.00  0.00    +0.000 C 
BRANCH  14  15
ATOM     15  N   UNL     1       7.285   6.759  16.925  0.00  0.00    +0.000 NA
ATOM     16  C   UNL     1       7.453   5.619  17.859  0.00  0.00    +0.000 C 
ATOM     17  C   UNL     1       6.275   5.379  18.836  0.00  0.00    +0.000 C 
ATOM     18  N   UNL     1       5.015   5.276  18.085  0.00  0.00    +0.000 N 
ATOM     19  C   UNL     1       4.765   6.357  17.118  0.00  0.00    +0.000 C 
ATOM     20  C   UNL     1       6.000   6.551  16.202  0.00  0.00    +0.000 C 
BRANCH  18  21
ATOM     21  C   UNL     1       4.053   4.334  18.392  0.00  0.00    +0.000 A 
ATOM     22  C   UNL     1       3.621   4.102  19.701  0.00  0.00    +0.000 A 
ATOM     23  C   UNL     1       2.685   3.108  19.956  0.00  0.00    +0.000 A 
ATOM     24  N   UNL     1       2.142   2.321  19.006  0.00  0.00    +0.000 NA
ATOM     25  C   UNL     1       2.564   2.548  17.747  0.00  0.00    +0.000 A 
ATOM     26  C   UNL     1       3.490   3.520  17.405  0.00  0.00    +0.000 A 
ENDBRANCH  18  21
ENDBRANCH  14  15
ENDBRANCH   1  14
TORSDOF 6
ENDMDL
MODEL 4
REMARK VINA RESULT:      -7.1      4.556     10.205
REMARK  Name = 
REMARK  7 active torsions:
REMARK  status: ('A' for Active; 'I' for Inactive)
REMARK    1  A    between atoms: C_1  and  S_2
REMARK    2  A    between atoms: S_2  and  N_5
REMARK    3  A    between atoms: N_5  and  C_6
REMARK    4  A    between atoms: C_9  and  C_10
REMARK    5  A    between atoms: C_10  and  C_11
REMARK    6  A    between atoms: C_11  and  N_12
REMARK    7  A    between atoms: N_15  and  C_16
REMARK                            x       y       z     vdW  Elec       q    Type
REMARK                         _______ _______ _______ _____ _____    ______ ____
ROOT
ATOM      1  C   UNL     1       8.327   9.367  17.683  0.00  0.00    +0.000 C 
ENDROOT
BRANCH   1   5
ATOM      2  C   UNL     1       6.846   5.357  18.220  0.00  0.00    +0.000 A 
ATOM      3  C   UNL     1       6.373   6.133  17.165  0.00  0.00    +0.000 A 
ATOM      4  C   UNL     1       6.869   7.426  16.979  0.00  0.00    +0.000 A 
ATOM      5  C   UNL     1       7.850   7.941  17.836  0.00  0.00    +0.000 A 
ATOM      6  C   UNL     1       8.338   7.140  18.878  0.00  0.00    +0.000 A 
ATOM      7  C   UNL     1       7.841   5.849  19.064  0.00  0.00    +0.000 A 
BRANCH   2   8
ATOM      8  N   UNL     1       6.354   4.033  18.409  0.00  0.00    +0.000 N 
ATOM      9  H   UNL     1       6.991   3.403  18.901  0.00  0.00    +0.000 HD
BRANCH   8  11
ATOM     10  C   UNL     1       3.843   3.449  17.651  0.00  0.00    +0.000 C 
ATOM     11  S   UNL     1       4.809   3.873  19.084  0.00  0.00    +0.000 S 
ATOM     12  O   UNL     1       4.357   5.142  19.606  0.00  0.00    +0.000 OA
ATOM     13  O   UNL     1       4.880   2.697  19.927  0.00  0.00    +0.000 OA
ENDBRANCH   8  11
ENDBRANCH   2   8
ENDBRANCH   1   5
BRANCH   1  14
ATOM     14  C   UNL     1       8.822   9.908  19.034  0.00  0.00    +0.000 C 
BRANCH  14  15
ATOM     15  N   UNL     1      10.085  10.668  18.977  0.00  0.00    +0.000 NA
ATOM     16  C   UNL     1      10.160  11.594  17.821  0.00  0.00    +0.000 C 
ATOM     17  C   UNL     1       9.163  12.780  17.850  0.00  0.00    +0.000 C 
ATOM     18  N   UNL     1       9.285  13.504  19.125  0.00  0.00    +0.000 N 
ATOM     19  C   UNL     1       9.237  12.666  20.334  0.00  0.00    +0.000 C 
ATOM     20  C   UNL     1      10.239  11.490  20.209  0.00  0.00    +0.000 C 
BRANCH  18  21
ATOM     21  C   UNL     1       9.263  14.883  19.190  0.00  0.00    +0.000 A 
ATOM     22  C   UNL     1       9.212  15.688  18.048  0.00  0.00    +0.000 A 
ATOM     23  C   UNL     1       9.239  17.071  18.173  0.00  0.00    +0.000 A 
ATOM     24  N   UNL     1       9.317  17.721  19.351  0.00  0.00    +0.000 NA
ATOM     25  C   UNL     1       9.368  16.940  20.447  0.00  0.00    +0.000 A 
ATOM     26  C   UNL     1       9.341  15.556  20.413  0.00  0.00    +0.000 A 
ENDBRANCH  18  21
ENDBRANCH  14  15
ENDBRANCH   1  14
TORSDOF 6
ENDMDL
MODEL 5
REMARK VINA RESULT:      -7.0      1.326      1.734
REMARK  Name = 
REMARK  7 active torsions:
REMARK  status: ('A' for Active; 'I' for Inactive)
REMARK    1  A    between atoms: C_1  and  S_2
REMARK    2  A    between atoms: S_2  and  N_5
REMARK    3  A    between atoms: N_5  and  C_6
REMARK    4  A    between atoms: C_9  and  C_10
REMARK    5  A    between atoms: C_10  and  C_11
REMARK    6  A    between atoms: C_11  and  N_12
REMARK    7  A    between atoms: N_15  and  C_16
REMARK                            x       y       z     vdW  Elec       q    Type
REMARK                         _______ _______ _______ _____ _____    ______ ____
ROOT
ATOM      1  C   UNL     1       8.490   8.271  18.641  0.00  0.00    +0.000 C 
ENDROOT
BRANCH   1   5
ATOM      2  C   UNL     1       9.359  12.486  18.826  0.00  0.00    +0.000 A 
ATOM      3  C   UNL     1       9.843  11.637  19.818  0.00  0.00    +0.000 A 
ATOM      4  C   UNL     1       9.579  10.267  19.746  0.00  0.00    +0.000 A 
ATOM      5  C   UNL     1       8.844   9.740  18.676  0.00  0.00    +0.000 A 
ATOM      6  C   UNL     1       8.386  10.602  17.669  0.00  0.00    +0.000 A 
ATOM      7  C   UNL     1       8.649  11.970  17.742  0.00  0.00    +0.000 A 
BRANCH   2   8
ATOM      8  N   UNL     1       9.635  13.883  18.886  0.00  0.00    +0.000 N 
ATOM      9  H   UNL     1       9.430  14.400  18.028  0.00  0.00    +0.000 HD
BRANCH   8  11
ATOM     10  C   UNL     1       8.926  16.392  19.539  0.00  0.00    +0.000 C 
ATOM     11  S   UNL     1       8.995  14.741  20.198  0.00  0.00    +0.000 S 
ATOM     12  O   UNL     1       9.913  14.709  21.313  0.00  0.00    +0.000 OA
ATOM     13  O   UNL     1       7.632  14.268  20.335  0.00  0.00    +0.000 OA
ENDBRANCH   8  11
ENDBRANCH   2   8
ENDBRANCH   1   5
BRANCH   1  14
ATOM     14  C   UNL     1       7.482   7.995  17.514  0.00  0.00    +0.000 C 
BRANCH  14  15
ATOM     15  N   UNL     1       7.539   6.637  16.943  0.00  0.00    +0.000 NA
ATOM     16  C   UNL     1       7.361   5.567  17.955  0.00  0.00    +0.000 C 
ATOM     17  C   UNL     1       5.959   5.496  18.610  0.00  0.00    +0.000 C 
ATOM     18  N   UNL     1       4.923   5.426  17.568  0.00  0.00    +0.000 N 
ATOM     19  C   UNL     1       5.025   6.440  16.507  0.00  0.00    +0.000 C 
ATOM     20  C   UNL     1       6.463   6.466  15.929  0.00  0.00    +0.000 C 
BRANCH  18  21
ATOM     21  C   UNL     1       3.832   4.586  17.675  0.00  0.00    +0.000 A 
ATOM     22  C   UNL     1       2.540   5.061  17.920  0.00  0.00    +0.000 A 
ATOM     23  C   UNL     1       1.488   4.165  18.064  0.00  0.00    +0.000 A 
ATOM     24  N   UNL     1       1.621   2.827  17.984  0.00  0.00    +0.000 NA
ATOM     25  C   UNL     1       2.868   2.375  17.750  0.00  0.00    +0.000 A 
ATOM     26  C   UNL     1       3.971   3.198  17.590  0.00  0.00    +0.000 A 
ENDBRANCH  18  21
ENDBRANCH  14  15
ENDBRANCH   1  14
TORSDOF 6
ENDMDL
MODEL 6
REMARK VINA RESULT:      -7.0      1.509      1.620
REMARK  Name = 
REMARK  7 active torsions:
REMARK  status: ('A' for Active; 'I' for Inactive)
REMARK    1  A    between atoms: C_1  and  S_2
REMARK    2  A    between atoms: S_2  and  N_5
REMARK    3  A    between atoms: N_5  and  C_6
REMARK    4  A    between atoms: C_9  and  C_10
REMARK    5  A    between atoms: C_10  and  C_11
REMARK    6  A    between atoms: C_11  and  N_12
REMARK    7  A    between atoms: N_15  and  C_16
REMARK                            x       y       z     vdW  Elec       q    Type
REMARK                         _______ _______ _______ _____ _____    ______ ____
ROOT
ATOM      1  C   UNL     1       8.532   8.307  18.606  0.00  0.00    +0.000 C 
ENDROOT
BRANCH   1   5
ATOM      2  C   UNL     1       9.265  12.548  18.787  0.00  0.00    +0.000 A 
ATOM      3  C   UNL     1       9.750  11.719  19.795  0.00  0.00    +0.000 A 
ATOM      4  C   UNL     1       9.530  10.341  19.726  0.00  0.00    +0.000 A 
ATOM      5  C   UNL     1       8.839   9.786  18.641  0.00  0.00    +0.000 A 
ATOM      6  C   UNL     1       8.380  10.628  17.618  0.00  0.00    +0.000 A 
ATOM      7  C   UNL     1       8.599  12.004  17.689  0.00  0.00    +0.000 A 
BRANCH   2   8
ATOM      8  N   UNL     1       9.496  13.953  18.845  0.00  0.00    +0.000 N 
ATOM      9  H   UNL     1       9.977  14.345  18.033  0.00  0.00    +0.000 HD
BRANCH   8  11
ATOM     10  C   UNL     1       8.976  16.412  19.797  0.00  0.00    +0.000 C 
ATOM     11  S   UNL     1       8.169  14.938  19.212  0.00  0.00    +0.000 S 
ATOM     12  O   UNL     1       7.396  14.358  20.286  0.00  0.00    +0.000 OA
ATOM     13  O   UNL     1       7.560  15.252  17.935  0.00  0.00    +0.000 OA
ENDBRANCH   8  11
ENDBRANCH   2   8
ENDBRANCH   1   5
BRANCH   1  14
ATOM     14  C   UNL     1       7.509   8.003  17.499  0.00  0.00    +0.000 C 
BRANCH  14  15
ATOM     15  N   UNL     1       7.544   6.624  16.978  0.00  0.00    +0.000 NA
ATOM     16  C   UNL     1       7.368   5.595  18.031  0.00  0.00    +0.000 C 
ATOM     17  C   UNL     1       5.974   5.564  18.707  0.00  0.00    +0.000 C 
ATOM     18  N   UNL     1       4.923   5.467  17.682  0.00  0.00    +0.000 N 
ATOM     19  C   UNL     1       5.021   6.441  16.583  0.00  0.00    +0.000 C 
ATOM     20  C   UNL     1       6.451   6.429  15.985  0.00  0.00    +0.000 C 
BRANCH  18  21
ATOM     21  C   UNL     1       3.824   4.645  17.834  0.00  0.00    +0.000 A 
ATOM     22  C   UNL     1       3.812   3.319  17.390  0.00  0.00    +0.000 A 
ATOM     23  C   UNL     1       2.661   2.553  17.528  0.00  0.00    +0.000 A 
ATOM     24  N   UNL     1       1.515   3.005  18.073  0.00  0.00    +0.000 NA
ATOM     25  C   UNL     1       1.533   4.283  18.496  0.00  0.00    +0.000 A 
ATOM     26  C   UNL     1       2.636   5.114  18.402  0.00  0.00    +0.000 A 
ENDBRANCH  18  21
ENDBRANCH  14  15
ENDBRANCH   1  14
TORSDOF 6
ENDMDL
MODEL 7
REMARK VINA RESULT:      -6.9      4.411     10.270
REMARK  Name = 
REMARK  7 active torsions:
REMARK  status: ('A' for Active; 'I' for Inactive)
REMARK    1  A    between atoms: C_1  and  S_2
REMARK    2  A    between atoms: S_2  and  N_5
REMARK    3  A    between atoms: N_5  and  C_6
REMARK    4  A    between atoms: C_9  and  C_10
REMARK    5  A    between atoms: C_10  and  C_11
REMARK    6  A    between atoms: C_11  and  N_12
REMARK    7  A    between atoms: N_15  and  C_16
REMARK                            x       y       z     vdW  Elec       q    Type
REMARK                         _______ _______ _______ _____ _____    ______ ____
ROOT
ATOM      1  C   UNL     1       8.646   9.560  17.863  0.00  0.00    +0.000 C 
ENDROOT
BRANCH   1   5
ATOM      2  C   UNL     1       7.011   5.585  18.144  0.00  0.00    +0.000 A 
ATOM      3  C   UNL     1       7.943   6.016  19.085  0.00  0.00    +0.000 A 
ATOM      4  C   UNL     1       8.458   7.313  19.005  0.00  0.00    +0.000 A 
ATOM      5  C   UNL     1       8.030   8.187  17.997  0.00  0.00    +0.000 A 
ATOM      6  C   UNL     1       7.071   7.749  17.072  0.00  0.00    +0.000 A 
ATOM      7  C   UNL     1       6.559   6.453  17.152  0.00  0.00    +0.000 A 
BRANCH   2   8
ATOM      8  N   UNL     1       6.473   4.267  18.226  0.00  0.00    +0.000 N 
ATOM      9  H   UNL     1       7.103   3.568  18.624  0.00  0.00    +0.000 HD
BRANCH   8  11
ATOM     10  C   UNL     1       3.930   3.736  17.539  0.00  0.00    +0.000 C 
ATOM     11  S   UNL     1       4.952   4.098  18.950  0.00  0.00    +0.000 S 
ATOM     12  O   UNL     1       4.534   5.352  19.534  0.00  0.00    +0.000 OA
ATOM     13  O   UNL     1       5.040   2.892  19.747  0.00  0.00    +0.000 OA
ENDBRANCH   8  11
ENDBRANCH   2   8
ENDBRANCH   1   5
BRANCH   1  14
ATOM     14  C   UNL     1       8.946  10.144  19.254  0.00  0.00    +0.000 C 
BRANCH  14  15
ATOM     15  N   UNL     1      10.278  10.761  19.398  0.00  0.00    +0.000 NA
ATOM     16  C   UNL     1      10.740  11.452  18.169  0.00  0.00    +0.000 C 
ATOM     17  C   UNL     1       9.931  12.710  17.766  0.00  0.00    +0.000 C 
ATOM     18  N   UNL     1       9.851  13.639  18.905  0.00  0.00    +0.000 N 
ATOM     19  C   UNL     1       9.415  13.042  20.177  0.00  0.00    +0.000 C 
ATOM     20  C   UNL     1      10.252  11.775  20.488  0.00  0.00    +0.000 C 
BRANCH  18  21
ATOM     21  C   UNL     1      10.000  15.002  18.750  0.00  0.00    +0.000 A 
ATOM     22  C   UNL     1       9.969  15.888  19.832  0.00  0.00    +0.000 A 
ATOM     23  C   UNL     1      10.076  17.256  19.610  0.00  0.00    +0.000 A 
ATOM     24  N   UNL     1      10.211  17.815  18.391  0.00  0.00    +0.000 NA
ATOM     25  C   UNL     1      10.239  16.956  17.354  0.00  0.00    +0.000 A 
ATOM     26  C   UNL     1      10.142  15.581  17.485  0.00  0.00    +0.000 A 
ENDBRANCH  18  21
ENDBRANCH  14  15
ENDBRANCH   1  14
TORSDOF 6
ENDMDL
MODEL 8
REMARK VINA RESULT:      -6.9      4.566     10.154
REMARK  Name = 
REMARK  7 active torsions:
REMARK  status: ('A' for Active; 'I' for Inactive)
REMARK    1  A    between atoms: C_1  and  S_2
REMARK    2  A    between atoms: S_2  and  N_5
REMARK    3  A    between atoms: N_5  and  C_6
REMARK    4  A    between atoms: C_9  and  C_10
REMARK    5  A    between atoms: C_10  and  C_11
REMARK    6  A    between atoms: C_11  and  N_12
REMARK    7  A    between atoms: N_15  and  C_16
REMARK                            x       y       z     vdW  Elec       q    Type
REMARK                         _______ _______ _______ _____ _____    ______ ____
ROOT
ATOM      1  C   UNL     1       8.412   9.200  17.647  0.00  0.00    +0.000 C 
ENDROOT
BRANCH   1   5
ATOM      2  C   UNL     1       6.700   5.298  18.277  0.00  0.00    +0.000 A 
ATOM      3  C   UNL     1       7.743   5.735  19.091  0.00  0.00    +0.000 A 
ATOM      4  C   UNL     1       8.284   7.009  18.899  0.00  0.00    +0.000 A 
ATOM      5  C   UNL     1       7.774   7.855  17.906  0.00  0.00    +0.000 A 
ATOM      6  C   UNL     1       6.706   7.414  17.111  0.00  0.00    +0.000 A 
ATOM      7  C   UNL     1       6.168   6.141  17.303  0.00  0.00    +0.000 A 
BRANCH   2   8
ATOM      8  N   UNL     1       6.135   4.004  18.474  0.00  0.00    +0.000 N 
ATOM      9  H   UNL     1       6.631   3.415  19.146  0.00  0.00    +0.000 HD
BRANCH   8  11
ATOM     10  C   UNL     1       4.393   2.477  19.834  0.00  0.00    +0.000 C 
ATOM     11  S   UNL     1       4.478   3.929  18.811  0.00  0.00    +0.000 S 
ATOM     12  O   UNL     1       3.730   3.702  17.595  0.00  0.00    +0.000 OA
ATOM     13  O   UNL     1       4.207   5.075  19.655  0.00  0.00    +0.000 OA
ENDBRANCH   8  11
ENDBRANCH   2   8
ENDBRANCH   1   5
BRANCH   1  14
ATOM     14  C   UNL     1       8.797   9.870  18.976  0.00  0.00    +0.000 C 
BRANCH  14  15
ATOM     15  N   UNL     1      10.067  10.620  18.953  0.00  0.00    +0.000 NA
ATOM     16  C   UNL     1      10.195  11.519  17.780  0.00  0.00    +0.000 C 
ATOM     17  C   UNL     1       9.208  12.712  17.743  0.00  0.00    +0.000 C 
ATOM     18  N   UNL     1       9.283  13.464  19.006  0.00  0.00    +0.000 N 
ATOM     19  C   UNL     1       9.180  12.654  20.230  0.00  0.00    +0.000 C 
ATOM     20  C   UNL     1      10.177  11.468  20.172  0.00  0.00    +0.000 C 
BRANCH  18  21
ATOM     21  C   UNL     1       9.270  14.844  19.039  0.00  0.00    +0.000 A 
ATOM     22  C   UNL     1       8.960  15.564  20.198  0.00  0.00    +0.000 A 
ATOM     23  C   UNL     1       8.917  16.952  20.160  0.00  0.00    +0.000 A 
ATOM     24  N   UNL     1       9.155  17.684  19.054  0.00  0.00    +0.000 NA
ATOM     25  C   UNL     1       9.451  16.985  17.942  0.00  0.00    +0.000 A 
ATOM     26  C   UNL     1       9.520  15.603  17.892  0.00  0.00    +0.000 A 
ENDBRANCH  18  21
ENDBRANCH  14  15
ENDBRANCH   1  14
TORSDOF 6
ENDMDL
MODEL 9
REMARK VINA RESULT:      -6.9      1.312      1.929
REMARK  Name = 
REMARK  7 active torsions:
REMARK  status: ('A' for Active; 'I' for Inactive)
REMARK    1  A    between atoms: C_1  and  S_2
REMARK    2  A    between atoms: S_2  and  N_5
REMARK    3  A    between atoms: N_5  and  C_6
REMARK    4  A    between atoms: C_9  and  C_10
REMARK    5  A    between atoms: C_10  and  C_11
REMARK    6  A    between atoms: C_11  and  N_12
REMARK    7  A    between atoms: N_15  and  C_16
REMARK                            x       y       z     vdW  Elec       q    Type
REMARK                         _______ _______ _______ _____ _____    ______ ____
ROOT
ATOM      1  C   UNL     1       8.513   8.297  18.605  0.00  0.00    +0.000 C 
ENDROOT
BRANCH   1   5
ATOM      2  C   UNL     1       9.482  12.494  18.685  0.00  0.00    +0.000 A 
ATOM      3  C   UNL     1       8.685  11.988  17.661  0.00  0.00    +0.000 A 
ATOM      4  C   UNL     1       8.354  10.630  17.647  0.00  0.00    +0.000 A 
ATOM      5  C   UNL     1       8.804   9.778  18.664  0.00  0.00    +0.000 A 
ATOM      6  C   UNL     1       9.583  10.305  19.705  0.00  0.00    +0.000 A 
ATOM      7  C   UNL     1       9.914  11.661  19.717  0.00  0.00    +0.000 A 
BRANCH   2   8
ATOM      8  N   UNL     1       9.814  13.879  18.713  0.00  0.00    +0.000 N 
ATOM      9  H   UNL     1      10.116  14.268  17.818  0.00  0.00    +0.000 HD
BRANCH   8  11
ATOM     10  C   UNL     1       7.808  15.502  17.962  0.00  0.00    +0.000 C 
ATOM     11  S   UNL     1       8.680  14.931  19.403  0.00  0.00    +0.000 S 
ATOM     12  O   UNL     1       9.350  16.047  20.030  0.00  0.00    +0.000 OA
ATOM     13  O   UNL     1       7.778  14.081  20.153  0.00  0.00    +0.000 OA
ENDBRANCH   8  11
ENDBRANCH   2   8
ENDBRANCH   1   5
BRANCH   1  14
ATOM     14  C   UNL     1       7.463   8.005  17.521  0.00  0.00    +0.000 C 
BRANCH  14  15
ATOM     15  N   UNL     1       7.500   6.639  16.967  0.00  0.00    +0.000 NA
ATOM     16  C   UNL     1       7.366   5.583  18.001  0.00  0.00    +0.000 C 
ATOM     17  C   UNL     1       5.993   5.519  18.715  0.00  0.00    +0.000 C 
ATOM     18  N   UNL     1       4.914   5.433  17.718  0.00  0.00    +0.000 N 
ATOM     19  C   UNL     1       4.969   6.433  16.639  0.00  0.00    +0.000 C 
ATOM     20  C   UNL     1       6.382   6.452  16.001  0.00  0.00    +0.000 C 
BRANCH  18  21
ATOM     21  C   UNL     1       3.831   4.593  17.881  0.00  0.00    +0.000 A 
ATOM     22  C   UNL     1       2.620   5.028  18.430  0.00  0.00    +0.000 A 
ATOM     23  C   UNL     1       1.579   4.126  18.613  0.00  0.00    +0.000 A 
ATOM     24  N   UNL     1       1.648   2.819  18.295  0.00  0.00    +0.000 NA
ATOM     25  C   UNL     1       2.818   2.406  17.769  0.00  0.00    +0.000 A 
ATOM     26  C   UNL     1       3.903   3.237  17.548  0.00  0.00    +0.000 A 
ENDBRANCH  18  21
ENDBRANCH  14  15
ENDBRANCH   1  14
TORSDOF 6
ENDMDL
