MODEL 1
REMARK VINA RESULT:      -8.4      0.000      0.000
REMARK  Name = 
REMARK  10 active torsions:
REMARK  status: ('A' for Active; 'I' for Inactive)
REMARK    1  A    between atoms: C_1  and  C_2
REMARK    2  A    between atoms: C_2  and  C_3
REMARK    3  A    between atoms: C_2  and  C_4
REMARK    4  A    between atoms: C_4  and  C_5
REMARK    5  A    between atoms: C_5  and  C_6
REMARK    6  A    between atoms: C_5  and  N_10
REMARK    7  A    between atoms: N_8  and  O_9
REMARK    8  A    between atoms: C_16  and  O_17
REMARK    9  A    between atoms: O_17  and  C_18
REMARK   10  A    between atoms: C_18  and  C_19
REMARK                            x       y       z     vdW  Elec       q    Type
REMARK                         _______ _______ _______ _____ _____    ______ ____
ROOT
ATOM      1  N   UNL     1       3.965   4.941  18.592  0.00  0.00    +0.000 NA
ATOM      2  C   UNL     1       3.102   5.759  17.643  0.00  0.00    +0.000 C 
ATOM      3  C   UNL     1       3.651   7.145  17.273  0.00  0.00    +0.000 C 
ATOM      4  N   UNL     1       4.847   7.109  16.409  0.00  0.00    +0.000 N 
ATOM      5  C   UNL     1       6.033   7.094  17.171  0.00  0.00    +0.000 A 
ATOM      6  C   UNL     1       6.862   8.215  17.091  0.00  0.00    +0.000 A 
ATOM      7  C   UNL     1       7.996   8.334  17.899  0.00  0.00    +0.000 A 
ATOM      8  C   UNL     1       8.327   7.306  18.779  0.00  0.00    +0.000 A 
ATOM      9  C   UNL     1       7.530   6.164  18.849  0.00  0.00    +0.000 A 
ATOM     10  C   UNL     1       6.397   6.059  18.029  0.00  0.00    +0.000 A 
ATOM     11  S   UNL     1       5.504   4.542  17.965  0.00  0.00    +0.000 S 
ATOM     12  O   UNL     1       6.152   3.616  18.866  0.00  0.00    +0.000 OA
ATOM     13  O   UNL     1       5.318   4.170  16.579  0.00  0.00    +0.000 OA
ATOM     14  H   UNL     1       4.826   6.277  15.806  0.00  0.00    +0.000 HD
ENDROOT
BRANCH   1  15
ATOM     15  C   UNL     1       3.153   3.790  19.155  0.00  0.00    +0.000 C 
BRANCH  15  16
ATOM     16  C   UNL     1       3.304   2.484  18.371  0.00  0.00    +0.000 C 
ATOM     17  O   UNL     1       2.725   2.310  17.293  0.00  0.00    +0.000 OA
ATOM     18  N   UNL     1       4.130   1.519  18.893  0.00  0.00    +0.000 N 
ATOM     19  H   UNL     1       4.945   1.765  19.451  0.00  0.00    +0.000 HD
BRANCH  18  20
ATOM     20  O   UNL     1       4.288   0.377  18.065  0.00  0.00    +0.000 OA
ATOM     21  H   UNL     1       3.981   0.700  17.189  0.00  0.00    +0.000 HD
ENDBRANCH  18  20
ENDBRANCH  15  16
BRANCH  15  22
ATOM     22  C   UNL     1       3.278   3.599  20.681  0.00  0.00    +0.000 C 
BRANCH  22  24
ATOM     23  C   UNL     1       0.859   4.389  20.596  0.00  0.00    +0.000 C 
ATOM     24  C   UNL     1       1.950   3.742  21.452  0.00  0.00    +0.000 C 
ATOM     25  C   UNL     1       1.465   2.372  21.937  0.00  0.00    +0.000 C 
ENDBRANCH  22  24
ENDBRANCH  15  22
ENDBRANCH   1  15
BRANCH   7  26
ATOM     26  O   UNL     1       8.837   9.413  17.902  0.00  0.00    +0.000 OA
BRANCH  26  27
ATOM     27  C   UNL     1       9.117   9.947  19.197  0.00  0.00    +0.000 C 
BRANCH  27  28
ATOM     28  C   UNL     1      10.127  11.048  19.065  0.00  0.00    +0.000 A 
ATOM     29  C   UNL     1      10.634  11.690  20.201  0.00  0.00    +0.000 A 
ATOM     30  C   UNL     1      11.581  12.709  20.068  0.00  0.00    +0.000 A 
ATOM     31  C   UNL     1      12.025  13.089  18.802  0.00  0.00    +0.000 A 
ATOM     32  C   UNL     1      11.521  12.456  17.666  0.00  0.00    +0.000 A 
ATOM     33  C   UNL     1      10.577  11.441  17.794  0.00  0.00    +0.000 A 
ENDBRANCH  27  28
ENDBRANCH  26  27
ENDBRANCH   7  26
TORSDOF 8
ENDMDL
MODEL 2
REMARK VINA RESULT:      -8.1      7.454     10.590
REMARK  Name = 
REMARK  10 active torsions:
REMARK  status: ('A' for Active; 'I' for Inactive)
REMARK    1  A    between atoms: C_1  and  C_2
REMARK    2  A    between atoms: C_2  and  C_3
REMARK    3  A    between atoms: C_2  and  C_4
REMARK    4  A    between atoms: C_4  and  C_5
REMARK    5  A    between atoms: C_5  and  C_6
REMARK    6  A    between atoms: C_5  and  N_10
REMARK    7  A    between atoms: N_8  and  O_9
REMARK    8  A    between atoms: C_16  and  O_17
REMARK    9  A    between atoms: O_17  and  C_18
REMARK   10  A    between atoms: C_18  and  C_19
REMARK                            x       y       z     vdW  Elec       q    Type
REMARK                         _______ _______ _______ _____ _____    ______ ____
ROOT
ATOM      1  N   UNL     1      -1.223  11.585  21.412  0.00  0.00    +0.000 NA
ATOM      2  C   UNL     1      -1.008  10.804  22.700  0.00  0.00    +0.000 C 
ATOM      3  C   UNL     1      -0.351   9.425  22.540  0.00  0.00    +0.000 C 
ATOM      4  N   UNL     1       1.071   9.476  22.146  0.00  0.00    +0.000 N 
ATOM      5  C   UNL     1       1.218   9.457  20.744  0.00  0.00    +0.000 A 
ATOM      6  C   UNL     1       1.818   8.331  20.177  0.00  0.00    +0.000 A 
ATOM      7  C   UNL     1       1.900   8.178  18.790  0.00  0.00    +0.000 A 
ATOM      8  C   UNL     1       1.402   9.175  17.954  0.00  0.00    +0.000 A 
ATOM      9  C   UNL     1       0.828  10.321  18.503  0.00  0.00    +0.000 A 
ATOM     10  C   UNL     1       0.758  10.462  19.896  0.00  0.00    +0.000 A 
ATOM     11  S   UNL     1       0.222  11.988  20.593  0.00  0.00    +0.000 S 
ATOM     12  O   UNL     1      -0.093  12.880  19.500  0.00  0.00    +0.000 OA
ATOM     13  O   UNL     1       1.180  12.404  21.595  0.00  0.00    +0.000 OA
ATOM     14  H   UNL     1       1.513  10.326  22.517  0.00  0.00    +0.000 HD
ENDROOT
BRANCH   1  15
ATOM     15  C   UNL     1      -2.191  12.725  21.664  0.00  0.00    +0.000 C 
BRANCH  15  16
ATOM     16  C   UNL     1      -3.441  12.683  20.781  0.00  0.00    +0.000 C 
ATOM     17  O   UNL     1      -4.576  12.718  21.270  0.00  0.00    +0.000 OA
ATOM     18  N   UNL     1      -3.260  12.635  19.420  0.00  0.00    +0.000 N 
ATOM     19  H   UNL     1      -2.453  13.072  18.978  0.00  0.00    +0.000 HD
BRANCH  18  20
ATOM     20  O   UNL     1      -4.462  12.691  18.670  0.00  0.00    +0.000 OA
ATOM     21  H   UNL     1      -4.810  13.585  18.882  0.00  0.00    +0.000 HD
ENDBRANCH  18  20
ENDBRANCH  15  16
BRANCH  15  22
ATOM     22  C   UNL     1      -2.510  12.984  23.151  0.00  0.00    +0.000 C 
BRANCH  22  24
ATOM     23  C   UNL     1      -0.981  14.985  22.777  0.00  0.00    +0.000 C 
ATOM     24  C   UNL     1      -1.631  14.064  23.813  0.00  0.00    +0.000 C 
ATOM     25  C   UNL     1      -2.462  14.907  24.786  0.00  0.00    +0.000 C 
ENDBRANCH  22  24
ENDBRANCH  15  22
ENDBRANCH   1  15
BRANCH   7  26
ATOM     26  O   UNL     1       2.443   7.091  18.160  0.00  0.00    +0.000 OA
BRANCH  26  27
ATOM     27  C   UNL     1       3.148   6.194  19.021  0.00  0.00    +0.000 C 
BRANCH  27  28
ATOM     28  C   UNL     1       2.328   4.953  19.210  0.00  0.00    +0.000 A 
ATOM     29  C   UNL     1       2.008   4.136  18.118  0.00  0.00    +0.000 A 
ATOM     30  C   UNL     1       1.250   2.977  18.306  0.00  0.00    +0.000 A 
ATOM     31  C   UNL     1       0.812   2.628  19.583  0.00  0.00    +0.000 A 
ATOM     32  C   UNL     1       1.124   3.439  20.674  0.00  0.00    +0.000 A 
ATOM     33  C   UNL     1       1.876   4.596  20.492  0.00  0.00    +0.000 A 
ENDBRANCH  27  28
ENDBRANCH  26  27
ENDBRANCH   7  26
TORSDOF 8
ENDMDL
MODEL 3
REMARK VINA RESULT:      -8.1      6.859     10.105
REMARK  Name = 
REMARK  10 active torsions:
REMARK  status: ('A' for Active; 'I' for Inactive)
REMARK    1  A    between atoms: C_1  and  C_2
REMARK    2  A    between atoms: C_2  and  C_3
REMARK    3  A    between atoms: C_2  and  C_4
REMARK    4  A    between atoms: C_4  and  C_5
REMARK    5  A    between atoms: C_5  and  C_6
REMARK    6  A    between atoms: C_5  and  N_10
REMARK    7  A    between atoms: N_8  and  O_9
REMARK    8  A    between atoms: C_16  and  O_17
REMARK    9  A    between atoms: O_17  and  C_18
REMARK   10  A    between atoms: C_18  and  C_19
REMARK                            x       y       z     vdW  Elec       q    Type
REMARK                         _______ _______ _______ _____ _____    ______ ____
ROOT
ATOM      1  N   UNL     1      -0.873  11.102  20.538  0.00  0.00    +0.000 NA
ATOM      2  C   UNL     1      -0.906  10.407  21.891  0.00  0.00    +0.000 C 
ATOM      3  C   UNL     1      -0.332   8.982  21.920  0.00  0.00    +0.000 C 
ATOM      4  N   UNL     1       1.132   8.917  21.742  0.00  0.00    +0.000 N 
ATOM      5  C   UNL     1       1.481   8.787  20.383  0.00  0.00    +0.000 A 
ATOM      6  C   UNL     1       2.077   7.587  19.987  0.00  0.00    +0.000 A 
ATOM      7  C   UNL     1       2.350   7.327  18.641  0.00  0.00    +0.000 A 
ATOM      8  C   UNL     1       2.052   8.288  17.677  0.00  0.00    +0.000 A 
ATOM      9  C   UNL     1       1.487   9.505  18.059  0.00  0.00    +0.000 A 
ATOM     10  C   UNL     1       1.223   9.752  19.413  0.00  0.00    +0.000 A 
ATOM     11  S   UNL     1       0.701  11.355  19.922  0.00  0.00    +0.000 S 
ATOM     12  O   UNL     1       0.615  12.182  18.739  0.00  0.00    +0.000 OA
ATOM     13  O   UNL     1       1.529  11.785  21.029  0.00  0.00    +0.000 OA
ATOM     14  H   UNL     1       1.574   9.764  22.121  0.00  0.00    +0.000 HD
ENDROOT
BRANCH   1  15
ATOM     15  C   UNL     1      -1.784  12.315  20.567  0.00  0.00    +0.000 C 
BRANCH  15  16
ATOM     16  C   UNL     1      -2.934  12.250  19.558  0.00  0.00    +0.000 C 
ATOM     17  O   UNL     1      -4.107  12.427  19.907  0.00  0.00    +0.000 OA
ATOM     18  N   UNL     1      -2.616  12.019  18.242  0.00  0.00    +0.000 N 
ATOM     19  H   UNL     1      -1.734  12.338  17.846  0.00  0.00    +0.000 HD
BRANCH  18  20
ATOM     20  O   UNL     1      -3.725  12.064  17.358  0.00  0.00    +0.000 OA
ATOM     21  H   UNL     1      -4.480  12.237  17.964  0.00  0.00    +0.000 HD
ENDBRANCH  18  20
ENDBRANCH  15  16
BRANCH  15  22
ATOM     22  C   UNL     1      -2.239  12.746  21.976  0.00  0.00    +0.000 C 
BRANCH  22  24
ATOM     23  C   UNL     1      -2.852  15.217  22.016  0.00  0.00    +0.000 C 
ATOM     24  C   UNL     1      -1.800  14.167  22.382  0.00  0.00    +0.000 C 
ATOM     25  C   UNL     1      -1.525  14.231  23.887  0.00  0.00    +0.000 C 
ENDBRANCH  22  24
ENDBRANCH  15  22
ENDBRANCH   1  15
BRANCH   7  26
ATOM     26  O   UNL     1       2.901   6.166  18.171  0.00  0.00    +0.000 OA
BRANCH  26  27
ATOM     27  C   UNL     1       1.984   5.076  18.054  0.00  0.00    +0.000 C 
BRANCH  27  28
ATOM     28  C   UNL     1       2.142   4.175  19.243  0.00  0.00    +0.000 A 
ATOM     29  C   UNL     1       1.075   3.965  20.126  0.00  0.00    +0.000 A 
ATOM     30  C   UNL     1       1.230   3.118  21.225  0.00  0.00    +0.000 A 
ATOM     31  C   UNL     1       2.448   2.475  21.446  0.00  0.00    +0.000 A 
ATOM     32  C   UNL     1       3.515   2.681  20.573  0.00  0.00    +0.000 A 
ATOM     33  C   UNL     1       3.366   3.527  19.477  0.00  0.00    +0.000 A 
ENDBRANCH  27  28
ENDBRANCH  26  27
ENDBRANCH   7  26
TORSDOF 8
ENDMDL
MODEL 4
REMARK VINA RESULT:      -8.1      6.693      8.848
REMARK  Name = 
REMARK  10 active torsions:
REMARK  status: ('A' for Active; 'I' for Inactive)
REMARK    1  A    between atoms: C_1  and  C_2
REMARK    2  A    between atoms: C_2  and  C_3
REMARK    3  A    between atoms: C_2  and  C_4
REMARK    4  A    between atoms: C_4  and  C_5
REMARK    5  A    between atoms: C_5  and  C_6
REMARK    6  A    between atoms: C_5  and  N_10
REMARK    7  A    between atoms: N_8  and  O_9
REMARK    8  A    between atoms: C_16  and  O_17
REMARK    9  A    between atoms: O_17  and  C_18
REMARK   10  A    between atoms: C_18  and  C_19
REMARK                            x       y       z     vdW  Elec       q    Type
REMARK                         _______ _______ _______ _____ _____    ______ ____
ROOT
ATOM      1  N   UNL     1      -0.823  10.968  20.609  0.00  0.00    +0.000 NA
ATOM      2  C   UNL     1      -0.880  10.314  21.981  0.00  0.00    +0.000 C 
ATOM      3  C   UNL     1      -0.318   8.887  22.062  0.00  0.00    +0.000 C 
ATOM      4  N   UNL     1       1.149   8.807  21.908  0.00  0.00    +0.000 N 
ATOM      5  C   UNL     1       1.517   8.632  20.559  0.00  0.00    +0.000 A 
ATOM      6  C   UNL     1       2.109   7.417  20.208  0.00  0.00    +0.000 A 
ATOM      7  C   UNL     1       2.399   7.115  18.874  0.00  0.00    +0.000 A 
ATOM      8  C   UNL     1       2.123   8.048  17.878  0.00  0.00    +0.000 A 
ATOM      9  C   UNL     1       1.562   9.280  18.214  0.00  0.00    +0.000 A 
ATOM     10  C   UNL     1       1.280   9.570  19.557  0.00  0.00    +0.000 A 
ATOM     11  S   UNL     1       0.762  11.191  20.009  0.00  0.00    +0.000 S 
ATOM     12  O   UNL     1       0.699  11.982  18.801  0.00  0.00    +0.000 OA
ATOM     13  O   UNL     1       1.577  11.649  21.114  0.00  0.00    +0.000 OA
ATOM     14  H   UNL     1       1.591   9.661  22.268  0.00  0.00    +0.000 HD
ENDROOT
BRANCH   1  15
ATOM     15  C   UNL     1      -1.725  12.187  20.588  0.00  0.00    +0.000 C 
BRANCH  15  16
ATOM     16  C   UNL     1      -2.781  12.157  19.479  0.00  0.00    +0.000 C 
ATOM     17  O   UNL     1      -3.977  12.348  19.725  0.00  0.00    +0.000 OA
ATOM     18  N   UNL     1      -2.350  11.941  18.193  0.00  0.00    +0.000 N 
ATOM     19  H   UNL     1      -1.430  12.252  17.884  0.00  0.00    +0.000 HD
BRANCH  18  20
ATOM     20  O   UNL     1      -3.374  12.019  17.214  0.00  0.00    +0.000 OA
ATOM     21  H   UNL     1      -3.469  12.988  17.076  0.00  0.00    +0.000 HD
ENDBRANCH  18  20
ENDBRANCH  15  16
BRANCH  15  22
ATOM     22  C   UNL     1      -2.302  12.586  21.962  0.00  0.00    +0.000 C 
BRANCH  22  24
ATOM     23  C   UNL     1      -2.273  14.236  23.901  0.00  0.00    +0.000 C 
ATOM     24  C   UNL     1      -1.903  13.998  22.435  0.00  0.00    +0.000 C 
ATOM     25  C   UNL     1      -0.398  14.217  22.252  0.00  0.00    +0.000 C 
ENDBRANCH  22  24
ENDBRANCH  15  22
ENDBRANCH   1  15
BRANCH   7  26
ATOM     26  O   UNL     1       2.949   5.936  18.448  0.00  0.00    +0.000 OA
BRANCH  26  27
ATOM     27  C   UNL     1       3.829   6.059  17.329  0.00  0.00    +0.000 C 
BRANCH  27  28
ATOM     28  C   UNL     1       5.241   6.149  17.826  0.00  0.00    +0.000 A 
ATOM     29  C   UNL     1       5.665   5.377  18.914  0.00  0.00    +0.000 A 
ATOM     30  C   UNL     1       6.985   5.462  19.364  0.00  0.00    +0.000 A 
ATOM     31  C   UNL     1       7.886   6.316  18.728  0.00  0.00    +0.000 A 
ATOM     32  C   UNL     1       7.470   7.090  17.646  0.00  0.00    +0.000 A 
ATOM     33  C   UNL     1       6.155   7.010  17.196  0.00  0.00    +0.000 A 
ENDBRANCH  27  28
ENDBRANCH  26  27
ENDBRANCH   7  26
TORSDOF 8
ENDMDL
MODEL 5
REMARK VINA RESULT:      -7.8      7.041     10.254
REMARK  Name = 
REMARK  10 active torsions:
REMARK  status: ('A' for Active; 'I' for Inactive)
REMARK    1  A    between atoms: C_1  and  C_2
REMARK    2  A    between atoms: C_2  and  C_3
REMARK    3  A    between atoms: C_2  and  C_4
REMARK    4  A    between atoms: C_4  and  C_5
REMARK    5  A    between atoms: C_5  and  C_6
REMARK    6  A    between atoms: C_5  and  N_10
REMARK    7  A    between atoms: N_8  and  O_9
REMARK    8  A    between atoms: C_16  and  O_17
REMARK    9  A    between atoms: O_17  and  C_18
REMARK   10  A    between atoms: C_18  and  C_19
REMARK                            x       y       z     vdW  Elec       q    Type
REMARK                         _______ _______ _______ _____ _____    ______ ____
ROOT
ATOM      1  N   UNL     1      -0.941  11.142  20.856  0.00  0.00    +0.000 NA
ATOM      2  C   UNL     1      -0.935  10.318  22.135  0.00  0.00    +0.000 C 
ATOM      3  C   UNL     1      -0.341   8.907  22.014  0.00  0.00    +0.000 C 
ATOM      4  N   UNL     1       1.121   8.884  21.803  0.00  0.00    +0.000 N 
ATOM      5  C   UNL     1       1.444   8.892  20.431  0.00  0.00    +0.000 A 
ATOM      6  C   UNL     1       2.048   7.748  19.908  0.00  0.00    +0.000 A 
ATOM      7  C   UNL     1       2.297   7.624  18.538  0.00  0.00    +0.000 A 
ATOM      8  C   UNL     1       1.966   8.669  17.679  0.00  0.00    +0.000 A 
ATOM      9  C   UNL     1       1.391   9.834  18.188  0.00  0.00    +0.000 A 
ATOM     10  C   UNL     1       1.151   9.944  19.565  0.00  0.00    +0.000 A 
ATOM     11  S   UNL     1       0.616  11.480  20.238  0.00  0.00    +0.000 S 
ATOM     12  O   UNL     1       0.493  12.417  19.144  0.00  0.00    +0.000 OA
ATOM     13  O   UNL     1       1.460  11.814  21.366  0.00  0.00    +0.000 OA
ATOM     14  H   UNL     1       1.558   9.697  22.254  0.00  0.00    +0.000 HD
ENDROOT
BRANCH   1  15
ATOM     15  C   UNL     1      -1.869  12.331  21.021  0.00  0.00    +0.000 C 
BRANCH  15  16
ATOM     16  C   UNL     1      -2.918  12.457  19.912  0.00  0.00    +0.000 C 
ATOM     17  O   UNL     1      -2.820  11.818  18.859  0.00  0.00    +0.000 OA
ATOM     18  N   UNL     1      -3.990  13.283  20.140  0.00  0.00    +0.000 N 
ATOM     19  H   UNL     1      -4.359  13.427  21.079  0.00  0.00    +0.000 HD
BRANCH  18  20
ATOM     20  O   UNL     1      -4.962  13.276  19.106  0.00  0.00    +0.000 OA
ATOM     21  H   UNL     1      -5.303  12.354  19.135  0.00  0.00    +0.000 HD
ENDBRANCH  18  20
ENDBRANCH  15  16
BRANCH  15  22
ATOM     22  C   UNL     1      -2.462  12.495  22.436  0.00  0.00    +0.000 C 
BRANCH  22  24
ATOM     23  C   UNL     1      -0.707  14.339  22.502  0.00  0.00    +0.000 C 
ATOM     24  C   UNL     1      -1.834  13.635  23.262  0.00  0.00    +0.000 C 
ATOM     25  C   UNL     1      -2.902  14.665  23.648  0.00  0.00    +0.000 C 
ENDBRANCH  22  24
ENDBRANCH  15  22
ENDBRANCH   1  15
BRANCH   7  26
ATOM     26  O   UNL     1       2.855   6.524  17.946  0.00  0.00    +0.000 OA
BRANCH  26  27
ATOM     27  C   UNL     1       3.533   5.644  18.845  0.00  0.00    +0.000 C 
BRANCH  27  28
ATOM     28  C   UNL     1       2.601   4.539  19.244  0.00  0.00    +0.000 A 
ATOM     29  C   UNL     1       2.419   4.212  20.594  0.00  0.00    +0.000 A 
ATOM     30  C   UNL     1       1.542   3.186  20.956  0.00  0.00    +0.000 A 
ATOM     31  C   UNL     1       0.843   2.485  19.973  0.00  0.00    +0.000 A 
ATOM     32  C   UNL     1       1.022   2.803  18.627  0.00  0.00    +0.000 A 
ATOM     33  C   UNL     1       1.896   3.823  18.262  0.00  0.00    +0.000 A 
ENDBRANCH  27  28
ENDBRANCH  26  27
ENDBRANCH   7  26
TORSDOF 8
ENDMDL
MODEL 6
REMARK VINA RESULT:      -7.8      6.895      9.080
REMARK  Name = 
REMARK  10 active torsions:
REMARK  status: ('A' for Active; 'I' for Inactive)
REMARK    1  A    between atoms: C_1  and  C_2
REMARK    2  A    between atoms: C_2  and  C_3
REMARK    3  A    between atoms: C_2  and  C_4
REMARK    4  A    between atoms: C_4  and  C_5
REMARK    5  A    between atoms: C_5  and  C_6
REMARK    6  A    between atoms: C_5  and  N_10
REMARK    7  A    between atoms: N_8  and  O_9
REMARK    8  A    between atoms: C_16  and  O_17
REMARK    9  A    between atoms: O_17  and  C_18
REMARK   10  A    between atoms: C_18  and  C_19
REMARK                            x       y       z     vdW  Elec       q    Type
REMARK                         _______ _______ _______ _____ _____    ______ ____
ROOT
ATOM      1  N   UNL     1      -0.863  11.043  20.689  0.00  0.00    +0.000 NA
ATOM      2  C   UNL     1      -0.931  10.411  22.072  0.00  0.00    +0.000 C 
ATOM      3  C   UNL     1      -0.378   8.982  22.177  0.00  0.00    +0.000 C 
ATOM      4  N   UNL     1       1.088   8.890  22.032  0.00  0.00    +0.000 N 
ATOM      5  C   UNL     1       1.461   8.692  20.688  0.00  0.00    +0.000 A 
ATOM      6  C   UNL     1       2.047   7.468  20.358  0.00  0.00    +0.000 A 
ATOM      7  C   UNL     1       2.342   7.142  19.031  0.00  0.00    +0.000 A 
ATOM      8  C   UNL     1       2.076   8.061  18.019  0.00  0.00    +0.000 A 
ATOM      9  C   UNL     1       1.522   9.302  18.333  0.00  0.00    +0.000 A 
ATOM     10  C   UNL     1       1.235   9.615  19.669  0.00  0.00    +0.000 A 
ATOM     11  S   UNL     1       0.726  11.246  20.094  0.00  0.00    +0.000 S 
ATOM     12  O   UNL     1       0.674  12.019  18.873  0.00  0.00    +0.000 OA
ATOM     13  O   UNL     1       1.539  11.716  21.196  0.00  0.00    +0.000 OA
ATOM     14  H   UNL     1       1.535   9.747  22.380  0.00  0.00    +0.000 HD
ENDROOT
BRANCH   1  15
ATOM     15  C   UNL     1      -1.757  12.267  20.645  0.00  0.00    +0.000 C 
BRANCH  15  16
ATOM     16  C   UNL     1      -2.821  12.218  19.544  0.00  0.00    +0.000 C 
ATOM     17  O   UNL     1      -2.691  11.486  18.557  0.00  0.00    +0.000 OA
ATOM     18  N   UNL     1      -3.942  12.995  19.706  0.00  0.00    +0.000 N 
ATOM     19  H   UNL     1      -4.310  13.206  20.632  0.00  0.00    +0.000 HD
BRANCH  18  20
ATOM     20  O   UNL     1      -4.920  12.825  18.692  0.00  0.00    +0.000 OA
ATOM     21  H   UNL     1      -4.639  11.988  18.258  0.00  0.00    +0.000 HD
ENDBRANCH  18  20
ENDBRANCH  15  16
BRANCH  15  22
ATOM     22  C   UNL     1      -2.321  12.704  22.013  0.00  0.00    +0.000 C 
BRANCH  22  24
ATOM     23  C   UNL     1      -0.744  14.659  21.595  0.00  0.00    +0.000 C 
ATOM     24  C   UNL     1      -1.646  13.954  22.611  0.00  0.00    +0.000 C 
ATOM     25  C   UNL     1      -2.703  14.941  23.116  0.00  0.00    +0.000 C 
ENDBRANCH  22  24
ENDBRANCH  15  22
ENDBRANCH   1  15
BRANCH   7  26
ATOM     26  O   UNL     1       2.885   5.953  18.626  0.00  0.00    +0.000 OA
BRANCH  26  27
ATOM     27  C   UNL     1       3.694   6.037  17.451  0.00  0.00    +0.000 C 
BRANCH  27  28
ATOM     28  C   UNL     1       5.135   6.130  17.855  0.00  0.00    +0.000 A 
ATOM     29  C   UNL     1       6.025   6.941  17.139  0.00  0.00    +0.000 A 
ATOM     30  C   UNL     1       7.364   7.027  17.528  0.00  0.00    +0.000 A 
ATOM     31  C   UNL     1       7.819   6.306  18.632  0.00  0.00    +0.000 A 
ATOM     32  C   UNL     1       6.939   5.494  19.347  0.00  0.00    +0.000 A 
ATOM     33  C   UNL     1       5.604   5.403  18.962  0.00  0.00    +0.000 A 
ENDBRANCH  27  28
ENDBRANCH  26  27
ENDBRANCH   7  26
TORSDOF 8
ENDMDL
MODEL 7
REMARK VINA RESULT:      -7.7      6.901     10.190
REMARK  Name = 
REMARK  10 active torsions:
REMARK  status: ('A' for Active; 'I' for Inactive)
REMARK    1  A    between atoms: C_1  and  C_2
REMARK    2  A    between atoms: C_2  and  C_3
REMARK    3  A    between atoms: C_2  and  C_4
REMARK    4  A    between atoms: C_4  and  C_5
REMARK    5  A    between atoms: C_5  and  C_6
REMARK    6  A    between atoms: C_5  and  N_10
REMARK    7  A    between atoms: N_8  and  O_9
REMARK    8  A    between atoms: C_16  and  O_17
REMARK    9  A    between atoms: O_17  and  C_18
REMARK   10  A    between atoms: C_18  and  C_19
REMARK                            x       y       z     vdW  Elec       q    Type
REMARK                         _______ _______ _______ _____ _____    ______ ____
ROOT
ATOM      1  N   UNL     1      -1.040  11.144  20.390  0.00  0.00    +0.000 NA
ATOM      2  C   UNL     1      -1.064  10.452  21.745  0.00  0.00    +0.000 C 
ATOM      3  C   UNL     1      -0.395   9.070  21.795  0.00  0.00    +0.000 C 
ATOM      4  N   UNL     1       1.075   9.105  21.660  0.00  0.00    +0.000 N 
ATOM      5  C   UNL     1       1.471   8.996  20.312  0.00  0.00    +0.000 A 
ATOM      6  C   UNL     1       2.158   7.839  19.937  0.00  0.00    +0.000 A 
ATOM      7  C   UNL     1       2.486   7.596  18.600  0.00  0.00    +0.000 A 
ATOM      8  C   UNL     1       2.151   8.532  17.625  0.00  0.00    +0.000 A 
ATOM      9  C   UNL     1       1.493   9.708  17.985  0.00  0.00    +0.000 A 
ATOM     10  C   UNL     1       1.174   9.939  19.331  0.00  0.00    +0.000 A 
ATOM     11  S   UNL     1       0.530  11.504  19.818  0.00  0.00    +0.000 S 
ATOM     12  O   UNL     1       0.420  12.320  18.630  0.00  0.00    +0.000 OA
ATOM     13  O   UNL     1       1.294  11.992  20.946  0.00  0.00    +0.000 OA
ATOM     14  H   UNL     1       1.447   9.981  22.047  0.00  0.00    +0.000 HD
ENDROOT
BRANCH   1  15
ATOM     15  C   UNL     1      -2.033  12.292  20.389  0.00  0.00    +0.000 C 
BRANCH  15  16
ATOM     16  C   UNL     1      -3.110  12.178  19.306  0.00  0.00    +0.000 C 
ATOM     17  O   UNL     1      -4.312  12.224  19.587  0.00  0.00    +0.000 OA
ATOM     18  N   UNL     1      -2.693  12.054  18.003  0.00  0.00    +0.000 N 
ATOM     19  H   UNL     1      -1.824  12.478  17.682  0.00  0.00    +0.000 HD
BRANCH  18  20
ATOM     20  O   UNL     1      -3.747  12.047  17.053  0.00  0.00    +0.000 OA
ATOM     21  H   UNL     1      -4.058  12.980  17.066  0.00  0.00    +0.000 HD
ENDBRANCH  18  20
ENDBRANCH  15  16
BRANCH  15  22
ATOM     22  C   UNL     1      -2.606  12.651  21.776  0.00  0.00    +0.000 C 
BRANCH  22  24
ATOM     23  C   UNL     1      -1.248  14.764  21.361  0.00  0.00    +0.000 C 
ATOM     24  C   UNL     1      -2.314  14.095  22.231  0.00  0.00    +0.000 C 
ATOM     25  C   UNL     1      -3.595  14.934  22.197  0.00  0.00    +0.000 C 
ENDBRANCH  22  24
ENDBRANCH  15  22
ENDBRANCH   1  15
BRANCH   7  26
ATOM     26  O   UNL     1       3.129   6.474  18.151  0.00  0.00    +0.000 OA
BRANCH  26  27
ATOM     27  C   UNL     1       3.520   5.560  19.177  0.00  0.00    +0.000 C 
BRANCH  27  28
ATOM     28  C   UNL     1       2.632   4.353  19.122  0.00  0.00    +0.000 A 
ATOM     29  C   UNL     1       1.623   4.165  20.074  0.00  0.00    +0.000 A 
ATOM     30  C   UNL     1       0.796   3.041  20.010  0.00  0.00    +0.000 A 
ATOM     31  C   UNL     1       0.972   2.102  18.994  0.00  0.00    +0.000 A 
ATOM     32  C   UNL     1       1.977   2.280  18.044  0.00  0.00    +0.000 A 
ATOM     33  C   UNL     1       2.805   3.398  18.106  0.00  0.00    +0.000 A 
ENDBRANCH  27  28
ENDBRANCH  26  27
ENDBRANCH   7  26
TORSDOF 8
ENDMDL
MODEL 8
REMARK VINA RESULT:      -7.7      7.548     10.575
REMARK  Name = 
REMARK  10 active torsions:
REMARK  status: ('A' for Active; 'I' for Inactive)
REMARK    1  A    between atoms: C_1  and  C_2
REMARK    2  A    between atoms: C_2  and  C_3
REMARK    3  A    between atoms: C_2  and  C_4
REMARK    4  A    between atoms: C_4  and  C_5
REMARK    5  A    between atoms: C_5  and  C_6
REMARK    6  A    between atoms: C_5  and  N_10
REMARK    7  A    between atoms: N_8  and  O_9
REMARK    8  A    between atoms: C_16  and  O_17
REMARK    9  A    between atoms: O_17  and  C_18
REMARK   10  A    between atoms: C_18  and  C_19
REMARK                            x       y       z     vdW  Elec       q    Type
REMARK                         _______ _______ _______ _____ _____    ______ ____
ROOT
ATOM      1  N   UNL     1      -1.417  11.758  21.375  0.00  0.00    +0.000 NA
ATOM      2  C   UNL     1      -1.405  11.261  22.812  0.00  0.00    +0.000 C 
ATOM      3  C   UNL     1      -0.785   9.872  23.030  0.00  0.00    +0.000 C 
ATOM      4  N   UNL     1       0.678   9.826  22.833  0.00  0.00    +0.000 N 
ATOM      5  C   UNL     1       1.008   9.515  21.499  0.00  0.00    +0.000 A 
ATOM      6  C   UNL     1       1.635   8.289  21.263  0.00  0.00    +0.000 A 
ATOM      7  C   UNL     1       1.894   7.849  19.962  0.00  0.00    +0.000 A 
ATOM      8  C   UNL     1       1.549   8.654  18.879  0.00  0.00    +0.000 A 
ATOM      9  C   UNL     1       0.951   9.896  19.096  0.00  0.00    +0.000 A 
ATOM     10  C   UNL     1       0.702  10.325  20.408  0.00  0.00    +0.000 A 
ATOM     11  S   UNL     1       0.137  11.967  20.696  0.00  0.00    +0.000 S 
ATOM     12  O   UNL     1       0.004  12.615  19.411  0.00  0.00    +0.000 OA
ATOM     13  O   UNL     1       0.969  12.574  21.713  0.00  0.00    +0.000 OA
ATOM     14  H   UNL     1       1.098  10.731  23.079  0.00  0.00    +0.000 HD
ENDROOT
BRANCH   1  15
ATOM     15  C   UNL     1      -2.366  12.935  21.251  0.00  0.00    +0.000 C 
BRANCH  15  16
ATOM     16  C   UNL     1      -3.503  12.712  20.250  0.00  0.00    +0.000 C 
ATOM     17  O   UNL     1      -4.685  12.880  20.570  0.00  0.00    +0.000 OA
ATOM     18  N   UNL     1      -3.163  12.347  18.970  0.00  0.00    +0.000 N 
ATOM     19  H   UNL     1      -2.290  12.655  18.546  0.00  0.00    +0.000 HD
BRANCH  18  20
ATOM     20  O   UNL     1      -4.264  12.250  18.080  0.00  0.00    +0.000 OA
ATOM     21  H   UNL     1      -4.495  13.191  17.916  0.00  0.00    +0.000 HD
ENDBRANCH  18  20
ENDBRANCH  15  16
BRANCH  15  22
ATOM     22  C   UNL     1      -2.850  13.516  22.596  0.00  0.00    +0.000 C 
BRANCH  22  24
ATOM     23  C   UNL     1      -1.371  14.777  24.240  0.00  0.00    +0.000 C 
ATOM     24  C   UNL     1      -2.218  14.872  22.969  0.00  0.00    +0.000 C 
ATOM     25  C   UNL     1      -1.346  15.388  21.819  0.00  0.00    +0.000 C 
ENDBRANCH  22  24
ENDBRANCH  15  22
ENDBRANCH   1  15
BRANCH   7  26
ATOM     26  O   UNL     1       2.474   6.650  19.649  0.00  0.00    +0.000 OA
BRANCH  26  27
ATOM     27  C   UNL     1       2.459   6.325  18.257  0.00  0.00    +0.000 C 
BRANCH  27  28
ATOM     28  C   UNL     1       2.565   4.838  18.101  0.00  0.00    +0.000 A 
ATOM     29  C   UNL     1       3.728   4.256  17.581  0.00  0.00    +0.000 A 
ATOM     30  C   UNL     1       3.820   2.868  17.447  0.00  0.00    +0.000 A 
ATOM     31  C   UNL     1       2.752   2.057  17.831  0.00  0.00    +0.000 A 
ATOM     32  C   UNL     1       1.590   2.630  18.346  0.00  0.00    +0.000 A 
ATOM     33  C   UNL     1       1.493   4.012  18.480  0.00  0.00    +0.000 A 
ENDBRANCH  27  28
ENDBRANCH  26  27
ENDBRANCH   7  26
TORSDOF 8
ENDMDL
MODEL 9
REMARK VINA RESULT:      -7.7      7.268     10.260
REMARK  Name = 
REMARK  10 active torsions:
REMARK  status: ('A' for Active; 'I' for Inactive)
REMARK    1  A    between atoms: C_1  and  C_2
REMARK    2  A    between atoms: C_2  and  C_3
REMARK    3  A    between atoms: C_2  and  C_4
REMARK    4  A    between atoms: C_4  and  C_5
REMARK    5  A    between atoms: C_5  and  C_6
REMARK    6  A    between atoms: C_5  and  N_10
REMARK    7  A    between atoms: N_8  and  O_9
REMARK    8  A    between atoms: C_16  and  O_17
REMARK    9  A    between atoms: O_17  and  C_18
REMARK   10  A    between atoms: C_18  and  C_19
REMARK                            x       y       z     vdW  Elec       q    Type
REMARK                         _______ _______ _______ _____ _____    ______ ____
ROOT
ATOM      1  N   UNL     1      -1.108  11.412  21.076  0.00  0.00    +0.000 NA
ATOM      2  C   UNL     1      -1.003  10.684  22.408  0.00  0.00    +0.000 C 
ATOM      3  C   UNL     1      -0.376   9.283  22.351  0.00  0.00    +0.000 C 
ATOM      4  N   UNL     1       1.070   9.280  22.053  0.00  0.00    +0.000 N 
ATOM      5  C   UNL     1       1.311   9.196  20.667  0.00  0.00    +0.000 A 
ATOM      6  C   UNL     1       1.916   8.032  20.190  0.00  0.00    +0.000 A 
ATOM      7  C   UNL     1       2.087   7.815  18.820  0.00  0.00    +0.000 A 
ATOM      8  C   UNL     1       1.675   8.786  17.911  0.00  0.00    +0.000 A 
ATOM      9  C   UNL     1       1.098   9.970  18.370  0.00  0.00    +0.000 A 
ATOM     10  C   UNL     1       0.937  10.174  19.748  0.00  0.00    +0.000 A 
ATOM     11  S   UNL     1       0.399  11.742  20.341  0.00  0.00    +0.000 S 
ATOM     12  O   UNL     1       0.184  12.593  19.193  0.00  0.00    +0.000 OA
ATOM     13  O   UNL     1       1.299  12.178  21.388  0.00  0.00    +0.000 OA
ATOM     14  H   UNL     1       1.510  10.134  22.418  0.00  0.00    +0.000 HD
ENDROOT
BRANCH   1  15
ATOM     15  C   UNL     1      -2.059  12.587  21.212  0.00  0.00    +0.000 C 
BRANCH  15  16
ATOM     16  C   UNL     1      -3.237  12.547  20.235  0.00  0.00    +0.000 C 
ATOM     17  O   UNL     1      -4.382  12.841  20.596  0.00  0.00    +0.000 OA
ATOM     18  N   UNL     1      -2.974  12.202  18.932  0.00  0.00    +0.000 N 
ATOM     19  H   UNL     1      -2.080  12.421  18.497  0.00  0.00    +0.000 HD
BRANCH  18  20
ATOM     20  O   UNL     1      -4.099  12.277  18.071  0.00  0.00    +0.000 OA
ATOM     21  H   UNL     1      -4.513  11.391  18.177  0.00  0.00    +0.000 HD
ENDBRANCH  18  20
ENDBRANCH  15  16
BRANCH  15  22
ATOM     22  C   UNL     1      -2.484  12.907  22.660  0.00  0.00    +0.000 C 
BRANCH  22  24
ATOM     23  C   UNL     1      -3.716  14.980  23.478  0.00  0.00    +0.000 C 
ATOM     24  C   UNL     1      -2.370  14.397  23.043  0.00  0.00    +0.000 C 
ATOM     25  C   UNL     1      -1.352  14.580  24.173  0.00  0.00    +0.000 C 
ENDBRANCH  22  24
ENDBRANCH  15  22
ENDBRANCH   1  15
BRANCH   7  26
ATOM     26  O   UNL     1       2.640   6.688  18.276  0.00  0.00    +0.000 OA
BRANCH  26  27
ATOM     27  C   UNL     1       3.470   5.941  19.167  0.00  0.00    +0.000 C 
BRANCH  27  28
ATOM     28  C   UNL     1       3.312   4.479  18.873  0.00  0.00    +0.000 A 
ATOM     29  C   UNL     1       2.312   4.031  18.001  0.00  0.00    +0.000 A 
ATOM     30  C   UNL     1       2.179   2.667  17.727  0.00  0.00    +0.000 A 
ATOM     31  C   UNL     1       3.042   1.747  18.322  0.00  0.00    +0.000 A 
ATOM     32  C   UNL     1       4.037   2.186  19.195  0.00  0.00    +0.000 A 
ATOM     33  C   UNL     1       4.173   3.544  19.472  0.00  0.00    +0.000 A 
ENDBRANCH  27  28
ENDBRANCH  26  27
ENDBRANCH   7  26
TORSDOF 8
ENDMDL
