MODEL 1
REMARK VINA RESULT:      -7.8      0.000      0.000
REMARK  Name = 
REMARK  3 active torsions:
REMARK  status: ('A' for Active; 'I' for Inactive)
REMARK    1  A    between atoms: N_1  and  S_2
REMARK    2  A    between atoms: S_2  and  C_5
REMARK    3  A    between atoms: C_14  and  C_15
REMARK                            x       y       z     vdW  Elec       q    Type
REMARK                         _______ _______ _______ _____ _____    ______ ____
ROOT
ATOM      1  C   UNL     1       5.396   5.398  16.634  0.00  0.00    +0.000 A 
ATOM      2  C   UNL     1       5.100   6.752  16.355  0.00  0.00    +0.000 A 
ATOM      3  C   UNL     1       4.180   7.444  17.144  0.00  0.00    +0.000 A 
ATOM      4  C   UNL     1       3.596   6.746  18.188  0.00  0.00    +0.000 A 
ATOM      5  C   UNL     1       3.879   5.401  18.472  0.00  0.00    +0.000 A 
ATOM      6  C   UNL     1       4.783   4.707  17.690  0.00  0.00    +0.000 A 
ATOM      7  S   UNL     1       2.975   4.803  19.912  0.00  0.00    +0.000 S 
ATOM      8  C   UNL     1       2.269   6.377  20.073  0.00  0.00    +0.000 A 
ATOM      9  N   UNL     1       1.432   6.920  20.915  0.00  0.00    +0.000 NA
ATOM     10  C   UNL     1       1.297   8.229  20.446  0.00  0.00    +0.000 A 
ATOM     11  C   UNL     1       2.080   8.439  19.323  0.00  0.00    +0.000 A 
ATOM     12  N   UNL     1       2.687   7.243  19.112  0.00  0.00    +0.000 N 
ENDROOT
BRANCH  10  13
ATOM     13  C   UNL     1       0.424   9.210  21.075  0.00  0.00    +0.000 A 
ATOM     14  C   UNL     1      -0.094  10.269  20.317  0.00  0.00    +0.000 A 
ATOM     15  C   UNL     1      -0.902  11.243  20.911  0.00  0.00    +0.000 A 
ATOM     16  C   UNL     1      -1.209  11.163  22.267  0.00  0.00    +0.000 A 
ATOM     17  C   UNL     1      -0.715  10.107  23.030  0.00  0.00    +0.000 A 
ATOM     18  C   UNL     1       0.096   9.136  22.437  0.00  0.00    +0.000 A 
ENDBRANCH  10  13
BRANCH   1  19
ATOM     19  S   UNL     1       6.617   4.588  15.648  0.00  0.00    +0.000 S 
ATOM     20  O   UNL     1       7.235   5.555  14.777  0.00  0.00    +0.000 OA
ATOM     21  O   UNL     1       6.065   3.339  15.162  0.00  0.00    +0.000 OA
BRANCH  19  22
ATOM     22  N   UNL     1       7.756   4.145  16.801  0.00  0.00    +0.000 NA
ATOM     23  H   UNL     1       8.338   3.397  16.420  0.00  0.00    +0.000 HD
ATOM     24  H   UNL     1       7.302   3.872  17.676  0.00  0.00    +0.000 HD
ENDBRANCH  19  22
ENDBRANCH   1  19
TORSDOF 3
ENDMDL
MODEL 2
REMARK VINA RESULT:      -7.7      0.059      1.029
REMARK  Name = 
REMARK  3 active torsions:
REMARK  status: ('A' for Active; 'I' for Inactive)
REMARK    1  A    between atoms: N_1  and  S_2
REMARK    2  A    between atoms: S_2  and  C_5
REMARK    3  A    between atoms: C_14  and  C_15
REMARK                            x       y       z     vdW  Elec       q    Type
REMARK                         _______ _______ _______ _____ _____    ______ ____
ROOT
ATOM      1  C   UNL     1       5.382   5.397  16.618  0.00  0.00    +0.000 A 
ATOM      2  C   UNL     1       5.099   6.757  16.352  0.00  0.00    +0.000 A 
ATOM      3  C   UNL     1       4.187   7.451  17.149  0.00  0.00    +0.000 A 
ATOM      4  C   UNL     1       3.598   6.750  18.187  0.00  0.00    +0.000 A 
ATOM      5  C   UNL     1       3.868   5.400  18.458  0.00  0.00    +0.000 A 
ATOM      6  C   UNL     1       4.763   4.704  17.669  0.00  0.00    +0.000 A 
ATOM      7  S   UNL     1       2.961   4.798  19.895  0.00  0.00    +0.000 S 
ATOM      8  C   UNL     1       2.270   6.378  20.072  0.00  0.00    +0.000 A 
ATOM      9  N   UNL     1       1.440   6.921  20.920  0.00  0.00    +0.000 NA
ATOM     10  C   UNL     1       1.318   8.236  20.463  0.00  0.00    +0.000 A 
ATOM     11  C   UNL     1       2.101   8.448  19.341  0.00  0.00    +0.000 A 
ATOM     12  N   UNL     1       2.696   7.248  19.117  0.00  0.00    +0.000 N 
ENDROOT
BRANCH  10  13
ATOM     13  C   UNL     1       0.456   9.220  21.103  0.00  0.00    +0.000 A 
ATOM     14  C   UNL     1       0.177   9.116  22.473  0.00  0.00    +0.000 A 
ATOM     15  C   UNL     1      -0.679  10.027  23.097  0.00  0.00    +0.000 A 
ATOM     16  C   UNL     1      -1.258  11.058  22.360  0.00  0.00    +0.000 A 
ATOM     17  C   UNL     1      -0.976  11.184  21.002  0.00  0.00    +0.000 A 
ATOM     18  C   UNL     1      -0.123  10.271  20.377  0.00  0.00    +0.000 A 
ENDBRANCH  10  13
BRANCH   1  19
ATOM     19  S   UNL     1       6.593   4.584  15.622  0.00  0.00    +0.000 S 
ATOM     20  O   UNL     1       7.208   5.550  14.749  0.00  0.00    +0.000 OA
ATOM     21  O   UNL     1       6.032   3.338  15.139  0.00  0.00    +0.000 OA
BRANCH  19  22
ATOM     22  N   UNL     1       7.738   4.136  16.767  0.00  0.00    +0.000 NA
ATOM     23  H   UNL     1       7.623   3.144  16.979  0.00  0.00    +0.000 HD
ATOM     24  H   UNL     1       7.664   4.719  17.605  0.00  0.00    +0.000 HD
ENDBRANCH  19  22
ENDBRANCH   1  19
TORSDOF 3
ENDMDL
MODEL 3
REMARK VINA RESULT:      -7.5      2.247      3.345
REMARK  Name = 
REMARK  3 active torsions:
REMARK  status: ('A' for Active; 'I' for Inactive)
REMARK    1  A    between atoms: N_1  and  S_2
REMARK    2  A    between atoms: S_2  and  C_5
REMARK    3  A    between atoms: C_14  and  C_15
REMARK                            x       y       z     vdW  Elec       q    Type
REMARK                         _______ _______ _______ _____ _____    ______ ____
ROOT
ATOM      1  C   UNL     1       3.120   4.355  19.048  0.00  0.00    +0.000 A 
ATOM      2  C   UNL     1       2.534   4.404  20.335  0.00  0.00    +0.000 A 
ATOM      3  C   UNL     1       1.983   5.597  20.807  0.00  0.00    +0.000 A 
ATOM      4  C   UNL     1       2.039   6.693  19.964  0.00  0.00    +0.000 A 
ATOM      5  C   UNL     1       2.621   6.657  18.688  0.00  0.00    +0.000 A 
ATOM      6  C   UNL     1       3.176   5.483  18.216  0.00  0.00    +0.000 A 
ATOM      7  S   UNL     1       2.501   8.243  17.838  0.00  0.00    +0.000 S 
ATOM      8  C   UNL     1       1.673   8.877  19.222  0.00  0.00    +0.000 A 
ATOM      9  N   UNL     1       1.151  10.035  19.522  0.00  0.00    +0.000 NA
ATOM     10  C   UNL     1       0.644   9.843  20.810  0.00  0.00    +0.000 A 
ATOM     11  C   UNL     1       0.873   8.549  21.247  0.00  0.00    +0.000 A 
ATOM     12  N   UNL     1       1.527   7.959  20.215  0.00  0.00    +0.000 N 
ENDROOT
BRANCH  10  13
ATOM     13  C   UNL     1      -0.016  10.898  21.566  0.00  0.00    +0.000 A 
ATOM     14  C   UNL     1      -0.913  10.563  22.591  0.00  0.00    +0.000 A 
ATOM     15  C   UNL     1      -1.587  11.560  23.302  0.00  0.00    +0.000 A 
ATOM     16  C   UNL     1      -1.363  12.902  23.004  0.00  0.00    +0.000 A 
ATOM     17  C   UNL     1      -0.462  13.250  22.001  0.00  0.00    +0.000 A 
ATOM     18  C   UNL     1       0.208  12.254  21.287  0.00  0.00    +0.000 A 
ENDBRANCH  10  13
BRANCH   1  19
ATOM     19  S   UNL     1       3.742   2.806  18.471  0.00  0.00    +0.000 S 
ATOM     20  O   UNL     1       4.342   2.994  17.175  0.00  0.00    +0.000 OA
ATOM     21  O   UNL     1       2.748   1.783  18.732  0.00  0.00    +0.000 OA
BRANCH  19  22
ATOM     22  N   UNL     1       4.982   2.502  19.563  0.00  0.00    +0.000 NA
ATOM     23  H   UNL     1       4.736   2.912  20.465  0.00  0.00    +0.000 HD
ATOM     24  H   UNL     1       5.874   2.858  19.210  0.00  0.00    +0.000 HD
ENDBRANCH  19  22
ENDBRANCH   1  19
TORSDOF 3
ENDMDL
MODEL 4
REMARK VINA RESULT:      -7.4      2.306      3.323
REMARK  Name = 
REMARK  3 active torsions:
REMARK  status: ('A' for Active; 'I' for Inactive)
REMARK    1  A    between atoms: N_1  and  S_2
REMARK    2  A    between atoms: S_2  and  C_5
REMARK    3  A    between atoms: C_14  and  C_15
REMARK                            x       y       z     vdW  Elec       q    Type
REMARK                         _______ _______ _______ _____ _____    ______ ____
ROOT
ATOM      1  C   UNL     1       3.013   4.413  19.129  0.00  0.00    +0.000 A 
ATOM      2  C   UNL     1       2.426   4.482  20.415  0.00  0.00    +0.000 A 
ATOM      3  C   UNL     1       1.886   5.684  20.874  0.00  0.00    +0.000 A 
ATOM      4  C   UNL     1       1.953   6.771  20.019  0.00  0.00    +0.000 A 
ATOM      5  C   UNL     1       2.536   6.716  18.743  0.00  0.00    +0.000 A 
ATOM      6  C   UNL     1       3.080   5.531  18.285  0.00  0.00    +0.000 A 
ATOM      7  S   UNL     1       2.432   8.293  17.876  0.00  0.00    +0.000 S 
ATOM      8  C   UNL     1       1.608   8.950  19.253  0.00  0.00    +0.000 A 
ATOM      9  N   UNL     1       1.097  10.116  19.539  0.00  0.00    +0.000 NA
ATOM     10  C   UNL     1       0.587   9.943  20.828  0.00  0.00    +0.000 A 
ATOM     11  C   UNL     1       0.803   8.652  21.280  0.00  0.00    +0.000 A 
ATOM     12  N   UNL     1       1.452   8.044  20.255  0.00  0.00    +0.000 N 
ENDROOT
BRANCH  10  13
ATOM     13  C   UNL     1      -0.064  11.012  21.573  0.00  0.00    +0.000 A 
ATOM     14  C   UNL     1       0.285  12.347  21.323  0.00  0.00    +0.000 A 
ATOM     15  C   UNL     1      -0.300  13.385  22.055  0.00  0.00    +0.000 A 
ATOM     16  C   UNL     1      -1.247  13.100  23.036  0.00  0.00    +0.000 A 
ATOM     17  C   UNL     1      -1.615  11.780  23.283  0.00  0.00    +0.000 A 
ATOM     18  C   UNL     1      -1.028  10.742  22.555  0.00  0.00    +0.000 A 
ENDBRANCH  10  13
BRANCH   1  19
ATOM     19  S   UNL     1       3.621   2.852  18.570  0.00  0.00    +0.000 S 
ATOM     20  O   UNL     1       4.167   3.007  17.246  0.00  0.00    +0.000 OA
ATOM     21  O   UNL     1       2.644   1.832  18.898  0.00  0.00    +0.000 OA
BRANCH  19  22
ATOM     22  N   UNL     1       4.905   2.584  19.618  0.00  0.00    +0.000 NA
ATOM     23  H   UNL     1       5.589   1.982  19.156  0.00  0.00    +0.000 HD
ATOM     24  H   UNL     1       4.578   2.185  20.502  0.00  0.00    +0.000 HD
ENDBRANCH  19  22
ENDBRANCH   1  19
TORSDOF 3
ENDMDL
MODEL 5
REMARK VINA RESULT:      -7.3      2.570      3.556
REMARK  Name = 
REMARK  3 active torsions:
REMARK  status: ('A' for Active; 'I' for Inactive)
REMARK    1  A    between atoms: N_1  and  S_2
REMARK    2  A    between atoms: S_2  and  C_5
REMARK    3  A    between atoms: C_14  and  C_15
REMARK                            x       y       z     vdW  Elec       q    Type
REMARK                         _______ _______ _______ _____ _____    ______ ____
ROOT
ATOM      1  C   UNL     1       3.050   4.087  19.222  0.00  0.00    +0.000 A 
ATOM      2  C   UNL     1       2.413   4.177  20.481  0.00  0.00    +0.000 A 
ATOM      3  C   UNL     1       1.890   5.397  20.915  0.00  0.00    +0.000 A 
ATOM      4  C   UNL     1       2.026   6.478  20.061  0.00  0.00    +0.000 A 
ATOM      5  C   UNL     1       2.660   6.401  18.812  0.00  0.00    +0.000 A 
ATOM      6  C   UNL     1       3.186   5.199  18.379  0.00  0.00    +0.000 A 
ATOM      7  S   UNL     1       2.640   7.978  17.938  0.00  0.00    +0.000 S 
ATOM      8  C   UNL     1       1.780   8.664  19.277  0.00  0.00    +0.000 A 
ATOM      9  N   UNL     1       1.293   9.846  19.540  0.00  0.00    +0.000 NA
ATOM     10  C   UNL     1       0.724   9.693  20.807  0.00  0.00    +0.000 A 
ATOM     11  C   UNL     1       0.882   8.397  21.270  0.00  0.00    +0.000 A 
ATOM     12  N   UNL     1       1.555   7.767  20.274  0.00  0.00    +0.000 N 
ENDROOT
BRANCH  10  13
ATOM     13  C   UNL     1       0.076  10.783  21.521  0.00  0.00    +0.000 A 
ATOM     14  C   UNL     1      -0.824  10.499  22.558  0.00  0.00    +0.000 A 
ATOM     15  C   UNL     1      -1.487  11.530  23.229  0.00  0.00    +0.000 A 
ATOM     16  C   UNL     1      -1.250  12.857  22.879  0.00  0.00    +0.000 A 
ATOM     17  C   UNL     1      -0.346  13.155  21.862  0.00  0.00    +0.000 A 
ATOM     18  C   UNL     1       0.314  12.125  21.188  0.00  0.00    +0.000 A 
ENDBRANCH  10  13
BRANCH   1  19
ATOM     19  S   UNL     1       3.633   2.506  18.691  0.00  0.00    +0.000 S 
ATOM     20  O   UNL     1       4.423   1.919  19.742  0.00  0.00    +0.000 OA
ATOM     21  O   UNL     1       4.109   2.624  17.327  0.00  0.00    +0.000 OA
BRANCH  19  22
ATOM     22  N   UNL     1       2.204   1.628  18.583  0.00  0.00    +0.000 NA
ATOM     23  H   UNL     1       1.439   2.268  18.361  0.00  0.00    +0.000 HD
ATOM     24  H   UNL     1       2.030   1.106  19.445  0.00  0.00    +0.000 HD
ENDBRANCH  19  22
ENDBRANCH   1  19
TORSDOF 3
ENDMDL
MODEL 6
REMARK VINA RESULT:      -7.2      2.524      3.445
REMARK  Name = 
REMARK  3 active torsions:
REMARK  status: ('A' for Active; 'I' for Inactive)
REMARK    1  A    between atoms: N_1  and  S_2
REMARK    2  A    between atoms: S_2  and  C_5
REMARK    3  A    between atoms: C_14  and  C_15
REMARK                            x       y       z     vdW  Elec       q    Type
REMARK                         _______ _______ _______ _____ _____    ______ ____
ROOT
ATOM      1  C   UNL     1       3.041   4.221  19.188  0.00  0.00    +0.000 A 
ATOM      2  C   UNL     1       2.414   4.304  20.453  0.00  0.00    +0.000 A 
ATOM      3  C   UNL     1       1.879   5.518  20.890  0.00  0.00    +0.000 A 
ATOM      4  C   UNL     1       1.993   6.600  20.034  0.00  0.00    +0.000 A 
ATOM      5  C   UNL     1       2.616   6.530  18.779  0.00  0.00    +0.000 A 
ATOM      6  C   UNL     1       3.155   5.334  18.343  0.00  0.00    +0.000 A 
ATOM      7  S   UNL     1       2.567   8.105  17.904  0.00  0.00    +0.000 S 
ATOM      8  C   UNL     1       1.710   8.781  19.250  0.00  0.00    +0.000 A 
ATOM      9  N   UNL     1       1.210   9.957  19.515  0.00  0.00    +0.000 NA
ATOM     10  C   UNL     1       0.655   9.797  20.788  0.00  0.00    +0.000 A 
ATOM     11  C   UNL     1       0.834   8.504  21.250  0.00  0.00    +0.000 A 
ATOM     12  N   UNL     1       1.506   7.882  20.249  0.00  0.00    +0.000 N 
ENDROOT
BRANCH  10  13
ATOM     13  C   UNL     1      -0.002  10.880  21.506  0.00  0.00    +0.000 A 
ATOM     14  C   UNL     1       0.292  12.212  21.182  0.00  0.00    +0.000 A 
ATOM     15  C   UNL     1      -0.298  13.264  21.886  0.00  0.00    +0.000 A 
ATOM     16  C   UNL     1      -1.197  12.998  22.916  0.00  0.00    +0.000 A 
ATOM     17  C   UNL     1      -1.513  11.680  23.238  0.00  0.00    +0.000 A 
ATOM     18  C   UNL     1      -0.920  10.627  22.537  0.00  0.00    +0.000 A 
ENDBRANCH  10  13
BRANCH   1  19
ATOM     19  S   UNL     1       3.641   2.648  18.654  0.00  0.00    +0.000 S 
ATOM     20  O   UNL     1       4.368   2.031  19.733  0.00  0.00    +0.000 OA
ATOM     21  O   UNL     1       4.192   2.792  17.321  0.00  0.00    +0.000 OA
BRANCH  19  22
ATOM     22  N   UNL     1       2.214   1.785  18.448  0.00  0.00    +0.000 NA
ATOM     23  H   UNL     1       1.554   2.058  19.178  0.00  0.00    +0.000 HD
ATOM     24  H   UNL     1       2.393   0.777  18.451  0.00  0.00    +0.000 HD
ENDBRANCH  19  22
ENDBRANCH   1  19
TORSDOF 3
ENDMDL
MODEL 7
REMARK VINA RESULT:      -7.2      3.084      4.217
REMARK  Name = 
REMARK  3 active torsions:
REMARK  status: ('A' for Active; 'I' for Inactive)
REMARK    1  A    between atoms: N_1  and  S_2
REMARK    2  A    between atoms: S_2  and  C_5
REMARK    3  A    between atoms: C_14  and  C_15
REMARK                            x       y       z     vdW  Elec       q    Type
REMARK                         _______ _______ _______ _____ _____    ______ ____
ROOT
ATOM      1  C   UNL     1       3.038   4.216  19.920  0.00  0.00    +0.000 A 
ATOM      2  C   UNL     1       2.146   4.824  20.833  0.00  0.00    +0.000 A 
ATOM      3  C   UNL     1       1.751   6.150  20.647  0.00  0.00    +0.000 A 
ATOM      4  C   UNL     1       2.267   6.812  19.546  0.00  0.00    +0.000 A 
ATOM      5  C   UNL     1       3.157   6.219  18.636  0.00  0.00    +0.000 A 
ATOM      6  C   UNL     1       3.558   4.910  18.817  0.00  0.00    +0.000 A 
ATOM      7  S   UNL     1       3.614   7.340  17.300  0.00  0.00    +0.000 S 
ATOM      8  C   UNL     1       2.591   8.544  18.013  0.00  0.00    +0.000 A 
ATOM      9  N   UNL     1       2.264   9.767  17.697  0.00  0.00    +0.000 NA
ATOM     10  C   UNL     1       1.394  10.149  18.722  0.00  0.00    +0.000 A 
ATOM     11  C   UNL     1       1.214   9.121  19.632  0.00  0.00    +0.000 A 
ATOM     12  N   UNL     1       1.986   8.113  19.153  0.00  0.00    +0.000 N 
ENDROOT
BRANCH  10  13
ATOM     13  C   UNL     1       0.790  11.472  18.796  0.00  0.00    +0.000 A 
ATOM     14  C   UNL     1      -0.589  11.597  19.017  0.00  0.00    +0.000 A 
ATOM     15  C   UNL     1      -1.194  12.856  19.052  0.00  0.00    +0.000 A 
ATOM     16  C   UNL     1      -0.427  14.005  18.877  0.00  0.00    +0.000 A 
ATOM     17  C   UNL     1       0.947  13.897  18.672  0.00  0.00    +0.000 A 
ATOM     18  C   UNL     1       1.552  12.639  18.634  0.00  0.00    +0.000 A 
ENDBRANCH  10  13
BRANCH   1  19
ATOM     19  S   UNL     1       3.452   2.516  20.162  0.00  0.00    +0.000 S 
ATOM     20  O   UNL     1       2.763   1.719  19.181  0.00  0.00    +0.000 OA
ATOM     21  O   UNL     1       3.400   2.226  21.582  0.00  0.00    +0.000 OA
BRANCH  19  22
ATOM     22  N   UNL     1       5.086   2.498  19.770  0.00  0.00    +0.000 NA
ATOM     23  H   UNL     1       5.405   1.528  19.726  0.00  0.00    +0.000 HD
ATOM     24  H   UNL     1       5.628   3.050  20.440  0.00  0.00    +0.000 HD
ENDBRANCH  19  22
ENDBRANCH   1  19
TORSDOF 3
ENDMDL
MODEL 8
REMARK VINA RESULT:      -7.2      1.115      1.403
REMARK  Name = 
REMARK  3 active torsions:
REMARK  status: ('A' for Active; 'I' for Inactive)
REMARK    1  A    between atoms: N_1  and  S_2
REMARK    2  A    between atoms: S_2  and  C_5
REMARK    3  A    between atoms: C_14  and  C_15
REMARK                            x       y       z     vdW  Elec       q    Type
REMARK                         _______ _______ _______ _____ _____    ______ ____
ROOT
ATOM      1  C   UNL     1       5.680   5.487  16.679  0.00  0.00    +0.000 A 
ATOM      2  C   UNL     1       5.273   6.681  16.039  0.00  0.00    +0.000 A 
ATOM      3  C   UNL     1       4.267   7.468  16.601  0.00  0.00    +0.000 A 
ATOM      4  C   UNL     1       3.711   7.024  17.788  0.00  0.00    +0.000 A 
ATOM      5  C   UNL     1       4.103   5.839  18.430  0.00  0.00    +0.000 A 
ATOM      6  C   UNL     1       5.093   5.051  17.876  0.00  0.00    +0.000 A 
ATOM      7  S   UNL     1       3.205   5.567  19.969  0.00  0.00    +0.000 S 
ATOM      8  C   UNL     1       2.355   7.050  19.689  0.00  0.00    +0.000 A 
ATOM      9  N   UNL     1       1.442   7.716  20.343  0.00  0.00    +0.000 NA
ATOM     10  C   UNL     1       1.208   8.832  19.535  0.00  0.00    +0.000 A 
ATOM     11  C   UNL     1       2.008   8.805  18.405  0.00  0.00    +0.000 A 
ATOM     12  N   UNL     1       2.728   7.661  18.533  0.00  0.00    +0.000 N 
ENDROOT
BRANCH  10  13
ATOM     13  C   UNL     1       0.227   9.857  19.864  0.00  0.00    +0.000 A 
ATOM     14  C   UNL     1      -0.587  10.392  18.856  0.00  0.00    +0.000 A 
ATOM     15  C   UNL     1      -1.506  11.404  19.145  0.00  0.00    +0.000 A 
ATOM     16  C   UNL     1      -1.629  11.886  20.446  0.00  0.00    +0.000 A 
ATOM     17  C   UNL     1      -0.838  11.352  21.461  0.00  0.00    +0.000 A 
ATOM     18  C   UNL     1       0.084  10.343  21.172  0.00  0.00    +0.000 A 
ENDBRANCH  10  13
BRANCH   1  19
ATOM     19  S   UNL     1       7.004   4.563  15.962  0.00  0.00    +0.000 S 
ATOM     20  O   UNL     1       7.933   4.193  16.998  0.00  0.00    +0.000 OA
ATOM     21  O   UNL     1       7.418   5.222  14.739  0.00  0.00    +0.000 OA
BRANCH  19  22
ATOM     22  N   UNL     1       6.220   3.164  15.463  0.00  0.00    +0.000 NA
ATOM     23  H   UNL     1       5.760   3.344  14.569  0.00  0.00    +0.000 HD
ATOM     24  H   UNL     1       5.561   2.840  16.176  0.00  0.00    +0.000 HD
ENDBRANCH  19  22
ENDBRANCH   1  19
TORSDOF 3
ENDMDL
MODEL 9
REMARK VINA RESULT:      -7.2      3.077      4.187
REMARK  Name = 
REMARK  3 active torsions:
REMARK  status: ('A' for Active; 'I' for Inactive)
REMARK    1  A    between atoms: N_1  and  S_2
REMARK    2  A    between atoms: S_2  and  C_5
REMARK    3  A    between atoms: C_14  and  C_15
REMARK                            x       y       z     vdW  Elec       q    Type
REMARK                         _______ _______ _______ _____ _____    ______ ____
ROOT
ATOM      1  C   UNL     1       2.997   4.293  19.927  0.00  0.00    +0.000 A 
ATOM      2  C   UNL     1       2.083   4.887  20.828  0.00  0.00    +0.000 A 
ATOM      3  C   UNL     1       1.682   6.211  20.647  0.00  0.00    +0.000 A 
ATOM      4  C   UNL     1       2.214   6.887  19.562  0.00  0.00    +0.000 A 
ATOM      5  C   UNL     1       3.125   6.309  18.664  0.00  0.00    +0.000 A 
ATOM      6  C   UNL     1       3.533   5.001  18.841  0.00  0.00    +0.000 A 
ATOM      7  S   UNL     1       3.598   7.446  17.347  0.00  0.00    +0.000 S 
ATOM      8  C   UNL     1       2.552   8.635  18.051  0.00  0.00    +0.000 A 
ATOM      9  N   UNL     1       2.222   9.859  17.740  0.00  0.00    +0.000 NA
ATOM     10  C   UNL     1       1.329  10.225  18.751  0.00  0.00    +0.000 A 
ATOM     11  C   UNL     1       1.140   9.187  19.648  0.00  0.00    +0.000 A 
ATOM     12  N   UNL     1       1.929   8.189  19.175  0.00  0.00    +0.000 N 
ENDROOT
BRANCH  10  13
ATOM     13  C   UNL     1       0.713  11.542  18.825  0.00  0.00    +0.000 A 
ATOM     14  C   UNL     1       1.488  12.687  18.591  0.00  0.00    +0.000 A 
ATOM     15  C   UNL     1       0.924  13.962  18.696  0.00  0.00    +0.000 A 
ATOM     16  C   UNL     1      -0.421  14.106  19.026  0.00  0.00    +0.000 A 
ATOM     17  C   UNL     1      -1.207  12.976  19.245  0.00  0.00    +0.000 A 
ATOM     18  C   UNL     1      -0.643  11.702  19.144  0.00  0.00    +0.000 A 
ENDBRANCH  10  13
BRANCH   1  19
ATOM     19  S   UNL     1       3.420   2.594  20.162  0.00  0.00    +0.000 S 
ATOM     20  O   UNL     1       2.719   1.796  19.191  0.00  0.00    +0.000 OA
ATOM     21  O   UNL     1       3.391   2.304  21.583  0.00  0.00    +0.000 OA
BRANCH  19  22
ATOM     22  N   UNL     1       5.048   2.582  19.746  0.00  0.00    +0.000 NA
ATOM     23  H   UNL     1       5.412   1.635  19.864  0.00  0.00    +0.000 HD
ATOM     24  H   UNL     1       5.572   3.266  20.299  0.00  0.00    +0.000 HD
ENDBRANCH  19  22
ENDBRANCH   1  19
TORSDOF 3
ENDMDL
