MODEL 1
REMARK VINA RESULT:      -9.4      0.000      0.000
REMARK  Name = 
REMARK  8 active torsions:
REMARK  status: ('A' for Active; 'I' for Inactive)
REMARK    1  A    between atoms: C_1  and  C_2
REMARK    2  A    between atoms: C_2  and  C_3
REMARK    3  A    between atoms: C_2  and  N_4
REMARK    4  A    between atoms: C_6  and  C_7
REMARK    5  A    between atoms: C_7  and  C_9
REMARK    6  A    between atoms: C_13  and  N_14
REMARK    7  A    between atoms: C_15  and  C_17
REMARK    8  A    between atoms: C_17  and  C_18
REMARK                            x       y       z     vdW  Elec       q    Type
REMARK                         _______ _______ _______ _____ _____    ______ ____
ROOT
ATOM      1  C   UNL     1       2.520   4.552  18.827  0.00  0.00    +0.000 A 
ATOM      2  C   UNL     1       2.445   3.825  20.004  0.00  0.00    +0.000 A 
ATOM      3  N   UNL     1       2.139   4.370  21.201  0.00  0.00    +0.000 NA
ATOM      4  C   UNL     1       1.922   5.710  21.226  0.00  0.00    +0.000 A 
ATOM      5  C   UNL     1       1.997   6.547  20.111  0.00  0.00    +0.000 A 
ATOM      6  C   UNL     1       2.316   5.941  18.891  0.00  0.00    +0.000 A 
ENDROOT
BRANCH   5   7
ATOM      7  N   UNL     1       1.789   7.949  20.154  0.00  0.00    +0.000 N 
ATOM      8  C   UNL     1       0.763   8.592  20.836  0.00  0.00    +0.000 C 
ATOM      9  O   UNL     1      -0.148   8.032  21.441  0.00  0.00    +0.000 OA
ATOM     10  H   UNL     1       2.397   8.520  19.579  0.00  0.00    +0.000 HD
BRANCH   8  11
ATOM     11  C   UNL     1       0.798  10.115  20.741  0.00  0.00    +0.000 C 
BRANCH  11  12
ATOM     12  C   UNL     1      -0.326  10.647  19.886  0.00  0.00    +0.000 A 
ATOM     13  C   UNL     1      -1.170  11.649  20.371  0.00  0.00    +0.000 A 
ATOM     14  C   UNL     1      -2.306  12.018  19.650  0.00  0.00    +0.000 A 
ATOM     15  C   UNL     1      -2.620  11.408  18.446  0.00  0.00    +0.000 A 
ATOM     16  N   UNL     1      -3.786  11.702  17.839  0.00  0.00    +0.000 NA
ATOM     17  C   UNL     1      -4.041  11.051  16.686  0.00  0.00    +0.000 A 
ATOM     18  C   UNL     1      -3.141  10.169  16.124  0.00  0.00    +0.000 A 
ATOM     19  N   UNL     1      -1.965   9.861  16.716  0.00  0.00    +0.000 NA
ATOM     20  C   UNL     1      -1.718  10.463  17.896  0.00  0.00    +0.000 A 
ATOM     21  C   UNL     1      -0.584  10.110  18.619  0.00  0.00    +0.000 A 
ENDBRANCH  11  12
ENDBRANCH   8  11
ENDBRANCH   5   7
BRANCH   1  22
ATOM     22  C   UNL     1       2.885   3.895  17.550  0.00  0.00    +0.000 C 
ATOM     23  O   UNL     1       2.018   3.268  16.953  0.00  0.00    +0.000 OA
BRANCH  22  26
ATOM     24  N   UNL     1       6.015   4.073  15.630  0.00  0.00    +0.000 N 
ATOM     25  C   UNL     1       4.667   3.796  15.722  0.00  0.00    +0.000 A 
ATOM     26  C   UNL     1       4.248   4.015  17.028  0.00  0.00    +0.000 A 
ATOM     27  C   UNL     1       5.411   4.427  17.750  0.00  0.00    +0.000 A 
ATOM     28  C   UNL     1       5.692   4.800  19.068  0.00  0.00    +0.000 A 
ATOM     29  N   UNL     1       6.957   5.127  19.417  0.00  0.00    +0.000 NA
ATOM     30  C   UNL     1       7.904   5.086  18.460  0.00  0.00    +0.000 A 
ATOM     31  N   UNL     1       7.758   4.751  17.167  0.00  0.00    +0.000 NA
ATOM     32  C   UNL     1       6.488   4.431  16.871  0.00  0.00    +0.000 A 
BRANCH  24  34
ATOM     33  C   UNL     1       5.921   3.563  13.204  0.00  0.00    +0.000 C 
ATOM     34  C   UNL     1       6.764   4.067  14.375  0.00  0.00    +0.000 C 
ATOM     35  C   UNL     1       7.429   5.407  14.061  0.00  0.00    +0.000 C 
ENDBRANCH  24  34
ENDBRANCH  22  26
ENDBRANCH   1  22
TORSDOF 6
ENDMDL
MODEL 2
REMARK VINA RESULT:      -9.3      3.174      4.755
REMARK  Name = 
REMARK  8 active torsions:
REMARK  status: ('A' for Active; 'I' for Inactive)
REMARK    1  A    between atoms: C_1  and  C_2
REMARK    2  A    between atoms: C_2  and  C_3
REMARK    3  A    between atoms: C_2  and  N_4
REMARK    4  A    between atoms: C_6  and  C_7
REMARK    5  A    between atoms: C_7  and  C_9
REMARK    6  A    between atoms: C_13  and  N_14
REMARK    7  A    between atoms: C_15  and  C_17
REMARK    8  A    between atoms: C_17  and  C_18
REMARK                            x       y       z     vdW  Elec       q    Type
REMARK                         _______ _______ _______ _____ _____    ______ ____
ROOT
ATOM      1  C   UNL     1       1.801   8.316  19.141  0.00  0.00    +0.000 A 
ATOM      2  C   UNL     1       1.900   7.573  20.307  0.00  0.00    +0.000 A 
ATOM      3  N   UNL     1       1.217   7.860  21.436  0.00  0.00    +0.000 NA
ATOM      4  C   UNL     1       0.417   8.956  21.406  0.00  0.00    +0.000 A 
ATOM      5  C   UNL     1       0.260   9.794  20.301  0.00  0.00    +0.000 A 
ATOM      6  C   UNL     1       0.985   9.460  19.152  0.00  0.00    +0.000 A 
ENDROOT
BRANCH   5   7
ATOM      7  N   UNL     1      -0.562  10.949  20.289  0.00  0.00    +0.000 N 
ATOM      8  C   UNL     1      -0.240  12.175  20.860  0.00  0.00    +0.000 C 
ATOM      9  O   UNL     1       0.774  12.408  21.515  0.00  0.00    +0.000 OA
ATOM     10  H   UNL     1      -1.490  10.848  19.896  0.00  0.00    +0.000 HD
BRANCH   8  11
ATOM     11  C   UNL     1      -1.296  13.260  20.668  0.00  0.00    +0.000 C 
BRANCH  11  12
ATOM     12  C   UNL     1      -2.396  13.155  21.696  0.00  0.00    +0.000 A 
ATOM     13  C   UNL     1      -2.132  12.629  22.963  0.00  0.00    +0.000 A 
ATOM     14  C   UNL     1      -3.179  12.377  23.849  0.00  0.00    +0.000 A 
ATOM     15  C   UNL     1      -4.494  12.644  23.500  0.00  0.00    +0.000 A 
ATOM     16  N   UNL     1      -5.488  12.275  24.330  0.00  0.00    +0.000 NA
ATOM     17  C   UNL     1      -6.744  12.539  23.915  0.00  0.00    +0.000 A 
ATOM     18  C   UNL     1      -7.004  13.196  22.730  0.00  0.00    +0.000 A 
ATOM     19  N   UNL     1      -6.021  13.575  21.883  0.00  0.00    +0.000 NA
ATOM     20  C   UNL     1      -4.763  13.272  22.257  0.00  0.00    +0.000 A 
ATOM     21  C   UNL     1      -3.710  13.526  21.386  0.00  0.00    +0.000 A 
ENDBRANCH  11  12
ENDBRANCH   8  11
ENDBRANCH   5   7
BRANCH   1  22
ATOM     22  C   UNL     1       2.598   7.961  17.943  0.00  0.00    +0.000 C 
ATOM     23  O   UNL     1       2.581   8.728  16.989  0.00  0.00    +0.000 OA
BRANCH  22  26
ATOM     24  N   UNL     1       5.108   5.276  18.022  0.00  0.00    +0.000 N 
ATOM     25  C   UNL     1       4.767   6.612  18.010  0.00  0.00    +0.000 A 
ATOM     26  C   UNL     1       3.385   6.725  17.928  0.00  0.00    +0.000 A 
ATOM     27  C   UNL     1       2.883   5.388  17.872  0.00  0.00    +0.000 A 
ATOM     28  C   UNL     1       1.620   4.794  17.789  0.00  0.00    +0.000 A 
ATOM     29  N   UNL     1       1.515   3.447  17.739  0.00  0.00    +0.000 NA
ATOM     30  C   UNL     1       2.651   2.725  17.782  0.00  0.00    +0.000 A 
ATOM     31  N   UNL     1       3.914   3.176  17.866  0.00  0.00    +0.000 NA
ATOM     32  C   UNL     1       3.967   4.517  17.908  0.00  0.00    +0.000 A 
BRANCH  24  34
ATOM     33  C   UNL     1       7.195   4.545  16.899  0.00  0.00    +0.000 C 
ATOM     34  C   UNL     1       6.470   4.785  18.223  0.00  0.00    +0.000 C 
ATOM     35  C   UNL     1       7.293   5.654  19.173  0.00  0.00    +0.000 C 
ENDBRANCH  24  34
ENDBRANCH  22  26
ENDBRANCH   1  22
TORSDOF 6
ENDMDL
MODEL 3
REMARK VINA RESULT:      -9.3      2.103      3.633
REMARK  Name = 
REMARK  8 active torsions:
REMARK  status: ('A' for Active; 'I' for Inactive)
REMARK    1  A    between atoms: C_1  and  C_2
REMARK    2  A    between atoms: C_2  and  C_3
REMARK    3  A    between atoms: C_2  and  N_4
REMARK    4  A    between atoms: C_6  and  C_7
REMARK    5  A    between atoms: C_7  and  C_9
REMARK    6  A    between atoms: C_13  and  N_14
REMARK    7  A    between atoms: C_15  and  C_17
REMARK    8  A    between atoms: C_17  and  C_18
REMARK                            x       y       z     vdW  Elec       q    Type
REMARK                         _______ _______ _______ _____ _____    ______ ____
ROOT
ATOM      1  C   UNL     1       2.921   3.951  18.763  0.00  0.00    +0.000 A 
ATOM      2  C   UNL     1       3.218   2.903  19.621  0.00  0.00    +0.000 A 
ATOM      3  N   UNL     1       2.825   2.860  20.912  0.00  0.00    +0.000 NA
ATOM      4  C   UNL     1       2.122   3.927  21.374  0.00  0.00    +0.000 A 
ATOM      5  C   UNL     1       1.788   5.047  20.611  0.00  0.00    +0.000 A 
ATOM      6  C   UNL     1       2.215   5.051  19.279  0.00  0.00    +0.000 A 
ENDROOT
BRANCH   5   7
ATOM      7  N   UNL     1       1.072   6.165  21.111  0.00  0.00    +0.000 N 
ATOM      8  C   UNL     1       1.271   7.486  20.730  0.00  0.00    +0.000 C 
ATOM      9  O   UNL     1       2.143   7.879  19.958  0.00  0.00    +0.000 OA
ATOM     10  H   UNL     1       0.414   5.989  21.860  0.00  0.00    +0.000 HD
BRANCH   8  11
ATOM     11  C   UNL     1       0.335   8.487  21.403  0.00  0.00    +0.000 C 
BRANCH  11  12
ATOM     12  C   UNL     1       0.335   9.816  20.689  0.00  0.00    +0.000 A 
ATOM     13  C   UNL     1      -0.277   9.948  19.440  0.00  0.00    +0.000 A 
ATOM     14  C   UNL     1      -0.130  11.127  18.709  0.00  0.00    +0.000 A 
ATOM     15  C   UNL     1       0.614  12.188  19.201  0.00  0.00    +0.000 A 
ATOM     16  N   UNL     1       0.835  13.261  18.418  0.00  0.00    +0.000 NA
ATOM     17  C   UNL     1       1.592  14.243  18.949  0.00  0.00    +0.000 A 
ATOM     18  C   UNL     1       2.075  14.184  20.240  0.00  0.00    +0.000 A 
ATOM     19  N   UNL     1       1.863  13.117  21.042  0.00  0.00    +0.000 NA
ATOM     20  C   UNL     1       1.153  12.103  20.509  0.00  0.00    +0.000 A 
ATOM     21  C   UNL     1       0.993  10.926  21.232  0.00  0.00    +0.000 A 
ENDBRANCH  11  12
ENDBRANCH   8  11
ENDBRANCH   5   7
BRANCH   1  22
ATOM     22  C   UNL     1       3.405   3.946  17.362  0.00  0.00    +0.000 C 
ATOM     23  O   UNL     1       2.708   3.408  16.511  0.00  0.00    +0.000 OA
BRANCH  22  26
ATOM     24  N   UNL     1       6.611   5.734  17.179  0.00  0.00    +0.000 N 
ATOM     25  C   UNL     1       5.462   5.379  17.853  0.00  0.00    +0.000 A 
ATOM     26  C   UNL     1       4.680   4.584  17.026  0.00  0.00    +0.000 A 
ATOM     27  C   UNL     1       5.395   4.476  15.793  0.00  0.00    +0.000 A 
ATOM     28  C   UNL     1       5.188   3.837  14.566  0.00  0.00    +0.000 A 
ATOM     29  N   UNL     1       6.102   3.968  13.579  0.00  0.00    +0.000 NA
ATOM     30  C   UNL     1       7.195   4.715  13.829  0.00  0.00    +0.000 A 
ATOM     31  N   UNL     1       7.508   5.369  14.960  0.00  0.00    +0.000 NA
ATOM     32  C   UNL     1       6.569   5.213  15.908  0.00  0.00    +0.000 A 
BRANCH  24  34
ATOM     33  C   UNL     1       7.585   7.978  17.592  0.00  0.00    +0.000 C 
ATOM     34  C   UNL     1       7.720   6.468  17.788  0.00  0.00    +0.000 C 
ATOM     35  C   UNL     1       7.954   6.104  19.254  0.00  0.00    +0.000 C 
ENDBRANCH  24  34
ENDBRANCH  22  26
ENDBRANCH   1  22
TORSDOF 6
ENDMDL
MODEL 4
REMARK VINA RESULT:      -9.3      3.106      4.718
REMARK  Name = 
REMARK  8 active torsions:
REMARK  status: ('A' for Active; 'I' for Inactive)
REMARK    1  A    between atoms: C_1  and  C_2
REMARK    2  A    between atoms: C_2  and  C_3
REMARK    3  A    between atoms: C_2  and  N_4
REMARK    4  A    between atoms: C_6  and  C_7
REMARK    5  A    between atoms: C_7  and  C_9
REMARK    6  A    between atoms: C_13  and  N_14
REMARK    7  A    between atoms: C_15  and  C_17
REMARK    8  A    between atoms: C_17  and  C_18
REMARK                            x       y       z     vdW  Elec       q    Type
REMARK                         _______ _______ _______ _____ _____    ______ ____
ROOT
ATOM      1  C   UNL     1       1.842   8.335  19.134  0.00  0.00    +0.000 A 
ATOM      2  C   UNL     1       1.901   7.557  20.280  0.00  0.00    +0.000 A 
ATOM      3  N   UNL     1       1.240   7.853  21.420  0.00  0.00    +0.000 NA
ATOM      4  C   UNL     1       0.506   8.996  21.422  0.00  0.00    +0.000 A 
ATOM      5  C   UNL     1       0.394   9.870  20.339  0.00  0.00    +0.000 A 
ATOM      6  C   UNL     1       1.095   9.524  19.178  0.00  0.00    +0.000 A 
ENDROOT
BRANCH   5   7
ATOM      7  N   UNL     1      -0.359  11.071  20.360  0.00  0.00    +0.000 N 
ATOM      8  C   UNL     1      -1.455  11.350  19.553  0.00  0.00    +0.000 C 
ATOM      9  O   UNL     1      -1.883  10.623  18.659  0.00  0.00    +0.000 OA
ATOM     10  H   UNL     1      -0.022  11.812  20.962  0.00  0.00    +0.000 HD
BRANCH   8  11
ATOM     11  C   UNL     1      -2.101  12.709  19.810  0.00  0.00    +0.000 C 
BRANCH  11  12
ATOM     12  C   UNL     1      -3.491  12.566  20.381  0.00  0.00    +0.000 A 
ATOM     13  C   UNL     1      -4.598  12.482  19.533  0.00  0.00    +0.000 A 
ATOM     14  C   UNL     1      -5.889  12.522  20.060  0.00  0.00    +0.000 A 
ATOM     15  C   UNL     1      -6.102  12.639  21.425  0.00  0.00    +0.000 A 
ATOM     16  N   UNL     1      -7.357  12.796  21.887  0.00  0.00    +0.000 NA
ATOM     17  C   UNL     1      -7.491  12.934  23.223  0.00  0.00    +0.000 A 
ATOM     18  C   UNL     1      -6.412  12.866  24.080  0.00  0.00    +0.000 A 
ATOM     19  N   UNL     1      -5.145  12.707  23.636  0.00  0.00    +0.000 NA
ATOM     20  C   UNL     1      -4.988  12.622  22.301  0.00  0.00    +0.000 A 
ATOM     21  C   UNL     1      -3.706  12.574  21.764  0.00  0.00    +0.000 A 
ENDBRANCH  11  12
ENDBRANCH   8  11
ENDBRANCH   5   7
BRANCH   1  22
ATOM     22  C   UNL     1       2.613   7.964  17.924  0.00  0.00    +0.000 C 
ATOM     23  O   UNL     1       2.576   8.720  16.961  0.00  0.00    +0.000 OA
BRANCH  22  26
ATOM     24  N   UNL     1       5.121   5.278  17.993  0.00  0.00    +0.000 N 
ATOM     25  C   UNL     1       4.781   6.614  17.981  0.00  0.00    +0.000 A 
ATOM     26  C   UNL     1       3.399   6.728  17.906  0.00  0.00    +0.000 A 
ATOM     27  C   UNL     1       2.896   5.391  17.856  0.00  0.00    +0.000 A 
ATOM     28  C   UNL     1       1.631   4.797  17.782  0.00  0.00    +0.000 A 
ATOM     29  N   UNL     1       1.525   3.451  17.735  0.00  0.00    +0.000 NA
ATOM     30  C   UNL     1       2.660   2.728  17.772  0.00  0.00    +0.000 A 
ATOM     31  N   UNL     1       3.924   3.178  17.849  0.00  0.00    +0.000 NA
ATOM     32  C   UNL     1       3.979   4.519  17.888  0.00  0.00    +0.000 A 
BRANCH  24  34
ATOM     33  C   UNL     1       7.201   4.542  16.859  0.00  0.00    +0.000 C 
ATOM     34  C   UNL     1       6.484   4.786  18.187  0.00  0.00    +0.000 C 
ATOM     35  C   UNL     1       7.314   5.656  19.130  0.00  0.00    +0.000 C 
ENDBRANCH  24  34
ENDBRANCH  22  26
ENDBRANCH   1  22
TORSDOF 6
ENDMDL
MODEL 5
REMARK VINA RESULT:      -9.2      1.328      2.617
REMARK  Name = 
REMARK  8 active torsions:
REMARK  status: ('A' for Active; 'I' for Inactive)
REMARK    1  A    between atoms: C_1  and  C_2
REMARK    2  A    between atoms: C_2  and  C_3
REMARK    3  A    between atoms: C_2  and  N_4
REMARK    4  A    between atoms: C_6  and  C_7
REMARK    5  A    between atoms: C_7  and  C_9
REMARK    6  A    between atoms: C_13  and  N_14
REMARK    7  A    between atoms: C_15  and  C_17
REMARK    8  A    between atoms: C_17  and  C_18
REMARK                            x       y       z     vdW  Elec       q    Type
REMARK                         _______ _______ _______ _____ _____    ______ ____
ROOT
ATOM      1  C   UNL     1       2.738   3.966  18.685  0.00  0.00    +0.000 A 
ATOM      2  C   UNL     1       2.586   2.821  19.452  0.00  0.00    +0.000 A 
ATOM      3  N   UNL     1       2.099   2.823  20.711  0.00  0.00    +0.000 NA
ATOM      4  C   UNL     1       1.771   4.031  21.238  0.00  0.00    +0.000 A 
ATOM      5  C   UNL     1       1.906   5.251  20.572  0.00  0.00    +0.000 A 
ATOM      6  C   UNL     1       2.415   5.202  19.270  0.00  0.00    +0.000 A 
ENDROOT
BRANCH   5   7
ATOM      7  N   UNL     1       1.581   6.508  21.142  0.00  0.00    +0.000 N 
ATOM      8  C   UNL     1       1.735   7.740  20.517  0.00  0.00    +0.000 C 
ATOM      9  O   UNL     1       2.239   7.918  19.410  0.00  0.00    +0.000 OA
ATOM     10  H   UNL     1       1.281   6.509  22.109  0.00  0.00    +0.000 HD
BRANCH   8  11
ATOM     11  C   UNL     1       1.271   8.933  21.348  0.00  0.00    +0.000 C 
BRANCH  11  12
ATOM     12  C   UNL     1       0.326   9.818  20.574  0.00  0.00    +0.000 A 
ATOM     13  C   UNL     1      -0.261  10.930  21.183  0.00  0.00    +0.000 A 
ATOM     14  C   UNL     1      -1.260  11.645  20.522  0.00  0.00    +0.000 A 
ATOM     15  C   UNL     1      -1.686  11.278  19.255  0.00  0.00    +0.000 A 
ATOM     16  N   UNL     1      -2.734  11.915  18.698  0.00  0.00    +0.000 NA
ATOM     17  C   UNL     1      -3.114  11.487  17.477  0.00  0.00    +0.000 A 
ATOM     18  C   UNL     1      -2.441  10.488  16.805  0.00  0.00    +0.000 A 
ATOM     19  N   UNL     1      -1.387   9.837  17.345  0.00  0.00    +0.000 NA
ATOM     20  C   UNL     1      -1.027  10.215  18.587  0.00  0.00    +0.000 A 
ATOM     21  C   UNL     1      -0.027   9.515  19.253  0.00  0.00    +0.000 A 
ENDBRANCH  11  12
ENDBRANCH   8  11
ENDBRANCH   5   7
BRANCH   1  22
ATOM     22  C   UNL     1       3.303   3.895  17.317  0.00  0.00    +0.000 C 
ATOM     23  O   UNL     1       2.652   3.324  16.451  0.00  0.00    +0.000 OA
BRANCH  22  26
ATOM     24  N   UNL     1       6.567   5.585  17.263  0.00  0.00    +0.000 N 
ATOM     25  C   UNL     1       5.400   5.230  17.906  0.00  0.00    +0.000 A 
ATOM     26  C   UNL     1       4.601   4.509  17.028  0.00  0.00    +0.000 A 
ATOM     27  C   UNL     1       5.325   4.447  15.797  0.00  0.00    +0.000 A 
ATOM     28  C   UNL     1       5.110   3.885  14.535  0.00  0.00    +0.000 A 
ATOM     29  N   UNL     1       6.038   4.042  13.564  0.00  0.00    +0.000 NA
ATOM     30  C   UNL     1       7.152   4.737  13.865  0.00  0.00    +0.000 A 
ATOM     31  N   UNL     1       7.474   5.317  15.034  0.00  0.00    +0.000 NA
ATOM     32  C   UNL     1       6.521   5.138  15.963  0.00  0.00    +0.000 A 
BRANCH  24  34
ATOM     33  C   UNL     1       7.677   7.760  17.701  0.00  0.00    +0.000 C 
ATOM     34  C   UNL     1       7.692   6.247  17.921  0.00  0.00    +0.000 C 
ATOM     35  C   UNL     1       7.823   5.889  19.401  0.00  0.00    +0.000 C 
ENDBRANCH  24  34
ENDBRANCH  22  26
ENDBRANCH   1  22
TORSDOF 6
ENDMDL
MODEL 6
REMARK VINA RESULT:      -9.2      2.997      4.590
REMARK  Name = 
REMARK  8 active torsions:
REMARK  status: ('A' for Active; 'I' for Inactive)
REMARK    1  A    between atoms: C_1  and  C_2
REMARK    2  A    between atoms: C_2  and  C_3
REMARK    3  A    between atoms: C_2  and  N_4
REMARK    4  A    between atoms: C_6  and  C_7
REMARK    5  A    between atoms: C_7  and  C_9
REMARK    6  A    between atoms: C_13  and  N_14
REMARK    7  A    between atoms: C_15  and  C_17
REMARK    8  A    between atoms: C_17  and  C_18
REMARK                            x       y       z     vdW  Elec       q    Type
REMARK                         _______ _______ _______ _____ _____    ______ ____
ROOT
ATOM      1  C   UNL     1       1.845   8.286  19.245  0.00  0.00    +0.000 A 
ATOM      2  C   UNL     1       1.842   7.419  20.326  0.00  0.00    +0.000 A 
ATOM      3  N   UNL     1       1.215   7.682  21.493  0.00  0.00    +0.000 NA
ATOM      4  C   UNL     1       0.583   8.880  21.592  0.00  0.00    +0.000 A 
ATOM      5  C   UNL     1       0.542   9.841  20.581  0.00  0.00    +0.000 A 
ATOM      6  C   UNL     1       1.205   9.528  19.389  0.00  0.00    +0.000 A 
ENDROOT
BRANCH   5   7
ATOM      7  N   UNL     1      -0.103  11.098  20.705  0.00  0.00    +0.000 N 
ATOM      8  C   UNL     1       0.526  12.303  20.996  0.00  0.00    +0.000 C 
ATOM      9  O   UNL     1       1.720  12.436  21.255  0.00  0.00    +0.000 OA
ATOM     10  H   UNL     1      -1.114  11.101  20.648  0.00  0.00    +0.000 HD
BRANCH   8  11
ATOM     11  C   UNL     1      -0.407  13.510  21.034  0.00  0.00    +0.000 C 
BRANCH  11  12
ATOM     12  C   UNL     1      -1.824  13.110  21.361  0.00  0.00    +0.000 A 
ATOM     13  C   UNL     1      -2.805  13.107  20.366  0.00  0.00    +0.000 A 
ATOM     14  C   UNL     1      -4.144  12.902  20.703  0.00  0.00    +0.000 A 
ATOM     15  C   UNL     1      -4.528  12.695  22.018  0.00  0.00    +0.000 A 
ATOM     16  N   UNL     1      -5.838  12.623  22.321  0.00  0.00    +0.000 NA
ATOM     17  C   UNL     1      -6.143  12.449  23.624  0.00  0.00    +0.000 A 
ATOM     18  C   UNL     1      -5.172  12.300  24.593  0.00  0.00    +0.000 A 
ATOM     19  N   UNL     1      -3.852  12.368  24.309  0.00  0.00    +0.000 NA
ATOM     20  C   UNL     1      -3.531  12.595  23.020  0.00  0.00    +0.000 A 
ATOM     21  C   UNL     1      -2.199  12.792  22.672  0.00  0.00    +0.000 A 
ENDBRANCH  11  12
ENDBRANCH   8  11
ENDBRANCH   5   7
BRANCH   1  22
ATOM     22  C   UNL     1       2.574   7.946  18.001  0.00  0.00    +0.000 C 
ATOM     23  O   UNL     1       2.471   8.704  17.044  0.00  0.00    +0.000 OA
BRANCH  22  26
ATOM     24  N   UNL     1       5.168   5.341  17.973  0.00  0.00    +0.000 N 
ATOM     25  C   UNL     1       4.785   6.665  17.998  0.00  0.00    +0.000 A 
ATOM     26  C   UNL     1       3.399   6.736  17.942  0.00  0.00    +0.000 A 
ATOM     27  C   UNL     1       2.938   5.386  17.864  0.00  0.00    +0.000 A 
ATOM     28  C   UNL     1       1.693   4.754  17.790  0.00  0.00    +0.000 A 
ATOM     29  N   UNL     1       1.628   3.406  17.711  0.00  0.00    +0.000 NA
ATOM     30  C   UNL     1       2.787   2.719  17.716  0.00  0.00    +0.000 A 
ATOM     31  N   UNL     1       4.037   3.208  17.789  0.00  0.00    +0.000 NA
ATOM     32  C   UNL     1       4.049   4.549  17.861  0.00  0.00    +0.000 A 
BRANCH  24  34
ATOM     33  C   UNL     1       7.228   4.617  16.796  0.00  0.00    +0.000 C 
ATOM     34  C   UNL     1       6.548   4.888  18.138  0.00  0.00    +0.000 C 
ATOM     35  C   UNL     1       7.385   5.809  19.024  0.00  0.00    +0.000 C 
ENDBRANCH  24  34
ENDBRANCH  22  26
ENDBRANCH   1  22
TORSDOF 6
ENDMDL
MODEL 7
REMARK VINA RESULT:      -9.2      1.324      1.911
REMARK  Name = 
REMARK  8 active torsions:
REMARK  status: ('A' for Active; 'I' for Inactive)
REMARK    1  A    between atoms: C_1  and  C_2
REMARK    2  A    between atoms: C_2  and  C_3
REMARK    3  A    between atoms: C_2  and  N_4
REMARK    4  A    between atoms: C_6  and  C_7
REMARK    5  A    between atoms: C_7  and  C_9
REMARK    6  A    between atoms: C_13  and  N_14
REMARK    7  A    between atoms: C_15  and  C_17
REMARK    8  A    between atoms: C_17  and  C_18
REMARK                            x       y       z     vdW  Elec       q    Type
REMARK                         _______ _______ _______ _____ _____    ______ ____
ROOT
ATOM      1  C   UNL     1       2.503   4.720  18.689  0.00  0.00    +0.000 A 
ATOM      2  C   UNL     1       2.433   4.173  19.961  0.00  0.00    +0.000 A 
ATOM      3  N   UNL     1       2.096   4.879  21.061  0.00  0.00    +0.000 NA
ATOM      4  C   UNL     1       1.841   6.201  20.885  0.00  0.00    +0.000 A 
ATOM      5  C   UNL     1       1.907   6.866  19.660  0.00  0.00    +0.000 A 
ATOM      6  C   UNL     1       2.260   6.097  18.546  0.00  0.00    +0.000 A 
ENDROOT
BRANCH   5   7
ATOM      7  N   UNL     1       1.659   8.253  19.493  0.00  0.00    +0.000 N 
ATOM      8  C   UNL     1       1.883   8.977  18.328  0.00  0.00    +0.000 C 
ATOM      9  O   UNL     1       2.391   8.532  17.301  0.00  0.00    +0.000 OA
ATOM     10  H   UNL     1       1.366   8.768  20.313  0.00  0.00    +0.000 HD
BRANCH   8  11
ATOM     11  C   UNL     1       1.495  10.451  18.415  0.00  0.00    +0.000 C 
BRANCH  11  12
ATOM     12  C   UNL     1       0.003  10.627  18.551  0.00  0.00    +0.000 A 
ATOM     13  C   UNL     1      -0.868  10.000  17.657  0.00  0.00    +0.000 A 
ATOM     14  C   UNL     1      -2.231  10.299  17.680  0.00  0.00    +0.000 A 
ATOM     15  C   UNL     1      -2.749  11.212  18.584  0.00  0.00    +0.000 A 
ATOM     16  N   UNL     1      -4.046  11.566  18.498  0.00  0.00    +0.000 NA
ATOM     17  C   UNL     1      -4.477  12.481  19.391  0.00  0.00    +0.000 A 
ATOM     18  C   UNL     1      -3.656  12.993  20.374  0.00  0.00    +0.000 A 
ATOM     19  N   UNL     1      -2.353  12.649  20.479  0.00  0.00    +0.000 NA
ATOM     20  C   UNL     1      -1.892  11.776  19.562  0.00  0.00    +0.000 A 
ATOM     21  C   UNL     1      -0.537  11.465  19.535  0.00  0.00    +0.000 A 
ENDBRANCH  11  12
ENDBRANCH   8  11
ENDBRANCH   5   7
BRANCH   1  22
ATOM     22  C   UNL     1       2.904   3.893  17.527  0.00  0.00    +0.000 C 
ATOM     23  O   UNL     1       2.076   3.128  17.049  0.00  0.00    +0.000 OA
BRANCH  22  26
ATOM     24  N   UNL     1       5.989   4.075  15.536  0.00  0.00    +0.000 N 
ATOM     25  C   UNL     1       4.643   3.801  15.657  0.00  0.00    +0.000 A 
ATOM     26  C   UNL     1       4.255   4.013  16.974  0.00  0.00    +0.000 A 
ATOM     27  C   UNL     1       5.435   4.418  17.671  0.00  0.00    +0.000 A 
ATOM     28  C   UNL     1       5.749   4.784  18.984  0.00  0.00    +0.000 A 
ATOM     29  N   UNL     1       7.022   5.106  19.305  0.00  0.00    +0.000 NA
ATOM     30  C   UNL     1       7.946   5.068  18.326  0.00  0.00    +0.000 A 
ATOM     31  N   UNL     1       7.769   4.741  17.035  0.00  0.00    +0.000 NA
ATOM     32  C   UNL     1       6.492   4.425  16.766  0.00  0.00    +0.000 A 
BRANCH  24  34
ATOM     33  C   UNL     1       5.811   3.664  13.096  0.00  0.00    +0.000 C 
ATOM     34  C   UNL     1       6.708   4.075  14.263  0.00  0.00    +0.000 C 
ATOM     35  C   UNL     1       7.442   5.386  13.982  0.00  0.00    +0.000 C 
ENDBRANCH  24  34
ENDBRANCH  22  26
ENDBRANCH   1  22
TORSDOF 6
ENDMDL
MODEL 8
REMARK VINA RESULT:      -9.1      1.954      3.460
REMARK  Name = 
REMARK  8 active torsions:
REMARK  status: ('A' for Active; 'I' for Inactive)
REMARK    1  A    between atoms: C_1  and  C_2
REMARK    2  A    between atoms: C_2  and  C_3
REMARK    3  A    between atoms: C_2  and  N_4
REMARK    4  A    between atoms: C_6  and  C_7
REMARK    5  A    between atoms: C_7  and  C_9
REMARK    6  A    between atoms: C_13  and  N_14
REMARK    7  A    between atoms: C_15  and  C_17
REMARK    8  A    between atoms: C_17  and  C_18
REMARK                            x       y       z     vdW  Elec       q    Type
REMARK                         _______ _______ _______ _____ _____    ______ ____
ROOT
ATOM      1  C   UNL     1       2.568   4.626  18.609  0.00  0.00    +0.000 A 
ATOM      2  C   UNL     1       1.979   3.672  19.424  0.00  0.00    +0.000 A 
ATOM      3  N   UNL     1       1.355   3.963  20.585  0.00  0.00    +0.000 NA
ATOM      4  C   UNL     1       1.341   5.268  20.962  0.00  0.00    +0.000 A 
ATOM      5  C   UNL     1       1.923   6.309  20.238  0.00  0.00    +0.000 A 
ATOM      6  C   UNL     1       2.559   5.963  19.041  0.00  0.00    +0.000 A 
ENDROOT
BRANCH   5   7
ATOM      7  N   UNL     1       1.920   7.665  20.653  0.00  0.00    +0.000 N 
ATOM      8  C   UNL     1       0.853   8.322  21.255  0.00  0.00    +0.000 C 
ATOM      9  O   UNL     1      -0.260   7.838  21.451  0.00  0.00    +0.000 OA
ATOM     10  H   UNL     1       2.737   8.217  20.422  0.00  0.00    +0.000 HD
BRANCH   8  11
ATOM     11  C   UNL     1       1.135   9.774  21.632  0.00  0.00    +0.000 C 
BRANCH  11  12
ATOM     12  C   UNL     1      -0.066  10.655  21.393  0.00  0.00    +0.000 A 
ATOM     13  C   UNL     1      -0.340  11.147  20.115  0.00  0.00    +0.000 A 
ATOM     14  C   UNL     1      -1.347  12.094  19.929  0.00  0.00    +0.000 A 
ATOM     15  C   UNL     1      -2.097  12.561  20.996  0.00  0.00    +0.000 A 
ATOM     16  N   UNL     1      -2.976  13.563  20.800  0.00  0.00    +0.000 NA
ATOM     17  C   UNL     1      -3.651  13.989  21.887  0.00  0.00    +0.000 A 
ATOM     18  C   UNL     1      -3.494  13.403  23.126  0.00  0.00    +0.000 A 
ATOM     19  N   UNL     1      -2.618  12.397  23.345  0.00  0.00    +0.000 NA
ATOM     20  C   UNL     1      -1.897  11.995  22.280  0.00  0.00    +0.000 A 
ATOM     21  C   UNL     1      -0.896  11.045  22.452  0.00  0.00    +0.000 A 
ENDBRANCH  11  12
ENDBRANCH   8  11
ENDBRANCH   5   7
BRANCH   1  22
ATOM     22  C   UNL     1       3.258   4.235  17.357  0.00  0.00    +0.000 C 
ATOM     23  O   UNL     1       2.684   3.467  16.595  0.00  0.00    +0.000 OA
BRANCH  22  26
ATOM     24  N   UNL     1       6.598   5.767  17.261  0.00  0.00    +0.000 N 
ATOM     25  C   UNL     1       5.411   5.496  17.907  0.00  0.00    +0.000 A 
ATOM     26  C   UNL     1       4.587   4.774  17.055  0.00  0.00    +0.000 A 
ATOM     27  C   UNL     1       5.317   4.623  15.835  0.00  0.00    +0.000 A 
ATOM     28  C   UNL     1       5.087   4.014  14.597  0.00  0.00    +0.000 A 
ATOM     29  N   UNL     1       6.029   4.083  13.631  0.00  0.00    +0.000 NA
ATOM     30  C   UNL     1       7.172   4.739  13.912  0.00  0.00    +0.000 A 
ATOM     31  N   UNL     1       7.511   5.355  15.056  0.00  0.00    +0.000 NA
ATOM     32  C   UNL     1       6.542   5.263  15.983  0.00  0.00    +0.000 A 
BRANCH  24  34
ATOM     33  C   UNL     1       7.736   7.923  17.720  0.00  0.00    +0.000 C 
ATOM     34  C   UNL     1       7.748   6.405  17.901  0.00  0.00    +0.000 C 
ATOM     35  C   UNL     1       7.922   6.009  19.367  0.00  0.00    +0.000 C 
ENDBRANCH  24  34
ENDBRANCH  22  26
ENDBRANCH   1  22
TORSDOF 6
ENDMDL
MODEL 9
REMARK VINA RESULT:      -9.0      2.729      4.155
REMARK  Name = 
REMARK  8 active torsions:
REMARK  status: ('A' for Active; 'I' for Inactive)
REMARK    1  A    between atoms: C_1  and  C_2
REMARK    2  A    between atoms: C_2  and  C_3
REMARK    3  A    between atoms: C_2  and  N_4
REMARK    4  A    between atoms: C_6  and  C_7
REMARK    5  A    between atoms: C_7  and  C_9
REMARK    6  A    between atoms: C_13  and  N_14
REMARK    7  A    between atoms: C_15  and  C_17
REMARK    8  A    between atoms: C_17  and  C_18
REMARK                            x       y       z     vdW  Elec       q    Type
REMARK                         _______ _______ _______ _____ _____    ______ ____
ROOT
ATOM      1  C   UNL     1       1.893   8.236  19.274  0.00  0.00    +0.000 A 
ATOM      2  C   UNL     1       1.902   7.371  20.357  0.00  0.00    +0.000 A 
ATOM      3  N   UNL     1       1.311   7.648  21.539  0.00  0.00    +0.000 NA
ATOM      4  C   UNL     1       0.705   8.858  21.652  0.00  0.00    +0.000 A 
ATOM      5  C   UNL     1       0.656   9.819  20.640  0.00  0.00    +0.000 A 
ATOM      6  C   UNL     1       1.281   9.491  19.432  0.00  0.00    +0.000 A 
ENDROOT
BRANCH   5   7
ATOM      7  N   UNL     1       0.038  11.088  20.777  0.00  0.00    +0.000 N 
ATOM      8  C   UNL     1      -0.402  11.646  21.972  0.00  0.00    +0.000 C 
ATOM      9  O   UNL     1      -0.379  11.089  23.068  0.00  0.00    +0.000 OA
ATOM     10  H   UNL     1      -0.164  11.594  19.924  0.00  0.00    +0.000 HD
BRANCH   8  11
ATOM     11  C   UNL     1      -1.000  13.043  21.836  0.00  0.00    +0.000 C 
BRANCH  11  12
ATOM     12  C   UNL     1      -2.508  13.009  21.853  0.00  0.00    +0.000 A 
ATOM     13  C   UNL     1      -3.205  13.150  23.056  0.00  0.00    +0.000 A 
ATOM     14  C   UNL     1      -4.585  12.948  23.094  0.00  0.00    +0.000 A 
ATOM     15  C   UNL     1      -5.292  12.612  21.950  0.00  0.00    +0.000 A 
ATOM     16  N   UNL     1      -6.600  12.306  22.046  0.00  0.00    +0.000 NA
ATOM     17  C   UNL     1      -7.220  11.959  20.899  0.00  0.00    +0.000 A 
ATOM     18  C   UNL     1      -6.570  11.964  19.682  0.00  0.00    +0.000 A 
ATOM     19  N   UNL     1      -5.259  12.269  19.564  0.00  0.00    +0.000 NA
ATOM     20  C   UNL     1      -4.611  12.566  20.707  0.00  0.00    +0.000 A 
ATOM     21  C   UNL     1      -3.237  12.777  20.680  0.00  0.00    +0.000 A 
ENDBRANCH  11  12
ENDBRANCH   8  11
ENDBRANCH   5   7
BRANCH   1  22
ATOM     22  C   UNL     1       2.583   7.880  18.012  0.00  0.00    +0.000 C 
ATOM     23  O   UNL     1       2.470   8.638  17.057  0.00  0.00    +0.000 OA
BRANCH  22  26
ATOM     24  N   UNL     1       5.120   5.221  17.931  0.00  0.00    +0.000 N 
ATOM     25  C   UNL     1       4.766   6.553  17.970  0.00  0.00    +0.000 A 
ATOM     26  C   UNL     1       3.381   6.654  17.934  0.00  0.00    +0.000 A 
ATOM     27  C   UNL     1       2.891   5.314  17.853  0.00  0.00    +0.000 A 
ATOM     28  C   UNL     1       1.632   4.709  17.791  0.00  0.00    +0.000 A 
ATOM     29  N   UNL     1       1.538   3.363  17.703  0.00  0.00    +0.000 NA
ATOM     30  C   UNL     1       2.682   2.652  17.688  0.00  0.00    +0.000 A 
ATOM     31  N   UNL     1       3.942   3.114  17.748  0.00  0.00    +0.000 NA
ATOM     32  C   UNL     1       3.984   4.454  17.829  0.00  0.00    +0.000 A 
BRANCH  24  34
ATOM     33  C   UNL     1       7.175   4.535  16.722  0.00  0.00    +0.000 C 
ATOM     34  C   UNL     1       6.493   4.738  18.075  0.00  0.00    +0.000 C 
ATOM     35  C   UNL     1       7.340   5.594  19.016  0.00  0.00    +0.000 C 
ENDBRANCH  24  34
ENDBRANCH  22  26
ENDBRANCH   1  22
TORSDOF 6
ENDMDL
