MODEL 1
REMARK VINA RESULT:      -8.5      0.000      0.000
REMARK  Name = 
REMARK  5 active torsions:
REMARK  status: ('A' for Active; 'I' for Inactive)
REMARK    1  A    between atoms: C_1  and  C_2
REMARK    2  A    between atoms: C_8  and  N_9
REMARK    3  A    between atoms: C_10  and  C_12
REMARK    4  A    between atoms: C_12  and  N_13
REMARK    5  A    between atoms: C_17  and  C_18
REMARK                            x       y       z     vdW  Elec       q    Type
REMARK                         _______ _______ _______ _____ _____    ______ ____
ROOT
ATOM      1  N   UNL     1       4.177   4.133  18.617  0.00  0.00    +0.000 N 
ATOM      2  C   UNL     1       3.970   3.613  17.344  0.00  0.00    +0.000 A 
ATOM      3  N   UNL     1       4.690   3.815  16.279  0.00  0.00    +0.000 NA
ATOM      4  C   UNL     1       5.768   4.700  16.463  0.00  0.00    +0.000 A 
ATOM      5  C   UNL     1       6.732   5.142  15.491  0.00  0.00    +0.000 A 
ATOM      6  N   UNL     1       7.622   6.039  15.975  0.00  0.00    +0.000 NA
ATOM      7  S   UNL     1       7.323   6.303  17.588  0.00  0.00    +0.000 S 
ATOM      8  C   UNL     1       6.010   5.261  17.689  0.00  0.00    +0.000 A 
ATOM      9  C   UNL     1       5.249   4.984  18.865  0.00  0.00    +0.000 A 
ATOM     10  O   UNL     1       5.510   5.413  19.986  0.00  0.00    +0.000 OA
ENDROOT
BRANCH   5  11
ATOM     11  C   UNL     1       6.866   4.721  14.083  0.00  0.00    +0.000 C 
ATOM     12  N   UNL     1       6.237   3.536  13.785  0.00  0.00    +0.000 N 
ATOM     13  O   UNL     1       7.448   5.350  13.206  0.00  0.00    +0.000 OA
ATOM     14  H   UNL     1       5.710   3.060  14.508  0.00  0.00    +0.000 HD
ATOM     15  H   UNL     1       6.213   3.213  12.831  0.00  0.00    +0.000 HD
ENDBRANCH   5  11
BRANCH   1  16
ATOM     16  C   UNL     1       3.272   3.799  19.723  0.00  0.00    +0.000 C 
BRANCH  16  18
ATOM     17  N   UNL     1       2.673   6.195  19.903  0.00  0.00    +0.000 N 
ATOM     18  C   UNL     1       2.194   4.881  19.910  0.00  0.00    +0.000 C 
ATOM     19  O   UNL     1       1.035   4.545  20.150  0.00  0.00    +0.000 OA
ATOM     20  H   UNL     1       3.673   6.328  19.807  0.00  0.00    +0.000 HD
BRANCH  17  28
ATOM     21  C   UNL     1       2.528   8.256  17.806  0.00  0.00    +0.000 C 
ATOM     22  C   UNL     1       1.829   8.402  19.135  0.00  0.00    +0.000 A 
ATOM     23  C   UNL     1       1.079   9.572  19.420  0.00  0.00    +0.000 A 
ATOM     24 CL   UNL     1       0.928  10.887  18.302  0.00  0.00    +0.000 Cl
ATOM     25  C   UNL     1       0.421   9.733  20.641  0.00  0.00    +0.000 A 
ATOM     26  C   UNL     1       0.468   8.722  21.585  0.00  0.00    +0.000 A 
ATOM     27  C   UNL     1       1.189   7.558  21.322  0.00  0.00    +0.000 A 
ATOM     28  C   UNL     1       1.898   7.380  20.123  0.00  0.00    +0.000 A 
ENDBRANCH  17  28
ENDBRANCH  16  18
ENDBRANCH   1  16
TORSDOF 4
ENDMDL
MODEL 2
REMARK VINA RESULT:      -7.4      3.689      7.643
REMARK  Name = 
REMARK  5 active torsions:
REMARK  status: ('A' for Active; 'I' for Inactive)
REMARK    1  A    between atoms: C_1  and  C_2
REMARK    2  A    between atoms: C_8  and  N_9
REMARK    3  A    between atoms: C_10  and  C_12
REMARK    4  A    between atoms: C_12  and  N_13
REMARK    5  A    between atoms: C_17  and  C_18
REMARK                            x       y       z     vdW  Elec       q    Type
REMARK                         _______ _______ _______ _____ _____    ______ ____
ROOT
ATOM      1  N   UNL     1       5.007   5.769  18.378  0.00  0.00    +0.000 N 
ATOM      2  C   UNL     1       3.693   6.075  18.715  0.00  0.00    +0.000 A 
ATOM      3  N   UNL     1       2.864   5.349  19.407  0.00  0.00    +0.000 NA
ATOM      4  C   UNL     1       3.376   4.103  19.809  0.00  0.00    +0.000 A 
ATOM      5  C   UNL     1       2.714   3.071  20.563  0.00  0.00    +0.000 A 
ATOM      6  N   UNL     1       3.467   1.962  20.746  0.00  0.00    +0.000 NA
ATOM      7  S   UNL     1       4.963   2.187  20.059  0.00  0.00    +0.000 S 
ATOM      8  C   UNL     1       4.656   3.737  19.490  0.00  0.00    +0.000 A 
ATOM      9  C   UNL     1       5.577   4.566  18.781  0.00  0.00    +0.000 A 
ATOM     10  O   UNL     1       6.753   4.284  18.565  0.00  0.00    +0.000 OA
ENDROOT
BRANCH   5  11
ATOM     11  C   UNL     1       1.364   3.099  21.157  0.00  0.00    +0.000 C 
ATOM     12  N   UNL     1       0.403   3.660  20.350  0.00  0.00    +0.000 N 
ATOM     13  O   UNL     1       1.061   2.648  22.256  0.00  0.00    +0.000 OA
ATOM     14  H   UNL     1       0.658   3.973  19.420  0.00  0.00    +0.000 HD
ATOM     15  H   UNL     1      -0.561   3.651  20.644  0.00  0.00    +0.000 HD
ENDBRANCH   5  11
BRANCH   1  16
ATOM     16  C   UNL     1       5.820   6.706  17.592  0.00  0.00    +0.000 C 
BRANCH  16  18
ATOM     17  N   UNL     1       6.670   5.440  15.641  0.00  0.00    +0.000 N 
ATOM     18  C   UNL     1       5.744   6.387  16.089  0.00  0.00    +0.000 C 
ATOM     19  O   UNL     1       4.976   7.029  15.373  0.00  0.00    +0.000 OA
ATOM     20  H   UNL     1       7.324   5.068  16.319  0.00  0.00    +0.000 HD
BRANCH  17  28
ATOM     21  C   UNL     1       5.026   3.252  14.557  0.00  0.00    +0.000 C 
ATOM     22  C   UNL     1       6.092   3.944  13.743  0.00  0.00    +0.000 A 
ATOM     23  C   UNL     1       6.345   3.537  12.408  0.00  0.00    +0.000 A 
ATOM     24 CL   UNL     1       5.485   2.243  11.640  0.00  0.00    +0.000 Cl
ATOM     25  C   UNL     1       7.324   4.160  11.632  0.00  0.00    +0.000 A 
ATOM     26  C   UNL     1       8.044   5.220  12.156  0.00  0.00    +0.000 A 
ATOM     27  C   UNL     1       7.804   5.645  13.462  0.00  0.00    +0.000 A 
ATOM     28  C   UNL     1       6.857   5.014  14.285  0.00  0.00    +0.000 A 
ENDBRANCH  17  28
ENDBRANCH  16  18
ENDBRANCH   1  16
TORSDOF 4
ENDMDL
MODEL 3
REMARK VINA RESULT:      -7.3      4.901      6.834
REMARK  Name = 
REMARK  5 active torsions:
REMARK  status: ('A' for Active; 'I' for Inactive)
REMARK    1  A    between atoms: C_1  and  C_2
REMARK    2  A    between atoms: C_8  and  N_9
REMARK    3  A    between atoms: C_10  and  C_12
REMARK    4  A    between atoms: C_12  and  N_13
REMARK    5  A    between atoms: C_17  and  C_18
REMARK                            x       y       z     vdW  Elec       q    Type
REMARK                         _______ _______ _______ _____ _____    ______ ____
ROOT
ATOM      1  N   UNL     1       6.461   6.406  17.652  0.00  0.00    +0.000 N 
ATOM      2  C   UNL     1       6.967   5.439  18.513  0.00  0.00    +0.000 A 
ATOM      3  N   UNL     1       6.302   4.521  19.152  0.00  0.00    +0.000 NA
ATOM      4  C   UNL     1       4.910   4.570  18.959  0.00  0.00    +0.000 A 
ATOM      5  C   UNL     1       3.901   3.717  19.531  0.00  0.00    +0.000 A 
ATOM      6  N   UNL     1       2.639   4.057  19.183  0.00  0.00    +0.000 NA
ATOM      7  S   UNL     1       2.678   5.354  18.146  0.00  0.00    +0.000 S 
ATOM      8  C   UNL     1       4.350   5.514  18.139  0.00  0.00    +0.000 A 
ATOM      9  C   UNL     1       5.096   6.478  17.396  0.00  0.00    +0.000 A 
ATOM     10  O   UNL     1       4.613   7.271  16.592  0.00  0.00    +0.000 OA
ENDROOT
BRANCH   5  11
ATOM     11  C   UNL     1       4.089   2.542  20.403  0.00  0.00    +0.000 C 
ATOM     12  N   UNL     1       5.108   1.706  20.014  0.00  0.00    +0.000 N 
ATOM     13  O   UNL     1       3.443   2.299  21.416  0.00  0.00    +0.000 OA
ATOM     14  H   UNL     1       5.671   1.954  19.208  0.00  0.00    +0.000 HD
ATOM     15  H   UNL     1       5.356   0.921  20.594  0.00  0.00    +0.000 HD
ENDBRANCH   5  11
BRANCH   1  16
ATOM     16  C   UNL     1       7.353   7.373  16.999  0.00  0.00    +0.000 C 
BRANCH  16  18
ATOM     17  N   UNL     1       8.127   9.612  17.719  0.00  0.00    +0.000 N 
ATOM     18  C   UNL     1       8.082   8.249  18.032  0.00  0.00    +0.000 C 
ATOM     19  O   UNL     1       8.651   7.716  18.983  0.00  0.00    +0.000 OA
ATOM     20  H   UNL     1       7.712   9.905  16.843  0.00  0.00    +0.000 HD
BRANCH  17  28
ATOM     21  C   UNL     1       7.729  12.443  17.019  0.00  0.00    +0.000 C 
ATOM     22  C   UNL     1       8.640  12.006  18.139  0.00  0.00    +0.000 A 
ATOM     23  C   UNL     1       9.358  12.971  18.891  0.00  0.00    +0.000 A 
ATOM     24 CL   UNL     1       9.256  14.673  18.578  0.00  0.00    +0.000 Cl
ATOM     25  C   UNL     1      10.207  12.596  19.934  0.00  0.00    +0.000 A 
ATOM     26  C   UNL     1      10.332  11.258  20.270  0.00  0.00    +0.000 A 
ATOM     27  C   UNL     1       9.626  10.293  19.552  0.00  0.00    +0.000 A 
ATOM     28  C   UNL     1       8.797  10.631  18.471  0.00  0.00    +0.000 A 
ENDBRANCH  17  28
ENDBRANCH  16  18
ENDBRANCH   1  16
TORSDOF 4
ENDMDL
MODEL 4
REMARK VINA RESULT:      -7.3      4.208      8.102
REMARK  Name = 
REMARK  5 active torsions:
REMARK  status: ('A' for Active; 'I' for Inactive)
REMARK    1  A    between atoms: C_1  and  C_2
REMARK    2  A    between atoms: C_8  and  N_9
REMARK    3  A    between atoms: C_10  and  C_12
REMARK    4  A    between atoms: C_12  and  N_13
REMARK    5  A    between atoms: C_17  and  C_18
REMARK                            x       y       z     vdW  Elec       q    Type
REMARK                         _______ _______ _______ _____ _____    ______ ____
ROOT
ATOM      1  N   UNL     1       2.018   8.953  18.670  0.00  0.00    +0.000 N 
ATOM      2  C   UNL     1       1.580   8.285  19.808  0.00  0.00    +0.000 A 
ATOM      3  N   UNL     1       0.883   8.772  20.793  0.00  0.00    +0.000 NA
ATOM      4  C   UNL     1       0.593  10.143  20.680  0.00  0.00    +0.000 A 
ATOM      5  C   UNL     1      -0.136  10.978  21.599  0.00  0.00    +0.000 A 
ATOM      6  N   UNL     1      -0.200  12.276  21.222  0.00  0.00    +0.000 NA
ATOM      7  S   UNL     1       0.566  12.469  19.761  0.00  0.00    +0.000 S 
ATOM      8  C   UNL     1       1.016  10.860  19.592  0.00  0.00    +0.000 A 
ATOM      9  C   UNL     1       1.729  10.302  18.488  0.00  0.00    +0.000 A 
ATOM     10  O   UNL     1       2.036  10.915  17.469  0.00  0.00    +0.000 OA
ENDROOT
BRANCH   5  11
ATOM     11  C   UNL     1      -0.815  10.582  22.847  0.00  0.00    +0.000 C 
ATOM     12  N   UNL     1      -0.277   9.474  23.457  0.00  0.00    +0.000 N 
ATOM     13  O   UNL     1      -1.761  11.170  23.359  0.00  0.00    +0.000 OA
ATOM     14  H   UNL     1       0.543   9.035  23.052  0.00  0.00    +0.000 HD
ATOM     15  H   UNL     1      -0.630   9.180  24.354  0.00  0.00    +0.000 HD
ENDBRANCH   5  11
BRANCH   1  16
ATOM     16  C   UNL     1       2.794   8.254  17.639  0.00  0.00    +0.000 C 
BRANCH  16  18
ATOM     17  N   UNL     1       2.075   5.908  17.974  0.00  0.00    +0.000 N 
ATOM     18  C   UNL     1       3.134   6.817  18.072  0.00  0.00    +0.000 C 
ATOM     19  O   UNL     1       4.238   6.578  18.559  0.00  0.00    +0.000 OA
ATOM     20  H   UNL     1       1.181   6.264  17.660  0.00  0.00    +0.000 HD
BRANCH  17  28
ATOM     21  C   UNL     1       1.510   5.189  20.771  0.00  0.00    +0.000 C 
ATOM     22  C   UNL     1       1.854   4.159  19.724  0.00  0.00    +0.000 A 
ATOM     23  C   UNL     1       1.932   2.786  20.073  0.00  0.00    +0.000 A 
ATOM     24 CL   UNL     1       1.660   2.209  21.685  0.00  0.00    +0.000 Cl
ATOM     25  C   UNL     1       2.247   1.811  19.125  0.00  0.00    +0.000 A 
ATOM     26  C   UNL     1       2.457   2.179  17.807  0.00  0.00    +0.000 A 
ATOM     27  C   UNL     1       2.374   3.521  17.438  0.00  0.00    +0.000 A 
ATOM     28  C   UNL     1       2.102   4.532  18.373  0.00  0.00    +0.000 A 
ENDBRANCH  17  28
ENDBRANCH  16  18
ENDBRANCH   1  16
TORSDOF 4
ENDMDL
MODEL 5
REMARK VINA RESULT:      -7.2      4.150      5.829
REMARK  Name = 
REMARK  5 active torsions:
REMARK  status: ('A' for Active; 'I' for Inactive)
REMARK    1  A    between atoms: C_1  and  C_2
REMARK    2  A    between atoms: C_8  and  N_9
REMARK    3  A    between atoms: C_10  and  C_12
REMARK    4  A    between atoms: C_12  and  N_13
REMARK    5  A    between atoms: C_17  and  C_18
REMARK                            x       y       z     vdW  Elec       q    Type
REMARK                         _______ _______ _______ _____ _____    ______ ____
ROOT
ATOM      1  N   UNL     1       1.472   9.022  19.625  0.00  0.00    +0.000 N 
ATOM      2  C   UNL     1       2.138   9.005  18.404  0.00  0.00    +0.000 A 
ATOM      3  N   UNL     1       2.773   8.007  17.862  0.00  0.00    +0.000 NA
ATOM      4  C   UNL     1       2.804   6.841  18.648  0.00  0.00    +0.000 A 
ATOM      5  C   UNL     1       3.434   5.582  18.347  0.00  0.00    +0.000 A 
ATOM      6  N   UNL     1       3.324   4.667  19.338  0.00  0.00    +0.000 NA
ATOM      7  S   UNL     1       2.435   5.306  20.588  0.00  0.00    +0.000 S 
ATOM      8  C   UNL     1       2.185   6.803  19.869  0.00  0.00    +0.000 A 
ATOM      9  C   UNL     1       1.440   7.886  20.427  0.00  0.00    +0.000 A 
ATOM     10  O   UNL     1       0.809   7.834  21.480  0.00  0.00    +0.000 OA
ENDROOT
BRANCH   5  11
ATOM     11  C   UNL     1       4.138   5.187  17.112  0.00  0.00    +0.000 C 
ATOM     12  N   UNL     1       4.853   6.200  16.521  0.00  0.00    +0.000 N 
ATOM     13  O   UNL     1       4.145   4.061  16.628  0.00  0.00    +0.000 OA
ATOM     14  H   UNL     1       4.885   7.110  16.967  0.00  0.00    +0.000 HD
ATOM     15  H   UNL     1       5.426   6.000  15.716  0.00  0.00    +0.000 HD
ENDBRANCH   5  11
BRANCH   1  16
ATOM     16  C   UNL     1       0.792  10.235  20.095  0.00  0.00    +0.000 C 
BRANCH  16  18
ATOM     17  N   UNL     1      -1.246  10.089  18.696  0.00  0.00    +0.000 N 
ATOM     18  C   UNL     1      -0.102  10.836  18.997  0.00  0.00    +0.000 C 
ATOM     19  O   UNL     1       0.272  11.842  18.396  0.00  0.00    +0.000 OA
ATOM     20  H   UNL     1      -1.378   9.216  19.192  0.00  0.00    +0.000 HD
BRANCH  17  28
ATOM     21  C   UNL     1      -3.455  11.949  19.263  0.00  0.00    +0.000 C 
ATOM     22  C   UNL     1      -3.296  11.264  17.929  0.00  0.00    +0.000 A 
ATOM     23  C   UNL     1      -4.240  11.492  16.894  0.00  0.00    +0.000 A 
ATOM     24 CL   UNL     1      -5.613  12.532  17.085  0.00  0.00    +0.000 Cl
ATOM     25  C   UNL     1      -4.117  10.872  15.649  0.00  0.00    +0.000 A 
ATOM     26  C   UNL     1      -3.037  10.042  15.399  0.00  0.00    +0.000 A 
ATOM     27  C   UNL     1      -2.090   9.814  16.397  0.00  0.00    +0.000 A 
ATOM     28  C   UNL     1      -2.205  10.386  17.674  0.00  0.00    +0.000 A 
ENDBRANCH  17  28
ENDBRANCH  16  18
ENDBRANCH   1  16
TORSDOF 4
ENDMDL
MODEL 6
REMARK VINA RESULT:      -7.2      3.192      5.367
REMARK  Name = 
REMARK  5 active torsions:
REMARK  status: ('A' for Active; 'I' for Inactive)
REMARK    1  A    between atoms: C_1  and  C_2
REMARK    2  A    between atoms: C_8  and  N_9
REMARK    3  A    between atoms: C_10  and  C_12
REMARK    4  A    between atoms: C_12  and  N_13
REMARK    5  A    between atoms: C_17  and  C_18
REMARK                            x       y       z     vdW  Elec       q    Type
REMARK                         _______ _______ _______ _____ _____    ______ ____
ROOT
ATOM      1  N   UNL     1       2.809   7.421  18.378  0.00  0.00    +0.000 N 
ATOM      2  C   UNL     1       2.049   7.099  19.497  0.00  0.00    +0.000 A 
ATOM      3  N   UNL     1       1.993   5.955  20.114  0.00  0.00    +0.000 NA
ATOM      4  C   UNL     1       2.771   4.939  19.529  0.00  0.00    +0.000 A 
ATOM      5  C   UNL     1       2.911   3.571  19.953  0.00  0.00    +0.000 A 
ATOM      6  N   UNL     1       3.701   2.828  19.143  0.00  0.00    +0.000 NA
ATOM      7  S   UNL     1       4.298   3.783  17.922  0.00  0.00    +0.000 S 
ATOM      8  C   UNL     1       3.524   5.190  18.413  0.00  0.00    +0.000 A 
ATOM      9  C   UNL     1       3.624   6.466  17.780  0.00  0.00    +0.000 A 
ATOM     10  O   UNL     1       4.363   6.723  16.833  0.00  0.00    +0.000 OA
ENDROOT
BRANCH   5  11
ATOM     11  C   UNL     1       2.329   2.921  21.142  0.00  0.00    +0.000 C 
ATOM     12  N   UNL     1       0.955   2.947  21.186  0.00  0.00    +0.000 N 
ATOM     13  O   UNL     1       2.964   2.363  22.029  0.00  0.00    +0.000 OA
ATOM     14  H   UNL     1       0.443   3.359  20.414  0.00  0.00    +0.000 HD
ATOM     15  H   UNL     1       0.472   2.460  21.923  0.00  0.00    +0.000 HD
ENDBRANCH   5  11
BRANCH   1  16
ATOM     16  C   UNL     1       2.767   8.771  17.803  0.00  0.00    +0.000 C 
BRANCH  16  18
ATOM     17  N   UNL     1       1.567  10.418  19.210  0.00  0.00    +0.000 N 
ATOM     18  C   UNL     1       1.458   9.494  18.166  0.00  0.00    +0.000 C 
ATOM     19  O   UNL     1       0.410   9.160  17.614  0.00  0.00    +0.000 OA
ATOM     20  H   UNL     1       2.471  10.516  19.655  0.00  0.00    +0.000 HD
BRANCH  17  28
ATOM     21  C   UNL     1       0.613   9.764  21.917  0.00  0.00    +0.000 C 
ATOM     22  C   UNL     1      -0.001  10.863  21.085  0.00  0.00    +0.000 A 
ATOM     23  C   UNL     1      -1.090  11.616  21.593  0.00  0.00    +0.000 A 
ATOM     24 CL   UNL     1      -1.786  11.329  23.155  0.00  0.00    +0.000 Cl
ATOM     25  C   UNL     1      -1.677  12.639  20.847  0.00  0.00    +0.000 A 
ATOM     26  C   UNL     1      -1.171  12.955  19.597  0.00  0.00    +0.000 A 
ATOM     27  C   UNL     1      -0.092  12.236  19.083  0.00  0.00    +0.000 A 
ATOM     28  C   UNL     1       0.495  11.173  19.788  0.00  0.00    +0.000 A 
ENDBRANCH  17  28
ENDBRANCH  16  18
ENDBRANCH   1  16
TORSDOF 4
ENDMDL
MODEL 7
REMARK VINA RESULT:      -7.2      3.373      5.574
REMARK  Name = 
REMARK  5 active torsions:
REMARK  status: ('A' for Active; 'I' for Inactive)
REMARK    1  A    between atoms: C_1  and  C_2
REMARK    2  A    between atoms: C_8  and  N_9
REMARK    3  A    between atoms: C_10  and  C_12
REMARK    4  A    between atoms: C_12  and  N_13
REMARK    5  A    between atoms: C_17  and  C_18
REMARK                            x       y       z     vdW  Elec       q    Type
REMARK                         _______ _______ _______ _____ _____    ______ ____
ROOT
ATOM      1  N   UNL     1       2.461   7.528  18.710  0.00  0.00    +0.000 N 
ATOM      2  C   UNL     1       1.734   7.061  19.799  0.00  0.00    +0.000 A 
ATOM      3  N   UNL     1       1.795   5.881  20.345  0.00  0.00    +0.000 NA
ATOM      4  C   UNL     1       2.678   4.990  19.709  0.00  0.00    +0.000 A 
ATOM      5  C   UNL     1       2.959   3.620  20.050  0.00  0.00    +0.000 A 
ATOM      6  N   UNL     1       3.826   3.015  19.205  0.00  0.00    +0.000 NA
ATOM      7  S   UNL     1       4.325   4.100  18.051  0.00  0.00    +0.000 S 
ATOM      8  C   UNL     1       3.406   5.386  18.618  0.00  0.00    +0.000 A 
ATOM      9  C   UNL     1       3.375   6.702  18.065  0.00  0.00    +0.000 A 
ATOM     10  O   UNL     1       4.087   7.092  17.143  0.00  0.00    +0.000 OA
ENDROOT
BRANCH   5  11
ATOM     11  C   UNL     1       2.442   2.841  21.191  0.00  0.00    +0.000 C 
ATOM     12  N   UNL     1       1.072   2.823  21.289  0.00  0.00    +0.000 N 
ATOM     13  O   UNL     1       3.128   2.219  21.994  0.00  0.00    +0.000 OA
ATOM     14  H   UNL     1       0.518   3.293  20.582  0.00  0.00    +0.000 HD
ATOM     15  H   UNL     1       0.631   2.252  21.994  0.00  0.00    +0.000 HD
ENDBRANCH   5  11
BRANCH   1  16
ATOM     16  C   UNL     1       2.281   8.900  18.217  0.00  0.00    +0.000 C 
BRANCH  16  18
ATOM     17  N   UNL     1       0.058   9.974  18.022  0.00  0.00    +0.000 N 
ATOM     18  C   UNL     1       1.080   9.584  18.894  0.00  0.00    +0.000 C 
ATOM     19  O   UNL     1       1.126   9.833  20.097  0.00  0.00    +0.000 OA
ATOM     20  H   UNL     1       0.198   9.807  17.033  0.00  0.00    +0.000 HD
BRANCH  17  28
ATOM     21  C   UNL     1      -2.354   9.714  16.356  0.00  0.00    +0.000 C 
ATOM     22  C   UNL     1      -2.306  10.596  17.579  0.00  0.00    +0.000 A 
ATOM     23  C   UNL     1      -3.444  11.354  17.956  0.00  0.00    +0.000 A 
ATOM     24 CL   UNL     1      -4.927  11.334  17.059  0.00  0.00    +0.000 Cl
ATOM     25  C   UNL     1      -3.429  12.177  19.084  0.00  0.00    +0.000 A 
ATOM     26  C   UNL     1      -2.294  12.237  19.874  0.00  0.00    +0.000 A 
ATOM     27  C   UNL     1      -1.167  11.491  19.530  0.00  0.00    +0.000 A 
ATOM     28  C   UNL     1      -1.133  10.686  18.379  0.00  0.00    +0.000 A 
ENDBRANCH  17  28
ENDBRANCH  16  18
ENDBRANCH   1  16
TORSDOF 4
ENDMDL
MODEL 8
REMARK VINA RESULT:      -7.1      5.159      8.438
REMARK  Name = 
REMARK  5 active torsions:
REMARK  status: ('A' for Active; 'I' for Inactive)
REMARK    1  A    between atoms: C_1  and  C_2
REMARK    2  A    between atoms: C_8  and  N_9
REMARK    3  A    between atoms: C_10  and  C_12
REMARK    4  A    between atoms: C_12  and  N_13
REMARK    5  A    between atoms: C_17  and  C_18
REMARK                            x       y       z     vdW  Elec       q    Type
REMARK                         _______ _______ _______ _____ _____    ______ ____
ROOT
ATOM      1  N   UNL     1       0.736   9.732  18.731  0.00  0.00    +0.000 N 
ATOM      2  C   UNL     1      -0.102   9.396  17.674  0.00  0.00    +0.000 A 
ATOM      3  N   UNL     1      -1.286   9.873  17.419  0.00  0.00    +0.000 NA
ATOM      4  C   UNL     1      -1.755  10.803  18.364  0.00  0.00    +0.000 A 
ATOM      5  C   UNL     1      -3.017  11.494  18.382  0.00  0.00    +0.000 A 
ATOM      6  N   UNL     1      -3.187  12.291  19.462  0.00  0.00    +0.000 NA
ATOM      7  S   UNL     1      -1.824  12.239  20.410  0.00  0.00    +0.000 S 
ATOM      8  C   UNL     1      -0.983  11.157  19.439  0.00  0.00    +0.000 A 
ATOM      9  C   UNL     1       0.338  10.671  19.676  0.00  0.00    +0.000 A 
ATOM     10  O   UNL     1       1.072  11.048  20.586  0.00  0.00    +0.000 OA
ENDROOT
BRANCH   5  11
ATOM     11  C   UNL     1      -4.095  11.448  17.376  0.00  0.00    +0.000 C 
ATOM     12  N   UNL     1      -3.661  11.555  16.077  0.00  0.00    +0.000 N 
ATOM     13  O   UNL     1      -5.287  11.299  17.619  0.00  0.00    +0.000 OA
ATOM     14  H   UNL     1      -2.667  11.618  15.890  0.00  0.00    +0.000 HD
ATOM     15  H   UNL     1      -4.322  11.457  15.322  0.00  0.00    +0.000 HD
ENDBRANCH   5  11
BRANCH   1  16
ATOM     16  C   UNL     1       2.055   9.102  18.875  0.00  0.00    +0.000 C 
BRANCH  16  18
ATOM     17  N   UNL     1       2.261   6.635  18.855  0.00  0.00    +0.000 N 
ATOM     18  C   UNL     1       1.957   7.762  19.624  0.00  0.00    +0.000 C 
ATOM     19  O   UNL     1       1.534   7.746  20.780  0.00  0.00    +0.000 OA
ATOM     20  H   UNL     1       2.488   6.782  17.879  0.00  0.00    +0.000 HD
BRANCH  17  28
ATOM     21  C   UNL     1       3.738   4.554  17.389  0.00  0.00    +0.000 C 
ATOM     22  C   UNL     1       2.869   4.242  18.581  0.00  0.00    +0.000 A 
ATOM     23  C   UNL     1       2.725   2.902  19.027  0.00  0.00    +0.000 A 
ATOM     24 CL   UNL     1       3.503   1.563  18.248  0.00  0.00    +0.000 Cl
ATOM     25  C   UNL     1       1.929   2.584  20.128  0.00  0.00    +0.000 A 
ATOM     26  C   UNL     1       1.288   3.594  20.826  0.00  0.00    +0.000 A 
ATOM     27  C   UNL     1       1.425   4.919  20.414  0.00  0.00    +0.000 A 
ATOM     28  C   UNL     1       2.183   5.270  19.286  0.00  0.00    +0.000 A 
ENDBRANCH  17  28
ENDBRANCH  16  18
ENDBRANCH   1  16
TORSDOF 4
ENDMDL
MODEL 9
REMARK VINA RESULT:      -7.0      5.422      9.612
REMARK  Name = 
REMARK  5 active torsions:
REMARK  status: ('A' for Active; 'I' for Inactive)
REMARK    1  A    between atoms: C_1  and  C_2
REMARK    2  A    between atoms: C_8  and  N_9
REMARK    3  A    between atoms: C_10  and  C_12
REMARK    4  A    between atoms: C_12  and  N_13
REMARK    5  A    between atoms: C_17  and  C_18
REMARK                            x       y       z     vdW  Elec       q    Type
REMARK                         _______ _______ _______ _____ _____    ______ ____
ROOT
ATOM      1  N   UNL     1       0.372  10.115  21.818  0.00  0.00    +0.000 N 
ATOM      2  C   UNL     1      -0.281  10.214  23.041  0.00  0.00    +0.000 A 
ATOM      3  N   UNL     1      -1.307  10.959  23.333  0.00  0.00    +0.000 NA
ATOM      4  C   UNL     1      -1.754  11.775  22.278  0.00  0.00    +0.000 A 
ATOM      5  C   UNL     1      -2.843  12.716  22.280  0.00  0.00    +0.000 A 
ATOM      6  N   UNL     1      -2.987  13.385  21.113  0.00  0.00    +0.000 NA
ATOM      7  S   UNL     1      -1.856  12.848  20.021  0.00  0.00    +0.000 S 
ATOM      8  C   UNL     1      -1.137  11.737  21.055  0.00  0.00    +0.000 A 
ATOM      9  C   UNL     1      -0.050  10.871  20.729  0.00  0.00    +0.000 A 
ATOM     10  O   UNL     1       0.453  10.766  19.614  0.00  0.00    +0.000 OA
ENDROOT
BRANCH   5  11
ATOM     11  C   UNL     1      -3.798  13.002  23.368  0.00  0.00    +0.000 C 
ATOM     12  N   UNL     1      -4.123  11.911  24.137  0.00  0.00    +0.000 N 
ATOM     13  O   UNL     1      -4.268  14.104  23.628  0.00  0.00    +0.000 OA
ATOM     14  H   UNL     1      -3.679  11.020  23.945  0.00  0.00    +0.000 HD
ATOM     15  H   UNL     1      -4.708  12.031  24.948  0.00  0.00    +0.000 HD
ENDBRANCH   5  11
BRANCH   1  16
ATOM     16  C   UNL     1       1.519   9.214  21.648  0.00  0.00    +0.000 C 
BRANCH  16  18
ATOM     17  N   UNL     1       2.109   6.968  20.787  0.00  0.00    +0.000 N 
ATOM     18  C   UNL     1       1.071   7.819  21.180  0.00  0.00    +0.000 C 
ATOM     19  O   UNL     1      -0.131   7.572  21.082  0.00  0.00    +0.000 OA
ATOM     20  H   UNL     1       3.051   7.339  20.813  0.00  0.00    +0.000 HD
BRANCH  17  28
ATOM     21  C   UNL     1       3.038   6.394  18.054  0.00  0.00    +0.000 C 
ATOM     22  C   UNL     1       2.384   5.349  18.924  0.00  0.00    +0.000 A 
ATOM     23  C   UNL     1       2.181   4.036  18.428  0.00  0.00    +0.000 A 
ATOM     24 CL   UNL     1       2.642   3.552  16.828  0.00  0.00    +0.000 Cl
ATOM     25  C   UNL     1       1.580   3.048  19.210  0.00  0.00    +0.000 A 
ATOM     26  C   UNL     1       1.201   3.338  20.510  0.00  0.00    +0.000 A 
ATOM     27  C   UNL     1       1.402   4.619  21.023  0.00  0.00    +0.000 A 
ATOM     28  C   UNL     1       1.964   5.648  20.250  0.00  0.00    +0.000 A 
ENDBRANCH  17  28
ENDBRANCH  16  18
ENDBRANCH   1  16
TORSDOF 4
ENDMDL
