MODEL 1
REMARK VINA RESULT:      -8.5      0.000      0.000
REMARK  Name = 
REMARK  9 active torsions:
REMARK  status: ('A' for Active; 'I' for Inactive)
REMARK    1  A    between atoms: C_1  and  O_2
REMARK    2  A    between atoms: O_2  and  C_3
REMARK    3  A    between atoms: C_4  and  C_5
REMARK    4  A    between atoms: C_6  and  C_7
REMARK    5  A    between atoms: C_9  and  O_10
REMARK    6  A    between atoms: O_10  and  C_11
REMARK    7  A    between atoms: C_13  and  O_14
REMARK    8  A    between atoms: C_23  and  C_24
REMARK    9  A    between atoms: C_26  and  C_27
REMARK                            x       y       z     vdW  Elec       q    Type
REMARK                         _______ _______ _______ _____ _____    ______ ____
ROOT
ATOM      1  C   UNL     1       1.150   8.867  19.246  0.00  0.00    +0.000 A 
ATOM      2  C   UNL     1       1.832   7.758  19.888  0.00  0.00    +0.000 A 
ATOM      3  C   UNL     1       1.480   7.644  21.260  0.00  0.00    +0.000 A 
ATOM      4  C   UNL     1       0.680   8.569  21.970  0.00  0.00    +0.000 A 
ATOM      5  C   UNL     1       0.141   9.703  21.363  0.00  0.00    +0.000 A 
ATOM      6  C   UNL     1       0.266   9.824  19.969  0.00  0.00    +0.000 A 
ATOM      7  C   UNL     1      -0.546  10.977  19.304  0.00  0.00    +0.000 C 
ATOM      8  C   UNL     1      -1.491  10.537  18.169  0.00  0.00    +0.000 C 
ATOM      9  N   UNL     1      -1.510  11.704  20.193  0.00  0.00    +0.000 NA
ATOM     10  C   UNL     1      -1.008  12.012  21.525  0.00  0.00    +0.000 C 
ATOM     11  C   UNL     1       0.038  13.127  21.495  0.00  0.00    +0.000 C 
ATOM     12  C   UNL     1      -0.586  10.719  22.230  0.00  0.00    +0.000 C 
ATOM     13  H   UNL     1      -2.351  11.136  20.302  0.00  0.00    +0.000 HD
ENDROOT
BRANCH   2  14
ATOM     14  C   UNL     1       2.635   6.517  19.335  0.00  0.00    +0.000 A 
ATOM     15  C   UNL     1       2.507   5.354  20.137  0.00  0.00    +0.000 A 
ATOM     16  C   UNL     1       1.164   4.755  20.475  0.00  0.00    +0.000 C 
ATOM     17  C   UNL     1       3.572   4.476  20.190  0.00  0.00    +0.000 A 
ATOM     18  C   UNL     1       3.808   3.980  18.969  0.00  0.00    +0.000 A 
ATOM     19  C   UNL     1       4.004   4.919  17.958  0.00  0.00    +0.000 A 
ATOM     20  C   UNL     1       4.731   4.488  16.815  0.00  0.00    +0.000 A 
ATOM     21  C   UNL     1       5.367   5.391  16.009  0.00  0.00    +0.000 A 
ATOM     22  C   UNL     1       5.222   6.739  16.306  0.00  0.00    +0.000 A 
ATOM     23  C   UNL     1       4.320   7.194  17.332  0.00  0.00    +0.000 A 
ATOM     24  C   UNL     1       3.625   6.302  18.215  0.00  0.00    +0.000 A 
BRANCH  18  25
ATOM     25  O   UNL     1       3.828   2.629  18.715  0.00  0.00    +0.000 OA
ATOM     26  C   UNL     1       2.563   1.995  18.649  0.00  0.00    +0.000 C 
ENDBRANCH  18  25
BRANCH  20  27
ATOM     27  O   UNL     1       4.926   3.174  16.489  0.00  0.00    +0.000 OA
ATOM     28  H   UNL     1       5.335   2.741  17.265  0.00  0.00    +0.000 HD
ENDBRANCH  20  27
ENDBRANCH   2  14
BRANCH   1  30
ATOM     29  C   UNL     1       2.277  10.155  17.629  0.00  0.00    +0.000 C 
ATOM     30  O   UNL     1       1.292   9.170  17.908  0.00  0.00    +0.000 OA
ENDBRANCH   1  30
TORSDOF 4
ENDMDL
MODEL 2
REMARK VINA RESULT:      -8.2      2.784      7.896
REMARK  Name = 
REMARK  9 active torsions:
REMARK  status: ('A' for Active; 'I' for Inactive)
REMARK    1  A    between atoms: C_1  and  O_2
REMARK    2  A    between atoms: O_2  and  C_3
REMARK    3  A    between atoms: C_4  and  C_5
REMARK    4  A    between atoms: C_6  and  C_7
REMARK    5  A    between atoms: C_9  and  O_10
REMARK    6  A    between atoms: O_10  and  C_11
REMARK    7  A    between atoms: C_13  and  O_14
REMARK    8  A    between atoms: C_23  and  C_24
REMARK    9  A    between atoms: C_26  and  C_27
REMARK                            x       y       z     vdW  Elec       q    Type
REMARK                         _______ _______ _______ _____ _____    ______ ____
ROOT
ATOM      1  C   UNL     1       3.109   6.492  19.286  0.00  0.00    +0.000 A 
ATOM      2  C   UNL     1       1.892   7.020  19.876  0.00  0.00    +0.000 A 
ATOM      3  C   UNL     1       1.269   6.074  20.735  0.00  0.00    +0.000 A 
ATOM      4  C   UNL     1       1.682   4.732  20.897  0.00  0.00    +0.000 A 
ATOM      5  C   UNL     1       2.780   4.207  20.216  0.00  0.00    +0.000 A 
ATOM      6  C   UNL     1       3.585   5.094  19.484  0.00  0.00    +0.000 A 
ATOM      7  C   UNL     1       4.924   4.513  18.935  0.00  0.00    +0.000 C 
ATOM      8  C   UNL     1       6.188   5.293  19.344  0.00  0.00    +0.000 C 
ATOM      9  N   UNL     1       5.289   3.137  19.404  0.00  0.00    +0.000 NA
ATOM     10  C   UNL     1       4.189   2.184  19.437  0.00  0.00    +0.000 C 
ATOM     11  C   UNL     1       3.766   1.755  18.032  0.00  0.00    +0.000 C 
ATOM     12  C   UNL     1       3.069   2.718  20.338  0.00  0.00    +0.000 C 
ATOM     13  H   UNL     1       5.672   3.202  20.348  0.00  0.00    +0.000 HD
ENDROOT
BRANCH   2  14
ATOM     14  C   UNL     1       1.288   8.473  19.989  0.00  0.00    +0.000 A 
ATOM     15  C   UNL     1       1.533   9.281  18.850  0.00  0.00    +0.000 A 
ATOM     16  C   UNL     1       1.120   8.859  17.462  0.00  0.00    +0.000 C 
ATOM     17  C   UNL     1       1.674  10.643  19.032  0.00  0.00    +0.000 A 
ATOM     18  C   UNL     1       0.539  11.151  19.528  0.00  0.00    +0.000 A 
ATOM     19  C   UNL     1       0.062  10.553  20.692  0.00  0.00    +0.000 A 
ATOM     20  C   UNL     1      -0.802  11.335  21.507  0.00  0.00    +0.000 A 
ATOM     21  C   UNL     1      -0.950  11.056  22.837  0.00  0.00    +0.000 A 
ATOM     22  C   UNL     1      -0.286   9.948  23.346  0.00  0.00    +0.000 A 
ATOM     23  C   UNL     1       0.419   9.032  22.489  0.00  0.00    +0.000 A 
ATOM     24  C   UNL     1       0.617   9.265  21.087  0.00  0.00    +0.000 A 
BRANCH  18  25
ATOM     25  O   UNL     1      -0.137  12.179  18.913  0.00  0.00    +0.000 OA
ATOM     26  C   UNL     1       0.660  13.259  18.464  0.00  0.00    +0.000 C 
ENDBRANCH  18  25
BRANCH  20  27
ATOM     27  O   UNL     1      -1.461  12.449  21.065  0.00  0.00    +0.000 OA
ATOM     28  H   UNL     1      -2.008  12.774  21.807  0.00  0.00    +0.000 HD
ENDBRANCH  20  27
ENDBRANCH   2  14
BRANCH   1  30
ATOM     29  C   UNL     1       3.837   6.849  17.075  0.00  0.00    +0.000 C 
ATOM     30  O   UNL     1       3.920   7.223  18.443  0.00  0.00    +0.000 OA
ENDBRANCH   1  30
TORSDOF 4
ENDMDL
MODEL 3
REMARK VINA RESULT:      -8.1      0.904      2.747
REMARK  Name = 
REMARK  9 active torsions:
REMARK  status: ('A' for Active; 'I' for Inactive)
REMARK    1  A    between atoms: C_1  and  O_2
REMARK    2  A    between atoms: O_2  and  C_3
REMARK    3  A    between atoms: C_4  and  C_5
REMARK    4  A    between atoms: C_6  and  C_7
REMARK    5  A    between atoms: C_9  and  O_10
REMARK    6  A    between atoms: O_10  and  C_11
REMARK    7  A    between atoms: C_13  and  O_14
REMARK    8  A    between atoms: C_23  and  C_24
REMARK    9  A    between atoms: C_26  and  C_27
REMARK                            x       y       z     vdW  Elec       q    Type
REMARK                         _______ _______ _______ _____ _____    ______ ____
ROOT
ATOM      1  C   UNL     1       1.150   8.864  19.359  0.00  0.00    +0.000 A 
ATOM      2  C   UNL     1       1.810   7.790  20.079  0.00  0.00    +0.000 A 
ATOM      3  C   UNL     1       1.524   7.834  21.471  0.00  0.00    +0.000 A 
ATOM      4  C   UNL     1       0.809   8.867  22.118  0.00  0.00    +0.000 A 
ATOM      5  C   UNL     1       0.294   9.961  21.423  0.00  0.00    +0.000 A 
ATOM      6  C   UNL     1       0.352   9.935  20.020  0.00  0.00    +0.000 A 
ATOM      7  C   UNL     1      -0.437  11.058  19.280  0.00  0.00    +0.000 C 
ATOM      8  C   UNL     1      -1.460  10.557  18.241  0.00  0.00    +0.000 C 
ATOM      9  N   UNL     1      -1.316  11.921  20.133  0.00  0.00    +0.000 NA
ATOM     10  C   UNL     1      -0.731  12.334  21.401  0.00  0.00    +0.000 C 
ATOM     11  C   UNL     1       0.364  13.382  21.207  0.00  0.00    +0.000 C 
ATOM     12  C   UNL     1      -0.336  11.097  22.215  0.00  0.00    +0.000 C 
ATOM     13  H   UNL     1      -2.177  11.413  20.339  0.00  0.00    +0.000 HD
ENDROOT
BRANCH   2  14
ATOM     14  C   UNL     1       2.521   6.459  19.620  0.00  0.00    +0.000 A 
ATOM     15  C   UNL     1       3.119   6.547  18.337  0.00  0.00    +0.000 A 
ATOM     16  C   UNL     1       4.143   7.602  17.998  0.00  0.00    +0.000 C 
ATOM     17  C   UNL     1       3.173   5.406  17.560  0.00  0.00    +0.000 A 
ATOM     18  C   UNL     1       3.912   4.476  18.178  0.00  0.00    +0.000 A 
ATOM     19  C   UNL     1       3.528   4.159  19.480  0.00  0.00    +0.000 A 
ATOM     20  C   UNL     1       3.925   2.886  19.973  0.00  0.00    +0.000 A 
ATOM     21  C   UNL     1       3.247   2.293  21.002  0.00  0.00    +0.000 A 
ATOM     22  C   UNL     1       2.209   3.003  21.590  0.00  0.00    +0.000 A 
ATOM     23  C   UNL     1       1.938   4.373  21.238  0.00  0.00    +0.000 A 
ATOM     24  C   UNL     1       2.607   5.054  20.167  0.00  0.00    +0.000 A 
BRANCH  18  25
ATOM     25  O   UNL     1       5.003   3.887  17.582  0.00  0.00    +0.000 OA
ATOM     26  C   UNL     1       5.171   4.156  16.202  0.00  0.00    +0.000 C 
ENDBRANCH  18  25
BRANCH  20  27
ATOM     27  O   UNL     1       4.923   2.133  19.418  0.00  0.00    +0.000 OA
ATOM     28  H   UNL     1       4.674   1.963  18.488  0.00  0.00    +0.000 HD
ENDBRANCH  20  27
ENDBRANCH   2  14
BRANCH   1  30
ATOM     29  C   UNL     1       2.110  10.064  17.574  0.00  0.00    +0.000 C 
ATOM     30  O   UNL     1       1.237   9.024  17.991  0.00  0.00    +0.000 OA
ENDBRANCH   1  30
TORSDOF 4
ENDMDL
MODEL 4
REMARK VINA RESULT:      -7.4      1.530      3.575
REMARK  Name = 
REMARK  9 active torsions:
REMARK  status: ('A' for Active; 'I' for Inactive)
REMARK    1  A    between atoms: C_1  and  O_2
REMARK    2  A    between atoms: O_2  and  C_3
REMARK    3  A    between atoms: C_4  and  C_5
REMARK    4  A    between atoms: C_6  and  C_7
REMARK    5  A    between atoms: C_9  and  O_10
REMARK    6  A    between atoms: O_10  and  C_11
REMARK    7  A    between atoms: C_13  and  O_14
REMARK    8  A    between atoms: C_23  and  C_24
REMARK    9  A    between atoms: C_26  and  C_27
REMARK                            x       y       z     vdW  Elec       q    Type
REMARK                         _______ _______ _______ _____ _____    ______ ____
ROOT
ATOM      1  C   UNL     1       1.547   7.910  19.749  0.00  0.00    +0.000 A 
ATOM      2  C   UNL     1       2.175   7.489  18.510  0.00  0.00    +0.000 A 
ATOM      3  C   UNL     1       2.470   8.594  17.666  0.00  0.00    +0.000 A 
ATOM      4  C   UNL     1       2.079   9.930  17.915  0.00  0.00    +0.000 A 
ATOM      5  C   UNL     1       1.359  10.292  19.052  0.00  0.00    +0.000 A 
ATOM      6  C   UNL     1       1.170   9.320  20.049  0.00  0.00    +0.000 A 
ATOM      7  C   UNL     1       0.569   9.825  21.396  0.00  0.00    +0.000 C 
ATOM      8  C   UNL     1       1.406   9.494  22.647  0.00  0.00    +0.000 C 
ATOM      9  N   UNL     1       0.434  11.311  21.544  0.00  0.00    +0.000 NA
ATOM     10  C   UNL     1      -0.064  12.005  20.365  0.00  0.00    +0.000 C 
ATOM     11  C   UNL     1      -1.552  11.742  20.137  0.00  0.00    +0.000 C 
ATOM     12  C   UNL     1       0.855  11.722  19.172  0.00  0.00    +0.000 C 
ATOM     13  H   UNL     1       1.348  11.703  21.773  0.00  0.00    +0.000 HD
ENDROOT
BRANCH   2  14
ATOM     14  C   UNL     1       2.840   6.138  18.041  0.00  0.00    +0.000 A 
ATOM     15  C   UNL     1       4.018   6.320  17.273  0.00  0.00    +0.000 A 
ATOM     16  C   UNL     1       5.198   7.107  17.787  0.00  0.00    +0.000 C 
ATOM     17  C   UNL     1       4.315   5.388  16.297  0.00  0.00    +0.000 A 
ATOM     18  C   UNL     1       4.501   4.189  16.862  0.00  0.00    +0.000 A 
ATOM     19  C   UNL     1       3.465   3.730  17.672  0.00  0.00    +0.000 A 
ATOM     20  C   UNL     1       3.381   2.324  17.870  0.00  0.00    +0.000 A 
ATOM     21  C   UNL     1       2.199   1.739  18.233  0.00  0.00    +0.000 A 
ATOM     22  C   UNL     1       1.110   2.567  18.467  0.00  0.00    +0.000 A 
ATOM     23  C   UNL     1       1.240   4.001  18.474  0.00  0.00    +0.000 A 
ATOM     24  C   UNL     1       2.447   4.680  18.099  0.00  0.00    +0.000 A 
BRANCH  18  25
ATOM     25  O   UNL     1       5.655   3.463  16.683  0.00  0.00    +0.000 OA
ATOM     26  C   UNL     1       6.568   3.980  15.732  0.00  0.00    +0.000 C 
ENDBRANCH  18  25
BRANCH  20  27
ATOM     27  O   UNL     1       4.413   1.460  17.632  0.00  0.00    +0.000 OA
ATOM     28  H   UNL     1       4.069   0.555  17.766  0.00  0.00    +0.000 HD
ENDBRANCH  20  27
ENDBRANCH   2  14
BRANCH   1  30
ATOM     29  C   UNL     1       2.225   6.136  21.143  0.00  0.00    +0.000 C 
ATOM     30  O   UNL     1       1.193   7.033  20.754  0.00  0.00    +0.000 OA
ENDBRANCH   1  30
TORSDOF 4
ENDMDL
MODEL 5
REMARK VINA RESULT:      -7.3      1.459      2.563
REMARK  Name = 
REMARK  9 active torsions:
REMARK  status: ('A' for Active; 'I' for Inactive)
REMARK    1  A    between atoms: C_1  and  O_2
REMARK    2  A    between atoms: O_2  and  C_3
REMARK    3  A    between atoms: C_4  and  C_5
REMARK    4  A    between atoms: C_6  and  C_7
REMARK    5  A    between atoms: C_9  and  O_10
REMARK    6  A    between atoms: O_10  and  C_11
REMARK    7  A    between atoms: C_13  and  O_14
REMARK    8  A    between atoms: C_23  and  C_24
REMARK    9  A    between atoms: C_26  and  C_27
REMARK                            x       y       z     vdW  Elec       q    Type
REMARK                         _______ _______ _______ _____ _____    ______ ____
ROOT
ATOM      1  C   UNL     1       1.534   7.953  19.575  0.00  0.00    +0.000 A 
ATOM      2  C   UNL     1       2.347   7.600  18.426  0.00  0.00    +0.000 A 
ATOM      3  C   UNL     1       2.653   8.735  17.627  0.00  0.00    +0.000 A 
ATOM      4  C   UNL     1       2.124  10.031  17.825  0.00  0.00    +0.000 A 
ATOM      5  C   UNL     1       1.237  10.319  18.862  0.00  0.00    +0.000 A 
ATOM      6  C   UNL     1       1.006   9.324  19.825  0.00  0.00    +0.000 A 
ATOM      7  C   UNL     1       0.199   9.762  21.086  0.00  0.00    +0.000 C 
ATOM      8  C   UNL     1       0.896   9.488  22.433  0.00  0.00    +0.000 C 
ATOM      9  N   UNL     1      -0.077  11.230  21.216  0.00  0.00    +0.000 NA
ATOM     10  C   UNL     1      -0.478  11.894  19.984  0.00  0.00    +0.000 C 
ATOM     11  C   UNL     1      -1.899  11.511  19.568  0.00  0.00    +0.000 C 
ATOM     12  C   UNL     1       0.605  11.702  18.917  0.00  0.00    +0.000 C 
ATOM     13  H   UNL     1       0.765  11.694  21.559  0.00  0.00    +0.000 HD
ENDROOT
BRANCH   2  14
ATOM     14  C   UNL     1       3.177   6.314  18.044  0.00  0.00    +0.000 A 
ATOM     15  C   UNL     1       2.521   5.098  18.364  0.00  0.00    +0.000 A 
ATOM     16  C   UNL     1       1.143   4.768  17.846  0.00  0.00    +0.000 C 
ATOM     17  C   UNL     1       3.296   4.007  18.708  0.00  0.00    +0.000 A 
ATOM     18  C   UNL     1       4.079   3.669  17.676  0.00  0.00    +0.000 A 
ATOM     19  C   UNL     1       4.877   4.687  17.158  0.00  0.00    +0.000 A 
ATOM     20  C   UNL     1       6.041   4.288  16.446  0.00  0.00    +0.000 A 
ATOM     21  C   UNL     1       7.101   5.142  16.304  0.00  0.00    +0.000 A 
ATOM     22  C   UNL     1       6.972   6.425  16.817  0.00  0.00    +0.000 A 
ATOM     23  C   UNL     1       5.724   6.903  17.352  0.00  0.00    +0.000 A 
ATOM     24  C   UNL     1       4.576   6.061  17.533  0.00  0.00    +0.000 A 
BRANCH  18  25
ATOM     25  O   UNL     1       4.079   2.404  17.136  0.00  0.00    +0.000 OA
ATOM     26  C   UNL     1       3.688   1.361  18.009  0.00  0.00    +0.000 C 
ENDBRANCH  18  25
BRANCH  20  27
ATOM     27  O   UNL     1       6.231   3.032  15.940  0.00  0.00    +0.000 OA
ATOM     28  H   UNL     1       6.825   2.559  16.556  0.00  0.00    +0.000 HD
ENDBRANCH  20  27
ENDBRANCH   2  14
BRANCH   1  30
ATOM     29  C   UNL     1       2.196   6.389  21.207  0.00  0.00    +0.000 C 
ATOM     30  O   UNL     1       1.131   7.039  20.527  0.00  0.00    +0.000 OA
ENDBRANCH   1  30
TORSDOF 4
ENDMDL
MODEL 6
REMARK VINA RESULT:      -7.1      2.863      8.176
REMARK  Name = 
REMARK  9 active torsions:
REMARK  status: ('A' for Active; 'I' for Inactive)
REMARK    1  A    between atoms: C_1  and  O_2
REMARK    2  A    between atoms: O_2  and  C_3
REMARK    3  A    between atoms: C_4  and  C_5
REMARK    4  A    between atoms: C_6  and  C_7
REMARK    5  A    between atoms: C_9  and  O_10
REMARK    6  A    between atoms: O_10  and  C_11
REMARK    7  A    between atoms: C_13  and  O_14
REMARK    8  A    between atoms: C_23  and  C_24
REMARK    9  A    between atoms: C_26  and  C_27
REMARK                            x       y       z     vdW  Elec       q    Type
REMARK                         _______ _______ _______ _____ _____    ______ ____
ROOT
ATOM      1  C   UNL     1       1.525   7.993  19.875  0.00  0.00    +0.000 A 
ATOM      2  C   UNL     1       1.069   9.204  19.218  0.00  0.00    +0.000 A 
ATOM      3  C   UNL     1       1.578   9.311  17.895  0.00  0.00    +0.000 A 
ATOM      4  C   UNL     1       2.527   8.436  17.320  0.00  0.00    +0.000 A 
ATOM      5  C   UNL     1       3.053   7.349  18.018  0.00  0.00    +0.000 A 
ATOM      6  C   UNL     1       2.488   7.034  19.265  0.00  0.00    +0.000 A 
ATOM      7  C   UNL     1       2.941   5.684  19.902  0.00  0.00    +0.000 C 
ATOM      8  C   UNL     1       1.794   4.722  20.270  0.00  0.00    +0.000 C 
ATOM      9  N   UNL     1       3.777   4.791  19.035  0.00  0.00    +0.000 NA
ATOM     10  C   UNL     1       4.810   5.470  18.266  0.00  0.00    +0.000 C 
ATOM     11  C   UNL     1       5.963   5.938  19.154  0.00  0.00    +0.000 C 
ATOM     12  C   UNL     1       4.173   6.544  17.378  0.00  0.00    +0.000 C 
ATOM     13  H   UNL     1       3.166   4.308  18.375  0.00  0.00    +0.000 HD
ENDROOT
BRANCH   2  14
ATOM     14  C   UNL     1      -0.066  10.250  19.546  0.00  0.00    +0.000 A 
ATOM     15  C   UNL     1       0.229  11.079  20.658  0.00  0.00    +0.000 A 
ATOM     16  C   UNL     1       1.481  11.918  20.726  0.00  0.00    +0.000 C 
ATOM     17  C   UNL     1      -0.820  11.526  21.438  0.00  0.00    +0.000 A 
ATOM     18  C   UNL     1      -1.637  12.287  20.698  0.00  0.00    +0.000 A 
ATOM     19  C   UNL     1      -2.117  11.705  19.527  0.00  0.00    +0.000 A 
ATOM     20  C   UNL     1      -3.325  12.234  18.997  0.00  0.00    +0.000 A 
ATOM     21  C   UNL     1      -4.111  11.485  18.165  0.00  0.00    +0.000 A 
ATOM     22  C   UNL     1      -3.656  10.225  17.804  0.00  0.00    +0.000 A 
ATOM     23  C   UNL     1      -2.340   9.765  18.165  0.00  0.00    +0.000 A 
ATOM     24  C   UNL     1      -1.467  10.497  19.038  0.00  0.00    +0.000 A 
BRANCH  18  25
ATOM     25  O   UNL     1      -1.963  13.576  21.052  0.00  0.00    +0.000 OA
ATOM     26  C   UNL     1      -1.657  13.945  22.384  0.00  0.00    +0.000 C 
ENDBRANCH  18  25
BRANCH  20  27
ATOM     27  O   UNL     1      -3.832  13.459  19.336  0.00  0.00    +0.000 OA
ATOM     28  H   UNL     1      -4.172  13.387  20.249  0.00  0.00    +0.000 HD
ENDBRANCH  20  27
ENDBRANCH   2  14
BRANCH   1  30
ATOM     29  C   UNL     1       1.556   8.542  22.164  0.00  0.00    +0.000 C 
ATOM     30  O   UNL     1       1.144   7.635  21.152  0.00  0.00    +0.000 OA
ENDBRANCH   1  30
TORSDOF 4
ENDMDL
MODEL 7
REMARK VINA RESULT:      -7.1      2.801      7.722
REMARK  Name = 
REMARK  9 active torsions:
REMARK  status: ('A' for Active; 'I' for Inactive)
REMARK    1  A    between atoms: C_1  and  O_2
REMARK    2  A    between atoms: O_2  and  C_3
REMARK    3  A    between atoms: C_4  and  C_5
REMARK    4  A    between atoms: C_6  and  C_7
REMARK    5  A    between atoms: C_9  and  O_10
REMARK    6  A    between atoms: O_10  and  C_11
REMARK    7  A    between atoms: C_13  and  O_14
REMARK    8  A    between atoms: C_23  and  C_24
REMARK    9  A    between atoms: C_26  and  C_27
REMARK                            x       y       z     vdW  Elec       q    Type
REMARK                         _______ _______ _______ _____ _____    ______ ____
ROOT
ATOM      1  C   UNL     1       2.711   6.606  19.381  0.00  0.00    +0.000 A 
ATOM      2  C   UNL     1       2.230   7.918  18.988  0.00  0.00    +0.000 A 
ATOM      3  C   UNL     1       2.760   8.319  17.731  0.00  0.00    +0.000 A 
ATOM      4  C   UNL     1       3.745   7.612  17.005  0.00  0.00    +0.000 A 
ATOM      5  C   UNL     1       4.291   6.415  17.468  0.00  0.00    +0.000 A 
ATOM      6  C   UNL     1       3.714   5.826  18.604  0.00  0.00    +0.000 A 
ATOM      7  C   UNL     1       4.196   4.383  18.949  0.00  0.00    +0.000 C 
ATOM      8  C   UNL     1       3.074   3.335  19.076  0.00  0.00    +0.000 C 
ATOM      9  N   UNL     1       5.075   3.719  17.932  0.00  0.00    +0.000 NA
ATOM     10  C   UNL     1       6.101   4.573  17.352  0.00  0.00    +0.000 C 
ATOM     11  C   UNL     1       7.223   4.870  18.346  0.00  0.00    +0.000 C 
ATOM     12  C   UNL     1       5.447   5.795  16.697  0.00  0.00    +0.000 C 
ATOM     13  H   UNL     1       4.491   3.372  17.169  0.00  0.00    +0.000 HD
ENDROOT
BRANCH   2  14
ATOM     14  C   UNL     1       1.058   8.839  19.504  0.00  0.00    +0.000 A 
ATOM     15  C   UNL     1       0.943   8.874  20.917  0.00  0.00    +0.000 A 
ATOM     16  C   UNL     1       2.094   9.273  21.808  0.00  0.00    +0.000 C 
ATOM     17  C   UNL     1      -0.312   9.047  21.468  0.00  0.00    +0.000 A 
ATOM     18  C   UNL     1      -0.809  10.232  21.092  0.00  0.00    +0.000 A 
ATOM     19  C   UNL     1      -0.845  10.469  19.719  0.00  0.00    +0.000 A 
ATOM     20  C   UNL     1      -1.783  11.433  19.260  0.00  0.00    +0.000 A 
ATOM     21  C   UNL     1      -2.226  11.416  17.966  0.00  0.00    +0.000 A 
ATOM     22  C   UNL     1      -1.679  10.474  17.105  0.00  0.00    +0.000 A 
ATOM     23  C   UNL     1      -0.580   9.635  17.505  0.00  0.00    +0.000 A 
ATOM     24  C   UNL     1      -0.069   9.599  18.846  0.00  0.00    +0.000 A 
BRANCH  18  25
ATOM     25  O   UNL     1      -1.233  11.174  22.000  0.00  0.00    +0.000 OA
ATOM     26  C   UNL     1      -1.229  10.768  23.356  0.00  0.00    +0.000 C 
ENDBRANCH  18  25
BRANCH  20  27
ATOM     27  O   UNL     1      -2.371  12.367  20.067  0.00  0.00    +0.000 OA
ATOM     28  H   UNL     1      -1.728  13.093  20.186  0.00  0.00    +0.000 HD
ENDBRANCH  20  27
ENDBRANCH   2  14
BRANCH   1  30
ATOM     29  C   UNL     1       1.063   5.313  20.458  0.00  0.00    +0.000 C 
ATOM     30  O   UNL     1       2.319   5.974  20.543  0.00  0.00    +0.000 OA
ENDBRANCH   1  30
TORSDOF 4
ENDMDL
MODEL 8
REMARK VINA RESULT:      -7.0      4.040      7.259
REMARK  Name = 
REMARK  9 active torsions:
REMARK  status: ('A' for Active; 'I' for Inactive)
REMARK    1  A    between atoms: C_1  and  O_2
REMARK    2  A    between atoms: O_2  and  C_3
REMARK    3  A    between atoms: C_4  and  C_5
REMARK    4  A    between atoms: C_6  and  C_7
REMARK    5  A    between atoms: C_9  and  O_10
REMARK    6  A    between atoms: O_10  and  C_11
REMARK    7  A    between atoms: C_13  and  O_14
REMARK    8  A    between atoms: C_23  and  C_24
REMARK    9  A    between atoms: C_26  and  C_27
REMARK                            x       y       z     vdW  Elec       q    Type
REMARK                         _______ _______ _______ _____ _____    ______ ____
ROOT
ATOM      1  C   UNL     1      -2.666  12.511  22.123  0.00  0.00    +0.000 A 
ATOM      2  C   UNL     1      -2.289  12.315  20.735  0.00  0.00    +0.000 A 
ATOM      3  C   UNL     1      -3.314  12.736  19.845  0.00  0.00    +0.000 A 
ATOM      4  C   UNL     1      -4.605  13.159  20.238  0.00  0.00    +0.000 A 
ATOM      5  C   UNL     1      -4.991  13.214  21.577  0.00  0.00    +0.000 A 
ATOM      6  C   UNL     1      -4.006  13.000  22.555  0.00  0.00    +0.000 A 
ATOM      7  C   UNL     1      -4.423  13.299  24.027  0.00  0.00    +0.000 C 
ATOM      8  C   UNL     1      -3.515  14.297  24.772  0.00  0.00    +0.000 C 
ATOM      9  N   UNL     1      -5.759  13.954  24.216  0.00  0.00    +0.000 NA
ATOM     10  C   UNL     1      -6.828  13.424  23.383  0.00  0.00    +0.000 C 
ATOM     11  C   UNL     1      -7.276  12.038  23.846  0.00  0.00    +0.000 C 
ATOM     12  C   UNL     1      -6.440  13.541  21.905  0.00  0.00    +0.000 C 
ATOM     13  H   UNL     1      -5.668  14.950  24.010  0.00  0.00    +0.000 HD
ENDROOT
BRANCH   2  14
ATOM     14  C   UNL     1      -0.915  12.014  20.021  0.00  0.00    +0.000 A 
ATOM     15  C   UNL     1      -0.806  10.686  19.535  0.00  0.00    +0.000 A 
ATOM     16  C   UNL     1      -1.812  10.095  18.578  0.00  0.00    +0.000 C 
ATOM     17  C   UNL     1       0.445  10.099  19.508  0.00  0.00    +0.000 A 
ATOM     18  C   UNL     1       1.248  10.790  18.690  0.00  0.00    +0.000 A 
ATOM     19  C   UNL     1       1.358  12.154  18.954  0.00  0.00    +0.000 A 
ATOM     20  C   UNL     1       2.527  12.807  18.476  0.00  0.00    +0.000 A 
ATOM     21  C   UNL     1       2.959  13.973  19.045  0.00  0.00    +0.000 A 
ATOM     22  C   UNL     1       2.183  14.528  20.054  0.00  0.00    +0.000 A 
ATOM     23  C   UNL     1       0.894  13.988  20.399  0.00  0.00    +0.000 A 
ATOM     24  C   UNL     1       0.382  12.768  19.844  0.00  0.00    +0.000 A 
BRANCH  18  25
ATOM     25  O   UNL     1       1.904  10.202  17.634  0.00  0.00    +0.000 OA
ATOM     26  C   UNL     1       2.144   8.812  17.754  0.00  0.00    +0.000 C 
ENDBRANCH  18  25
BRANCH  20  27
ATOM     27  O   UNL     1       3.340  12.294  17.503  0.00  0.00    +0.000 OA
ATOM     28  H   UNL     1       3.958  11.675  17.940  0.00  0.00    +0.000 HD
ENDBRANCH  20  27
ENDBRANCH   2  14
BRANCH   1  30
ATOM     29  C   UNL     1      -1.320  10.891  23.176  0.00  0.00    +0.000 C 
ATOM     30  O   UNL     1      -1.833  12.215  23.182  0.00  0.00    +0.000 OA
ENDBRANCH   1  30
TORSDOF 4
ENDMDL
MODEL 9
REMARK VINA RESULT:      -7.0      2.934      8.159
REMARK  Name = 
REMARK  9 active torsions:
REMARK  status: ('A' for Active; 'I' for Inactive)
REMARK    1  A    between atoms: C_1  and  O_2
REMARK    2  A    between atoms: O_2  and  C_3
REMARK    3  A    between atoms: C_4  and  C_5
REMARK    4  A    between atoms: C_6  and  C_7
REMARK    5  A    between atoms: C_9  and  O_10
REMARK    6  A    between atoms: O_10  and  C_11
REMARK    7  A    between atoms: C_13  and  O_14
REMARK    8  A    between atoms: C_23  and  C_24
REMARK    9  A    between atoms: C_26  and  C_27
REMARK                            x       y       z     vdW  Elec       q    Type
REMARK                         _______ _______ _______ _____ _____    ______ ____
ROOT
ATOM      1  C   UNL     1       1.550   8.231  19.935  0.00  0.00    +0.000 A 
ATOM      2  C   UNL     1       1.311   9.469  19.215  0.00  0.00    +0.000 A 
ATOM      3  C   UNL     1       1.835   9.422  17.895  0.00  0.00    +0.000 A 
ATOM      4  C   UNL     1       2.621   8.369  17.373  0.00  0.00    +0.000 A 
ATOM      5  C   UNL     1       2.950   7.244  18.128  0.00  0.00    +0.000 A 
ATOM      6  C   UNL     1       2.336   7.092  19.382  0.00  0.00    +0.000 A 
ATOM      7  C   UNL     1       2.548   5.718  20.088  0.00  0.00    +0.000 C 
ATOM      8  C   UNL     1       1.252   4.986  20.490  0.00  0.00    +0.000 C 
ATOM      9  N   UNL     1       3.221   4.653  19.275  0.00  0.00    +0.000 NA
ATOM     10  C   UNL     1       4.357   5.106  18.486  0.00  0.00    +0.000 C 
ATOM     11  C   UNL     1       5.571   5.412  19.363  0.00  0.00    +0.000 C 
ATOM     12  C   UNL     1       3.917   6.228  17.540  0.00  0.00    +0.000 C 
ATOM     13  H   UNL     1       2.537   4.250  18.632  0.00  0.00    +0.000 HD
ENDROOT
BRANCH   2  14
ATOM     14  C   UNL     1       0.373  10.709  19.481  0.00  0.00    +0.000 A 
ATOM     15  C   UNL     1      -0.877  10.630  18.814  0.00  0.00    +0.000 A 
ATOM     16  C   UNL     1      -1.813   9.461  18.998  0.00  0.00    +0.000 C 
ATOM     17  C   UNL     1      -1.478  11.805  18.408  0.00  0.00    +0.000 A 
ATOM     18  C   UNL     1      -1.751  12.563  19.478  0.00  0.00    +0.000 A 
ATOM     19  C   UNL     1      -0.676  12.834  20.322  0.00  0.00    +0.000 A 
ATOM     20  C   UNL     1      -0.780  13.992  21.141  0.00  0.00    +0.000 A 
ATOM     21  C   UNL     1       0.340  14.601  21.637  0.00  0.00    +0.000 A 
ATOM     22  C   UNL     1       1.569  14.013  21.372  0.00  0.00    +0.000 A 
ATOM     23  C   UNL     1       1.669  12.731  20.725  0.00  0.00    +0.000 A 
ATOM     24  C   UNL     1       0.536  12.040  20.176  0.00  0.00    +0.000 A 
BRANCH  18  25
ATOM     25  O   UNL     1      -3.018  13.025  19.749  0.00  0.00    +0.000 OA
ATOM     26  C   UNL     1      -4.081  12.231  19.255  0.00  0.00    +0.000 C 
ENDBRANCH  18  25
BRANCH  20  27
ATOM     27  O   UNL     1      -1.961  14.626  21.414  0.00  0.00    +0.000 OA
ATOM     28  H   UNL     1      -2.425  14.752  20.563  0.00  0.00    +0.000 HD
ENDBRANCH  20  27
ENDBRANCH   2  14
BRANCH   1  30
ATOM     29  C   UNL     1       1.500   9.003  22.159  0.00  0.00    +0.000 C 
ATOM     30  O   UNL     1       1.110   8.008  21.223  0.00  0.00    +0.000 OA
ENDBRANCH   1  30
TORSDOF 4
ENDMDL
