MODEL 1
REMARK VINA RESULT:      -8.1      0.000      0.000
REMARK  Name = 
REMARK  13 active torsions:
REMARK  status: ('A' for Active; 'I' for Inactive)
REMARK    1  A    between atoms: C_1  and  O_2
REMARK    2  A    between atoms: O_2  and  C_3
REMARK    3  A    between atoms: C_3  and  C_5
REMARK    4  A    between atoms: N_7  and  C_8
REMARK    5  A    between atoms: C_8  and  C_9
REMARK    6  A    between atoms: C_18  and  C_19
REMARK    7  A    between atoms: C_19  and  C_20
REMARK    8  A    between atoms: C_20  and  C_21
REMARK    9  A    between atoms: C_21  and  C_23
REMARK   10  A    between atoms: C_26  and  O_27
REMARK   11  A    between atoms: O_27  and  C_28
REMARK   12  A    between atoms: C_29  and  O_30
REMARK   13  A    between atoms: O_30  and  C_31
REMARK                            x       y       z     vdW  Elec       q    Type
REMARK                         _______ _______ _______ _____ _____    ______ ____
ROOT
ATOM      1  C   UNL     1       0.931   9.392  20.595  0.00  0.00    +0.000 A 
ATOM      2  C   UNL     1       0.350  10.581  20.131  0.00  0.00    +0.000 A 
ATOM      3  N   UNL     1       0.379  10.914  18.819  0.00  0.00    +0.000 N 
ATOM      4  C   UNL     1       1.008  10.120  17.928  0.00  0.00    +0.000 A 
ATOM      5  C   UNL     1       1.609   8.940  18.342  0.00  0.00    +0.000 A 
ATOM      6  C   UNL     1       1.552   8.529  19.683  0.00  0.00    +0.000 A 
ENDROOT
BRANCH   1   7
ATOM      7  C   UNL     1       0.885   9.237  22.067  0.00  0.00    +0.000 C 
ATOM      8  O   UNL     1       1.898   9.357  22.736  0.00  0.00    +0.000 OA
BRANCH   7  10
ATOM      9  C   UNL     1      -0.934  10.099  23.281  0.00  0.00    +0.000 C 
ATOM     10  O   UNL     1      -0.365   9.026  22.519  0.00  0.00    +0.000 OA
ENDBRANCH   7  10
ENDBRANCH   1   7
BRANCH   3  11
ATOM     11  C   UNL     1      -0.299  12.150  18.348  0.00  0.00    +0.000 C 
BRANCH  11  12
ATOM     12  C   UNL     1      -1.735  11.841  18.008  0.00  0.00    +0.000 A 
ATOM     13  C   UNL     1      -2.748  12.002  18.966  0.00  0.00    +0.000 A 
ATOM     14  C   UNL     1      -4.059  11.609  18.686  0.00  0.00    +0.000 A 
ATOM     15  C   UNL     1      -4.375  11.051  17.447  0.00  0.00    +0.000 A 
ATOM     16  C   UNL     1      -3.384  10.916  16.481  0.00  0.00    +0.000 A 
ATOM     17 CL   UNL     1      -3.762  10.231  14.951  0.00  0.00    +0.000 Cl
ATOM     18  C   UNL     1      -2.073  11.314  16.750  0.00  0.00    +0.000 A 
ENDBRANCH  11  12
ENDBRANCH   3  11
BRANCH   6  19
ATOM     19  C   UNL     1       2.171   7.190  20.020  0.00  0.00    +0.000 C 
BRANCH  19  20
ATOM     20  C   UNL     1       2.407   6.260  18.822  0.00  0.00    +0.000 C 
BRANCH  20  21
ATOM     21  C   UNL     1       3.626   5.348  18.916  0.00  0.00    +0.000 C 
ATOM     22  O   UNL     1       3.854   4.640  19.891  0.00  0.00    +0.000 OA
BRANCH  21  23
ATOM     23  C   UNL     1       4.589   5.341  17.772  0.00  0.00    +0.000 A 
ATOM     24  C   UNL     1       4.446   4.456  16.699  0.00  0.00    +0.000 A 
ATOM     25  C   UNL     1       5.397   4.432  15.677  0.00  0.00    +0.000 A 
ATOM     26  C   UNL     1       6.502   5.287  15.714  0.00  0.00    +0.000 A 
ATOM     27  C   UNL     1       6.637   6.204  16.777  0.00  0.00    +0.000 A 
ATOM     28  C   UNL     1       5.675   6.230  17.794  0.00  0.00    +0.000 A 
BRANCH  26  29
ATOM     29  O   UNL     1       7.493   5.299  14.766  0.00  0.00    +0.000 OA
ATOM     30  C   UNL     1       7.214   4.687  13.515  0.00  0.00    +0.000 C 
ENDBRANCH  26  29
BRANCH  27  31
ATOM     31  O   UNL     1       7.744   7.014  16.737  0.00  0.00    +0.000 OA
ATOM     32  C   UNL     1       7.789   8.126  17.618  0.00  0.00    +0.000 C 
ENDBRANCH  27  31
ENDBRANCH  21  23
ENDBRANCH  20  21
ENDBRANCH  19  20
ENDBRANCH   6  19
TORSDOF 10
ENDMDL
MODEL 2
REMARK VINA RESULT:      -7.8      3.762      9.414
REMARK  Name = 
REMARK  13 active torsions:
REMARK  status: ('A' for Active; 'I' for Inactive)
REMARK    1  A    between atoms: C_1  and  O_2
REMARK    2  A    between atoms: O_2  and  C_3
REMARK    3  A    between atoms: C_3  and  C_5
REMARK    4  A    between atoms: N_7  and  C_8
REMARK    5  A    between atoms: C_8  and  C_9
REMARK    6  A    between atoms: C_18  and  C_19
REMARK    7  A    between atoms: C_19  and  C_20
REMARK    8  A    between atoms: C_20  and  C_21
REMARK    9  A    between atoms: C_21  and  C_23
REMARK   10  A    between atoms: C_26  and  O_27
REMARK   11  A    between atoms: O_27  and  C_28
REMARK   12  A    between atoms: C_29  and  O_30
REMARK   13  A    between atoms: O_30  and  C_31
REMARK                            x       y       z     vdW  Elec       q    Type
REMARK                         _______ _______ _______ _____ _____    ______ ____
ROOT
ATOM      1  C   UNL     1       2.937   5.827  18.987  0.00  0.00    +0.000 A 
ATOM      2  C   UNL     1       4.068   5.105  18.581  0.00  0.00    +0.000 A 
ATOM      3  N   UNL     1       4.974   5.637  17.727  0.00  0.00    +0.000 N 
ATOM      4  C   UNL     1       4.783   6.869  17.211  0.00  0.00    +0.000 A 
ATOM      5  C   UNL     1       3.672   7.616  17.572  0.00  0.00    +0.000 A 
ATOM      6  C   UNL     1       2.739   7.126  18.500  0.00  0.00    +0.000 A 
ENDROOT
BRANCH   1   7
ATOM      7  C   UNL     1       2.011   5.057  19.850  0.00  0.00    +0.000 C 
ATOM      8  O   UNL     1       1.945   5.284  21.047  0.00  0.00    +0.000 OA
BRANCH   7  10
ATOM      9  C   UNL     1       0.951   2.960  19.821  0.00  0.00    +0.000 C 
ATOM     10  O   UNL     1       1.265   4.185  19.147  0.00  0.00    +0.000 OA
ENDBRANCH   7  10
ENDBRANCH   1   7
BRANCH   3  11
ATOM     11  C   UNL     1       6.195   4.872  17.363  0.00  0.00    +0.000 C 
BRANCH  11  12
ATOM     12  C   UNL     1       6.244   4.677  15.869  0.00  0.00    +0.000 A 
ATOM     13  C   UNL     1       5.339   3.817  15.229  0.00  0.00    +0.000 A 
ATOM     14  C   UNL     1       5.458   3.551  13.862  0.00  0.00    +0.000 A 
ATOM     15  C   UNL     1       6.481   4.140  13.119  0.00  0.00    +0.000 A 
ATOM     16  C   UNL     1       7.364   5.017  13.739  0.00  0.00    +0.000 A 
ATOM     17 CL   UNL     1       8.627   5.749  12.832  0.00  0.00    +0.000 Cl
ATOM     18  C   UNL     1       7.247   5.295  15.101  0.00  0.00    +0.000 A 
ENDBRANCH  11  12
ENDBRANCH   3  11
BRANCH   6  19
ATOM     19  C   UNL     1       1.603   8.047  18.887  0.00  0.00    +0.000 C 
BRANCH  19  20
ATOM     20  C   UNL     1       1.475   9.319  18.037  0.00  0.00    +0.000 C 
BRANCH  20  21
ATOM     21  C   UNL     1       0.747  10.489  18.692  0.00  0.00    +0.000 C 
ATOM     22  O   UNL     1       1.298  11.266  19.465  0.00  0.00    +0.000 OA
BRANCH  21  23
ATOM     23  C   UNL     1      -0.705  10.673  18.388  0.00  0.00    +0.000 A 
ATOM     24  C   UNL     1      -1.536  11.436  19.213  0.00  0.00    +0.000 A 
ATOM     25  C   UNL     1      -2.901  11.536  18.936  0.00  0.00    +0.000 A 
ATOM     26  C   UNL     1      -3.453  10.875  17.835  0.00  0.00    +0.000 A 
ATOM     27  C   UNL     1      -2.616  10.129  16.980  0.00  0.00    +0.000 A 
ATOM     28  C   UNL     1      -1.246  10.040  17.258  0.00  0.00    +0.000 A 
BRANCH  26  29
ATOM     29  O   UNL     1      -4.786  10.900  17.517  0.00  0.00    +0.000 OA
ATOM     30  C   UNL     1      -5.340  12.140  17.098  0.00  0.00    +0.000 C 
ENDBRANCH  26  29
BRANCH  27  31
ATOM     31  O   UNL     1      -3.232   9.517  15.918  0.00  0.00    +0.000 OA
ATOM     32  C   UNL     1      -3.104  10.115  14.637  0.00  0.00    +0.000 C 
ENDBRANCH  27  31
ENDBRANCH  21  23
ENDBRANCH  20  21
ENDBRANCH  19  20
ENDBRANCH   6  19
TORSDOF 10
ENDMDL
MODEL 3
REMARK VINA RESULT:      -7.6      4.102      9.452
REMARK  Name = 
REMARK  13 active torsions:
REMARK  status: ('A' for Active; 'I' for Inactive)
REMARK    1  A    between atoms: C_1  and  O_2
REMARK    2  A    between atoms: O_2  and  C_3
REMARK    3  A    between atoms: C_3  and  C_5
REMARK    4  A    between atoms: N_7  and  C_8
REMARK    5  A    between atoms: C_8  and  C_9
REMARK    6  A    between atoms: C_18  and  C_19
REMARK    7  A    between atoms: C_19  and  C_20
REMARK    8  A    between atoms: C_20  and  C_21
REMARK    9  A    between atoms: C_21  and  C_23
REMARK   10  A    between atoms: C_26  and  O_27
REMARK   11  A    between atoms: O_27  and  C_28
REMARK   12  A    between atoms: C_29  and  O_30
REMARK   13  A    between atoms: O_30  and  C_31
REMARK                            x       y       z     vdW  Elec       q    Type
REMARK                         _______ _______ _______ _____ _____    ______ ____
ROOT
ATOM      1  C   UNL     1       0.968   8.832  20.224  0.00  0.00    +0.000 A 
ATOM      2  C   UNL     1       1.827   7.757  19.955  0.00  0.00    +0.000 A 
ATOM      3  N   UNL     1       2.498   7.668  18.782  0.00  0.00    +0.000 N 
ATOM      4  C   UNL     1       2.321   8.600  17.823  0.00  0.00    +0.000 A 
ATOM      5  C   UNL     1       1.471   9.674  18.037  0.00  0.00    +0.000 A 
ATOM      6  C   UNL     1       0.801   9.836  19.260  0.00  0.00    +0.000 A 
ENDROOT
BRANCH   1   7
ATOM      7  C   UNL     1       0.250   8.719  21.514  0.00  0.00    +0.000 C 
ATOM      8  O   UNL     1      -0.696   7.958  21.634  0.00  0.00    +0.000 OA
BRANCH   7  10
ATOM      9  C   UNL     1      -0.004   9.693  23.638  0.00  0.00    +0.000 C 
ATOM     10  O   UNL     1       0.807   9.478  22.475  0.00  0.00    +0.000 OA
ENDBRANCH   7  10
ENDBRANCH   1   7
BRANCH   3  11
ATOM     11  C   UNL     1       3.449   6.550  18.551  0.00  0.00    +0.000 C 
BRANCH  11  12
ATOM     12  C   UNL     1       2.755   5.235  18.801  0.00  0.00    +0.000 A 
ATOM     13  C   UNL     1       1.902   4.680  17.835  0.00  0.00    +0.000 A 
ATOM     14  C   UNL     1       1.173   3.521  18.113  0.00  0.00    +0.000 A 
ATOM     15  C   UNL     1       1.285   2.903  19.359  0.00  0.00    +0.000 A 
ATOM     16  C   UNL     1       2.151   3.429  20.312  0.00  0.00    +0.000 A 
ATOM     17 CL   UNL     1       2.298   2.675  21.849  0.00  0.00    +0.000 Cl
ATOM     18  C   UNL     1       2.889   4.581  20.039  0.00  0.00    +0.000 A 
ENDBRANCH  11  12
ENDBRANCH   3  11
BRANCH   6  19
ATOM     19  C   UNL     1      -0.043  11.081  19.424  0.00  0.00    +0.000 C 
BRANCH  19  20
ATOM     20  C   UNL     1      -0.765  11.553  18.153  0.00  0.00    +0.000 C 
BRANCH  20  21
ATOM     21  C   UNL     1      -1.964  10.716  17.719  0.00  0.00    +0.000 C 
ATOM     22  O   UNL     1      -1.858   9.714  17.019  0.00  0.00    +0.000 OA
BRANCH  21  23
ATOM     23  C   UNL     1      -3.325  11.159  18.154  0.00  0.00    +0.000 A 
ATOM     24  C   UNL     1      -4.479  10.750  17.478  0.00  0.00    +0.000 A 
ATOM     25  C   UNL     1      -5.729  11.231  17.871  0.00  0.00    +0.000 A 
ATOM     26  C   UNL     1      -5.843  12.126  18.938  0.00  0.00    +0.000 A 
ATOM     27  C   UNL     1      -4.687  12.518  19.644  0.00  0.00    +0.000 A 
ATOM     28  C   UNL     1      -3.437  12.025  19.252  0.00  0.00    +0.000 A 
BRANCH  26  29
ATOM     29  O   UNL     1      -7.031  12.666  19.361  0.00  0.00    +0.000 OA
ATOM     30  C   UNL     1      -7.784  13.419  18.420  0.00  0.00    +0.000 C 
ENDBRANCH  26  29
BRANCH  27  31
ATOM     31  O   UNL     1      -4.884  13.393  20.683  0.00  0.00    +0.000 OA
ATOM     32  C   UNL     1      -4.655  12.922  22.003  0.00  0.00    +0.000 C 
ENDBRANCH  27  31
ENDBRANCH  21  23
ENDBRANCH  20  21
ENDBRANCH  19  20
ENDBRANCH   6  19
TORSDOF 10
ENDMDL
MODEL 4
REMARK VINA RESULT:      -7.6      3.436      9.581
REMARK  Name = 
REMARK  13 active torsions:
REMARK  status: ('A' for Active; 'I' for Inactive)
REMARK    1  A    between atoms: C_1  and  O_2
REMARK    2  A    between atoms: O_2  and  C_3
REMARK    3  A    between atoms: C_3  and  C_5
REMARK    4  A    between atoms: N_7  and  C_8
REMARK    5  A    between atoms: C_8  and  C_9
REMARK    6  A    between atoms: C_18  and  C_19
REMARK    7  A    between atoms: C_19  and  C_20
REMARK    8  A    between atoms: C_20  and  C_21
REMARK    9  A    between atoms: C_21  and  C_23
REMARK   10  A    between atoms: C_26  and  O_27
REMARK   11  A    between atoms: O_27  and  C_28
REMARK   12  A    between atoms: C_29  and  O_30
REMARK   13  A    between atoms: O_30  and  C_31
REMARK                            x       y       z     vdW  Elec       q    Type
REMARK                         _______ _______ _______ _____ _____    ______ ____
ROOT
ATOM      1  C   UNL     1       3.649   4.459  17.737  0.00  0.00    +0.000 A 
ATOM      2  C   UNL     1       4.890   4.044  17.232  0.00  0.00    +0.000 A 
ATOM      3  N   UNL     1       5.779   4.933  16.731  0.00  0.00    +0.000 N 
ATOM      4  C   UNL     1       5.470   6.245  16.667  0.00  0.00    +0.000 A 
ATOM      5  C   UNL     1       4.249   6.701  17.142  0.00  0.00    +0.000 A 
ATOM      6  C   UNL     1       3.322   5.821  17.723  0.00  0.00    +0.000 A 
ENDROOT
BRANCH   1   7
ATOM      7  C   UNL     1       2.770   3.345  18.160  0.00  0.00    +0.000 C 
ATOM      8  O   UNL     1       2.528   2.421  17.399  0.00  0.00    +0.000 OA
BRANCH   7  10
ATOM      9  C   UNL     1       3.170   2.775  20.405  0.00  0.00    +0.000 C 
ATOM     10  O   UNL     1       2.369   3.468  19.438  0.00  0.00    +0.000 OA
ENDBRANCH   7  10
ENDBRANCH   1   7
BRANCH   3  11
ATOM     11  C   UNL     1       7.111   4.471  16.260  0.00  0.00    +0.000 C 
BRANCH  11  12
ATOM     12  C   UNL     1       7.136   4.450  14.753  0.00  0.00    +0.000 A 
ATOM     13  C   UNL     1       7.965   5.327  14.038  0.00  0.00    +0.000 A 
ATOM     14  C   UNL     1       7.903   5.385  12.643  0.00  0.00    +0.000 A 
ATOM     15  C   UNL     1       7.014   4.568  11.946  0.00  0.00    +0.000 A 
ATOM     16  C   UNL     1       6.210   3.673  12.644  0.00  0.00    +0.000 A 
ATOM     17 CL   UNL     1       5.111   2.661  11.794  0.00  0.00    +0.000 Cl
ATOM     18  C   UNL     1       6.272   3.603  14.036  0.00  0.00    +0.000 A 
ENDBRANCH  11  12
ENDBRANCH   3  11
BRANCH   6  19
ATOM     19  C   UNL     1       2.053   6.428  18.280  0.00  0.00    +0.000 C 
BRANCH  19  20
ATOM     20  C   UNL     1       2.229   7.783  18.978  0.00  0.00    +0.000 C 
BRANCH  20  21
ATOM     21  C   UNL     1       1.670   8.993  18.236  0.00  0.00    +0.000 C 
ATOM     22  O   UNL     1       2.060   9.328  17.122  0.00  0.00    +0.000 OA
BRANCH  21  23
ATOM     23  C   UNL     1       0.617   9.810  18.914  0.00  0.00    +0.000 A 
ATOM     24  C   UNL     1      -0.487  10.307  18.215  0.00  0.00    +0.000 A 
ATOM     25  C   UNL     1      -1.420  11.119  18.863  0.00  0.00    +0.000 A 
ATOM     26  C   UNL     1      -1.262  11.446  20.213  0.00  0.00    +0.000 A 
ATOM     27  C   UNL     1      -0.169  10.921  20.932  0.00  0.00    +0.000 A 
ATOM     28  C   UNL     1       0.759  10.100  20.279  0.00  0.00    +0.000 A 
BRANCH  26  29
ATOM     29  O   UNL     1      -2.118  12.261  20.909  0.00  0.00    +0.000 OA
ATOM     30  C   UNL     1      -3.255  12.762  20.220  0.00  0.00    +0.000 C 
ENDBRANCH  26  29
BRANCH  27  31
ATOM     31  O   UNL     1      -0.089  11.282  22.254  0.00  0.00    +0.000 OA
ATOM     32  C   UNL     1      -0.959  10.640  23.174  0.00  0.00    +0.000 C 
ENDBRANCH  27  31
ENDBRANCH  21  23
ENDBRANCH  20  21
ENDBRANCH  19  20
ENDBRANCH   6  19
TORSDOF 10
ENDMDL
MODEL 5
REMARK VINA RESULT:      -7.6      2.479      3.778
REMARK  Name = 
REMARK  13 active torsions:
REMARK  status: ('A' for Active; 'I' for Inactive)
REMARK    1  A    between atoms: C_1  and  O_2
REMARK    2  A    between atoms: O_2  and  C_3
REMARK    3  A    between atoms: C_3  and  C_5
REMARK    4  A    between atoms: N_7  and  C_8
REMARK    5  A    between atoms: C_8  and  C_9
REMARK    6  A    between atoms: C_18  and  C_19
REMARK    7  A    between atoms: C_19  and  C_20
REMARK    8  A    between atoms: C_20  and  C_21
REMARK    9  A    between atoms: C_21  and  C_23
REMARK   10  A    between atoms: C_26  and  O_27
REMARK   11  A    between atoms: O_27  and  C_28
REMARK   12  A    between atoms: C_29  and  O_30
REMARK   13  A    between atoms: O_30  and  C_31
REMARK                            x       y       z     vdW  Elec       q    Type
REMARK                         _______ _______ _______ _____ _____    ______ ____
ROOT
ATOM      1  C   UNL     1       1.844   5.433  19.482  0.00  0.00    +0.000 A 
ATOM      2  C   UNL     1       1.889   6.774  19.889  0.00  0.00    +0.000 A 
ATOM      3  N   UNL     1       2.332   7.748  19.059  0.00  0.00    +0.000 N 
ATOM      4  C   UNL     1       2.782   7.439  17.825  0.00  0.00    +0.000 A 
ATOM      5  C   UNL     1       2.770   6.125  17.383  0.00  0.00    +0.000 A 
ATOM      6  C   UNL     1       2.265   5.093  18.189  0.00  0.00    +0.000 A 
ENDROOT
BRANCH   1   7
ATOM      7  C   UNL     1       1.419   4.496  20.546  0.00  0.00    +0.000 C 
ATOM      8  O   UNL     1       0.283   4.049  20.564  0.00  0.00    +0.000 OA
BRANCH   7  10
ATOM      9  C   UNL     1       2.582   2.790  21.670  0.00  0.00    +0.000 C 
ATOM     10  O   UNL     1       2.425   4.187  21.385  0.00  0.00    +0.000 OA
ENDBRANCH   7  10
ENDBRANCH   1   7
BRANCH   3  11
ATOM     11  C   UNL     1       2.309   9.168  19.497  0.00  0.00    +0.000 C 
BRANCH  11  12
ATOM     12  C   UNL     1       0.911   9.715  19.368  0.00  0.00    +0.000 A 
ATOM     13  C   UNL     1       0.248   9.702  18.132  0.00  0.00    +0.000 A 
ATOM     14  C   UNL     1      -1.002  10.311  17.989  0.00  0.00    +0.000 A 
ATOM     15  C   UNL     1      -1.604  10.940  19.078  0.00  0.00    +0.000 A 
ATOM     16  C   UNL     1      -0.968  10.932  20.316  0.00  0.00    +0.000 A 
ATOM     17 CL   UNL     1      -1.702  11.703  21.665  0.00  0.00    +0.000 Cl
ATOM     18  C   UNL     1       0.276  10.318  20.468  0.00  0.00    +0.000 A 
ENDBRANCH  11  12
ENDBRANCH   3  11
BRANCH   6  19
ATOM     19  C   UNL     1       2.223   3.705  17.586  0.00  0.00    +0.000 C 
BRANCH  19  20
ATOM     20  C   UNL     1       3.377   2.780  17.998  0.00  0.00    +0.000 C 
BRANCH  20  21
ATOM     21  C   UNL     1       4.706   3.466  18.302  0.00  0.00    +0.000 C 
ATOM     22  O   UNL     1       5.149   3.584  19.439  0.00  0.00    +0.000 OA
BRANCH  21  23
ATOM     23  C   UNL     1       5.482   4.034  17.156  0.00  0.00    +0.000 A 
ATOM     24  C   UNL     1       5.469   3.433  15.894  0.00  0.00    +0.000 A 
ATOM     25  C   UNL     1       6.255   3.951  14.862  0.00  0.00    +0.000 A 
ATOM     26  C   UNL     1       7.063   5.071  15.078  0.00  0.00    +0.000 A 
ATOM     27  C   UNL     1       7.056   5.701  16.339  0.00  0.00    +0.000 A 
ATOM     28  C   UNL     1       6.260   5.183  17.368  0.00  0.00    +0.000 A 
BRANCH  26  29
ATOM     29  O   UNL     1       7.884   5.618  14.125  0.00  0.00    +0.000 OA
ATOM     30  C   UNL     1       7.742   5.154  12.789  0.00  0.00    +0.000 C 
ENDBRANCH  26  29
BRANCH  27  31
ATOM     31  O   UNL     1       7.870   6.799  16.469  0.00  0.00    +0.000 OA
ATOM     32  C   UNL     1       7.663   7.655  17.582  0.00  0.00    +0.000 C 
ENDBRANCH  27  31
ENDBRANCH  21  23
ENDBRANCH  20  21
ENDBRANCH  19  20
ENDBRANCH   6  19
TORSDOF 10
ENDMDL
MODEL 6
REMARK VINA RESULT:      -7.5      2.074      2.934
REMARK  Name = 
REMARK  13 active torsions:
REMARK  status: ('A' for Active; 'I' for Inactive)
REMARK    1  A    between atoms: C_1  and  O_2
REMARK    2  A    between atoms: O_2  and  C_3
REMARK    3  A    between atoms: C_3  and  C_5
REMARK    4  A    between atoms: N_7  and  C_8
REMARK    5  A    between atoms: C_8  and  C_9
REMARK    6  A    between atoms: C_18  and  C_19
REMARK    7  A    between atoms: C_19  and  C_20
REMARK    8  A    between atoms: C_20  and  C_21
REMARK    9  A    between atoms: C_21  and  C_23
REMARK   10  A    between atoms: C_26  and  O_27
REMARK   11  A    between atoms: O_27  and  C_28
REMARK   12  A    between atoms: C_29  and  O_30
REMARK   13  A    between atoms: O_30  and  C_31
REMARK                            x       y       z     vdW  Elec       q    Type
REMARK                         _______ _______ _______ _____ _____    ______ ____
ROOT
ATOM      1  C   UNL     1       1.255   9.320  19.225  0.00  0.00    +0.000 A 
ATOM      2  C   UNL     1       0.434  10.451  19.110  0.00  0.00    +0.000 A 
ATOM      3  N   UNL     1      -0.442  10.789  20.086  0.00  0.00    +0.000 N 
ATOM      4  C   UNL     1      -0.574  10.013  21.182  0.00  0.00    +0.000 A 
ATOM      5  C   UNL     1       0.207   8.877  21.334  0.00  0.00    +0.000 A 
ATOM      6  C   UNL     1       1.168   8.523  20.374  0.00  0.00    +0.000 A 
ENDROOT
BRANCH   1   7
ATOM      7  C   UNL     1       2.083   9.055  18.027  0.00  0.00    +0.000 C 
ATOM      8  O   UNL     1       2.471   9.974  17.324  0.00  0.00    +0.000 OA
BRANCH   7  10
ATOM      9  C   UNL     1       3.704   7.459  17.435  0.00  0.00    +0.000 C 
ATOM     10  O   UNL     1       2.374   7.749  17.888  0.00  0.00    +0.000 OA
ENDBRANCH   7  10
ENDBRANCH   1   7
BRANCH   3  11
ATOM     11  C   UNL     1      -1.254  12.027  19.963  0.00  0.00    +0.000 C 
BRANCH  11  12
ATOM     12  C   UNL     1      -2.396  11.791  19.007  0.00  0.00    +0.000 A 
ATOM     13  C   UNL     1      -3.711  12.122  19.366  0.00  0.00    +0.000 A 
ATOM     14  C   UNL     1      -4.780  11.799  18.525  0.00  0.00    +0.000 A 
ATOM     15  C   UNL     1      -4.548  11.141  17.317  0.00  0.00    +0.000 A 
ATOM     16  C   UNL     1      -3.245  10.836  16.939  0.00  0.00    +0.000 A 
ATOM     17 CL   UNL     1      -2.948  10.027  15.452  0.00  0.00    +0.000 Cl
ATOM     18  C   UNL     1      -2.172  11.163  17.769  0.00  0.00    +0.000 A 
ENDBRANCH  11  12
ENDBRANCH   3  11
BRANCH   6  19
ATOM     19  C   UNL     1       2.023   7.309  20.670  0.00  0.00    +0.000 C 
BRANCH  19  20
ATOM     20  C   UNL     1       1.275   5.969  20.670  0.00  0.00    +0.000 C 
BRANCH  20  21
ATOM     21  C   UNL     1       2.148   4.718  20.669  0.00  0.00    +0.000 C 
ATOM     22  O   UNL     1       2.193   3.936  21.613  0.00  0.00    +0.000 OA
BRANCH  21  23
ATOM     23  C   UNL     1       2.998   4.455  19.466  0.00  0.00    +0.000 A 
ATOM     24  C   UNL     1       2.441   4.040  18.253  0.00  0.00    +0.000 A 
ATOM     25  C   UNL     1       3.267   3.742  17.167  0.00  0.00    +0.000 A 
ATOM     26  C   UNL     1       4.656   3.852  17.280  0.00  0.00    +0.000 A 
ATOM     27  C   UNL     1       5.222   4.301  18.490  0.00  0.00    +0.000 A 
ATOM     28  C   UNL     1       4.389   4.607  19.573  0.00  0.00    +0.000 A 
BRANCH  26  29
ATOM     29  O   UNL     1       5.532   3.548  16.270  0.00  0.00    +0.000 OA
ATOM     30  C   UNL     1       5.527   4.383  15.120  0.00  0.00    +0.000 C 
ENDBRANCH  26  29
BRANCH  27  31
ATOM     31  O   UNL     1       6.591   4.390  18.518  0.00  0.00    +0.000 OA
ATOM     32  C   UNL     1       7.172   5.626  18.905  0.00  0.00    +0.000 C 
ENDBRANCH  27  31
ENDBRANCH  21  23
ENDBRANCH  20  21
ENDBRANCH  19  20
ENDBRANCH   6  19
TORSDOF 10
ENDMDL
MODEL 7
REMARK VINA RESULT:      -7.5      3.535      9.518
REMARK  Name = 
REMARK  13 active torsions:
REMARK  status: ('A' for Active; 'I' for Inactive)
REMARK    1  A    between atoms: C_1  and  O_2
REMARK    2  A    between atoms: O_2  and  C_3
REMARK    3  A    between atoms: C_3  and  C_5
REMARK    4  A    between atoms: N_7  and  C_8
REMARK    5  A    between atoms: C_8  and  C_9
REMARK    6  A    between atoms: C_18  and  C_19
REMARK    7  A    between atoms: C_19  and  C_20
REMARK    8  A    between atoms: C_20  and  C_21
REMARK    9  A    between atoms: C_21  and  C_23
REMARK   10  A    between atoms: C_26  and  O_27
REMARK   11  A    between atoms: O_27  and  C_28
REMARK   12  A    between atoms: C_29  and  O_30
REMARK   13  A    between atoms: O_30  and  C_31
REMARK                            x       y       z     vdW  Elec       q    Type
REMARK                         _______ _______ _______ _____ _____    ______ ____
ROOT
ATOM      1  C   UNL     1       3.457   5.028  17.823  0.00  0.00    +0.000 A 
ATOM      2  C   UNL     1       4.560   4.357  17.276  0.00  0.00    +0.000 A 
ATOM      3  N   UNL     1       5.643   5.032  16.824  0.00  0.00    +0.000 N 
ATOM      4  C   UNL     1       5.666   6.381  16.854  0.00  0.00    +0.000 A 
ATOM      5  C   UNL     1       4.593   7.090  17.373  0.00  0.00    +0.000 A 
ATOM      6  C   UNL     1       3.476   6.427  17.905  0.00  0.00    +0.000 A 
ENDROOT
BRANCH   1   7
ATOM      7  C   UNL     1       2.330   4.138  18.181  0.00  0.00    +0.000 C 
ATOM      8  O   UNL     1       1.371   4.019  17.434  0.00  0.00    +0.000 OA
BRANCH   7  10
ATOM      9  C   UNL     1       2.000   4.099  20.507  0.00  0.00    +0.000 C 
ATOM     10  O   UNL     1       2.545   3.480  19.335  0.00  0.00    +0.000 OA
ENDBRANCH   7  10
ENDBRANCH   1   7
BRANCH   3  11
ATOM     11  C   UNL     1       6.823   4.290  16.307  0.00  0.00    +0.000 C 
BRANCH  11  12
ATOM     12  C   UNL     1       6.838   4.352  14.801  0.00  0.00    +0.000 A 
ATOM     13  C   UNL     1       7.805   5.111  14.125  0.00  0.00    +0.000 A 
ATOM     14  C   UNL     1       7.749   5.258  12.737  0.00  0.00    +0.000 A 
ATOM     15  C   UNL     1       6.729   4.649  12.007  0.00  0.00    +0.000 A 
ATOM     16  C   UNL     1       5.784   3.869  12.665  0.00  0.00    +0.000 A 
ATOM     17 CL   UNL     1       4.523   3.114  11.775  0.00  0.00    +0.000 Cl
ATOM     18  C   UNL     1       5.837   3.711  14.050  0.00  0.00    +0.000 A 
ENDBRANCH  11  12
ENDBRANCH   3  11
BRANCH   6  19
ATOM     19  C   UNL     1       2.392   7.287  18.518  0.00  0.00    +0.000 C 
BRANCH  19  20
ATOM     20  C   UNL     1       1.689   8.243  17.544  0.00  0.00    +0.000 C 
BRANCH  20  21
ATOM     21  C   UNL     1       1.840   9.731  17.845  0.00  0.00    +0.000 C 
ATOM     22  O   UNL     1       2.838  10.374  17.535  0.00  0.00    +0.000 OA
BRANCH  21  23
ATOM     23  C   UNL     1       0.726  10.419  18.567  0.00  0.00    +0.000 A 
ATOM     24  C   UNL     1       0.947  11.120  19.757  0.00  0.00    +0.000 A 
ATOM     25  C   UNL     1      -0.124  11.698  20.440  0.00  0.00    +0.000 A 
ATOM     26  C   UNL     1      -1.427  11.582  19.947  0.00  0.00    +0.000 A 
ATOM     27  C   UNL     1      -1.653  10.905  18.732  0.00  0.00    +0.000 A 
ATOM     28  C   UNL     1      -0.574  10.335  18.046  0.00  0.00    +0.000 A 
BRANCH  26  29
ATOM     29  O   UNL     1      -2.532  12.095  20.577  0.00  0.00    +0.000 OA
ATOM     30  C   UNL     1      -2.397  12.471  21.941  0.00  0.00    +0.000 C 
ENDBRANCH  26  29
BRANCH  27  31
ATOM     31  O   UNL     1      -2.958  10.842  18.311  0.00  0.00    +0.000 OA
ATOM     32  C   UNL     1      -3.365   9.703  17.567  0.00  0.00    +0.000 C 
ENDBRANCH  27  31
ENDBRANCH  21  23
ENDBRANCH  20  21
ENDBRANCH  19  20
ENDBRANCH   6  19
TORSDOF 10
ENDMDL
MODEL 8
REMARK VINA RESULT:      -7.4      4.229      9.246
REMARK  Name = 
REMARK  13 active torsions:
REMARK  status: ('A' for Active; 'I' for Inactive)
REMARK    1  A    between atoms: C_1  and  O_2
REMARK    2  A    between atoms: O_2  and  C_3
REMARK    3  A    between atoms: C_3  and  C_5
REMARK    4  A    between atoms: N_7  and  C_8
REMARK    5  A    between atoms: C_8  and  C_9
REMARK    6  A    between atoms: C_18  and  C_19
REMARK    7  A    between atoms: C_19  and  C_20
REMARK    8  A    between atoms: C_20  and  C_21
REMARK    9  A    between atoms: C_21  and  C_23
REMARK   10  A    between atoms: C_26  and  O_27
REMARK   11  A    between atoms: O_27  and  C_28
REMARK   12  A    between atoms: C_29  and  O_30
REMARK   13  A    between atoms: O_30  and  C_31
REMARK                            x       y       z     vdW  Elec       q    Type
REMARK                         _______ _______ _______ _____ _____    ______ ____
ROOT
ATOM      1  C   UNL     1       3.081   5.284  17.811  0.00  0.00    +0.000 A 
ATOM      2  C   UNL     1       4.166   4.540  17.324  0.00  0.00    +0.000 A 
ATOM      3  N   UNL     1       5.302   5.144  16.903  0.00  0.00    +0.000 N 
ATOM      4  C   UNL     1       5.400   6.490  16.905  0.00  0.00    +0.000 A 
ATOM      5  C   UNL     1       4.349   7.269  17.365  0.00  0.00    +0.000 A 
ATOM      6  C   UNL     1       3.176   6.682  17.864  0.00  0.00    +0.000 A 
ENDROOT
BRANCH   1   7
ATOM      7  C   UNL     1       1.892   4.467  18.141  0.00  0.00    +0.000 C 
ATOM      8  O   UNL     1       1.004   4.303  17.320  0.00  0.00    +0.000 OA
BRANCH   7  10
ATOM      9  C   UNL     1       1.196   4.568  20.384  0.00  0.00    +0.000 C 
ATOM     10  O   UNL     1       1.973   3.920  19.368  0.00  0.00    +0.000 OA
ENDBRANCH   7  10
ENDBRANCH   1   7
BRANCH   3  11
ATOM     11  C   UNL     1       6.457   4.326  16.451  0.00  0.00    +0.000 C 
BRANCH  11  12
ATOM     12  C   UNL     1       6.543   4.361  14.946  0.00  0.00    +0.000 A 
ATOM     13  C   UNL     1       5.803   3.459  14.166  0.00  0.00    +0.000 A 
ATOM     14  C   UNL     1       5.970   3.418  12.779  0.00  0.00    +0.000 A 
ATOM     15  C   UNL     1       6.877   4.274  12.155  0.00  0.00    +0.000 A 
ATOM     16  C   UNL     1       7.593   5.192  12.917  0.00  0.00    +0.000 A 
ATOM     17 CL   UNL     1       8.712   6.252  12.159  0.00  0.00    +0.000 Cl
ATOM     18  C   UNL     1       7.426   5.245  14.302  0.00  0.00    +0.000 A 
ENDBRANCH  11  12
ENDBRANCH   3  11
BRANCH   6  19
ATOM     19  C   UNL     1       2.118   7.614  18.414  0.00  0.00    +0.000 C 
BRANCH  19  20
ATOM     20  C   UNL     1       2.041   8.988  17.732  0.00  0.00    +0.000 C 
BRANCH  20  21
ATOM     21  C   UNL     1       1.042   9.973  18.329  0.00  0.00    +0.000 C 
ATOM     22  O   UNL     1      -0.152   9.718  18.452  0.00  0.00    +0.000 OA
BRANCH  21  23
ATOM     23  C   UNL     1       1.547  11.313  18.761  0.00  0.00    +0.000 A 
ATOM     24  C   UNL     1       2.413  12.062  17.959  0.00  0.00    +0.000 A 
ATOM     25  C   UNL     1       2.917  13.281  18.418  0.00  0.00    +0.000 A 
ATOM     26  C   UNL     1       2.567  13.764  19.681  0.00  0.00    +0.000 A 
ATOM     27  C   UNL     1       1.669  13.029  20.483  0.00  0.00    +0.000 A 
ATOM     28  C   UNL     1       1.159  11.812  20.013  0.00  0.00    +0.000 A 
BRANCH  26  29
ATOM     29  O   UNL     1       3.045  14.934  20.213  0.00  0.00    +0.000 OA
ATOM     30  C   UNL     1       4.397  14.954  20.651  0.00  0.00    +0.000 C 
ENDBRANCH  26  29
BRANCH  27  31
ATOM     31  O   UNL     1       1.368  13.574  21.706  0.00  0.00    +0.000 OA
ATOM     32  C   UNL     1       0.014  13.903  21.975  0.00  0.00    +0.000 C 
ENDBRANCH  27  31
ENDBRANCH  21  23
ENDBRANCH  20  21
ENDBRANCH  19  20
ENDBRANCH   6  19
TORSDOF 10
ENDMDL
MODEL 9
REMARK VINA RESULT:      -7.4      3.788      9.341
REMARK  Name = 
REMARK  13 active torsions:
REMARK  status: ('A' for Active; 'I' for Inactive)
REMARK    1  A    between atoms: C_1  and  O_2
REMARK    2  A    between atoms: O_2  and  C_3
REMARK    3  A    between atoms: C_3  and  C_5
REMARK    4  A    between atoms: N_7  and  C_8
REMARK    5  A    between atoms: C_8  and  C_9
REMARK    6  A    between atoms: C_18  and  C_19
REMARK    7  A    between atoms: C_19  and  C_20
REMARK    8  A    between atoms: C_20  and  C_21
REMARK    9  A    between atoms: C_21  and  C_23
REMARK   10  A    between atoms: C_26  and  O_27
REMARK   11  A    between atoms: O_27  and  C_28
REMARK   12  A    between atoms: C_29  and  O_30
REMARK   13  A    between atoms: O_30  and  C_31
REMARK                            x       y       z     vdW  Elec       q    Type
REMARK                         _______ _______ _______ _____ _____    ______ ____
ROOT
ATOM      1  C   UNL     1       1.656   8.495  20.392  0.00  0.00    +0.000 A 
ATOM      2  C   UNL     1       1.975   7.132  20.304  0.00  0.00    +0.000 A 
ATOM      3  N   UNL     1       2.322   6.564  19.124  0.00  0.00    +0.000 N 
ATOM      4  C   UNL     1       2.327   7.297  17.991  0.00  0.00    +0.000 A 
ATOM      5  C   UNL     1       2.006   8.645  18.026  0.00  0.00    +0.000 A 
ATOM      6  C   UNL     1       1.698   9.286  19.236  0.00  0.00    +0.000 A 
ENDROOT
BRANCH   1   7
ATOM      7  C   UNL     1       1.215   8.921  21.739  0.00  0.00    +0.000 C 
ATOM      8  O   UNL     1       2.006   9.420  22.523  0.00  0.00    +0.000 OA
BRANCH   7  10
ATOM      9  C   UNL     1      -0.677   9.469  23.022  0.00  0.00    +0.000 C 
ATOM     10  O   UNL     1      -0.107   8.748  21.921  0.00  0.00    +0.000 OA
ENDBRANCH   7  10
ENDBRANCH   1   7
BRANCH   3  11
ATOM     11  C   UNL     1       2.714   5.132  19.073  0.00  0.00    +0.000 C 
BRANCH  11  12
ATOM     12  C   UNL     1       4.073   5.003  18.433  0.00  0.00    +0.000 A 
ATOM     13  C   UNL     1       4.219   4.392  17.179  0.00  0.00    +0.000 A 
ATOM     14  C   UNL     1       5.490   4.171  16.640  0.00  0.00    +0.000 A 
ATOM     15  C   UNL     1       6.629   4.558  17.346  0.00  0.00    +0.000 A 
ATOM     16  C   UNL     1       6.493   5.192  18.577  0.00  0.00    +0.000 A 
ATOM     17 CL   UNL     1       7.889   5.673  19.455  0.00  0.00    +0.000 Cl
ATOM     18  C   UNL     1       5.227   5.423  19.118  0.00  0.00    +0.000 A 
ENDBRANCH  11  12
ENDBRANCH   3  11
BRANCH   6  19
ATOM     19  C   UNL     1       1.437  10.776  19.181  0.00  0.00    +0.000 C 
BRANCH  19  20
ATOM     20  C   UNL     1       0.059  11.217  19.695  0.00  0.00    +0.000 C 
BRANCH  20  21
ATOM     21  C   UNL     1      -0.664  12.262  18.850  0.00  0.00    +0.000 C 
ATOM     22  O   UNL     1      -0.113  13.274  18.429  0.00  0.00    +0.000 OA
BRANCH  21  23
ATOM     23  C   UNL     1      -2.111  12.042  18.547  0.00  0.00    +0.000 A 
ATOM     24  C   UNL     1      -3.107  12.319  19.489  0.00  0.00    +0.000 A 
ATOM     25  C   UNL     1      -4.445  12.043  19.197  0.00  0.00    +0.000 A 
ATOM     26  C   UNL     1      -4.803  11.486  17.967  0.00  0.00    +0.000 A 
ATOM     27  C   UNL     1      -3.808  11.233  17.001  0.00  0.00    +0.000 A 
ATOM     28  C   UNL     1      -2.470  11.521  17.295  0.00  0.00    +0.000 A 
BRANCH  26  29
ATOM     29  O   UNL     1      -6.090  11.159  17.621  0.00  0.00    +0.000 OA
ATOM     30  C   UNL     1      -6.967  10.750  18.661  0.00  0.00    +0.000 C 
ENDBRANCH  26  29
BRANCH  27  31
ATOM     31  O   UNL     1      -4.242  10.693  15.816  0.00  0.00    +0.000 OA
ATOM     32  C   UNL     1      -3.273  10.403  14.820  0.00  0.00    +0.000 C 
ENDBRANCH  27  31
ENDBRANCH  21  23
ENDBRANCH  20  21
ENDBRANCH  19  20
ENDBRANCH   6  19
TORSDOF 10
ENDMDL
