MODEL 1
REMARK VINA RESULT:      -9.3      0.000      0.000
REMARK  Name = 
REMARK  6 active torsions:
REMARK  status: ('A' for Active; 'I' for Inactive)
REMARK    1  A    between atoms: C_2  and  C_11
REMARK    2  A    between atoms: N_3  and  C_4
REMARK    3  A    between atoms: C_4  and  C_5
REMARK    4  A    between atoms: C_17  and  C_18
REMARK    5  A    between atoms: N_20  and  C_21
REMARK    6  A    between atoms: C_25  and  C_26
REMARK                            x       y       z     vdW  Elec       q    Type
REMARK                         _______ _______ _______ _____ _____    ______ ____
ROOT
ATOM      1  C   UNL     1       3.051   3.766  17.742  0.00  0.00    +0.000 C 
ATOM      2  C   UNL     1       2.336   2.390  17.709  0.00  0.00    +0.000 C 
ATOM      3  C   UNL     1       1.050   2.420  18.509  0.00  0.00    +0.000 C 
ATOM      4  C   UNL     1       1.388   2.470  19.806  0.00  0.00    +0.000 C 
ATOM      5  C   UNL     1       2.886   2.577  19.868  0.00  0.00    +0.000 C 
ATOM      6  C   UNL     1       3.191   1.609  18.713  0.00  0.00    +0.000 C 
ATOM      7  C   UNL     1       3.350   3.947  19.278  0.00  0.00    +0.000 C 
ENDROOT
BRANCH   1   9
ATOM      8  O   UNL     1       4.465   3.757  15.798  0.00  0.00    +0.000 OA
ATOM      9  C   UNL     1       4.405   3.809  17.027  0.00  0.00    +0.000 C 
ATOM     10  N   UNL     1       5.524   3.921  17.812  0.00  0.00    +0.000 N 
ATOM     11  H   UNL     1       5.484   3.728  18.801  0.00  0.00    +0.000 HD
BRANCH  10  12
ATOM     12  C   UNL     1       6.825   4.218  17.251  0.00  0.00    +0.000 C 
BRANCH  12  13
ATOM     13  C   UNL     1       7.286   5.599  17.590  0.00  0.00    +0.000 A 
ATOM     14  C   UNL     1       7.901   5.894  18.809  0.00  0.00    +0.000 A 
ATOM     15  C   UNL     1       8.316   7.195  19.072  0.00  0.00    +0.000 A 
ATOM     16  C   UNL     1       8.103   8.161  18.103  0.00  0.00    +0.000 A 
ATOM     17  N   UNL     1       7.519   7.914  16.912  0.00  0.00    +0.000 NA
ATOM     18  C   UNL     1       7.130   6.641  16.680  0.00  0.00    +0.000 A 
ENDBRANCH  12  13
ENDBRANCH  10  12
ENDBRANCH   1   9
BRANCH   7  19
ATOM     19  C   UNL     1       2.702   5.214  19.856  0.00  0.00    +0.000 C 
ATOM     20  O   UNL     1       2.333   5.272  21.025  0.00  0.00    +0.000 OA
ATOM     21  N   UNL     1       2.628   6.259  18.934  0.00  0.00    +0.000 N 
ATOM     22  H   UNL     1       3.042   6.092  18.019  0.00  0.00    +0.000 HD
BRANCH  21  23
ATOM     23  C   UNL     1       2.074   7.552  19.143  0.00  0.00    +0.000 A 
ATOM     24  C   UNL     1       2.015   8.536  18.151  0.00  0.00    +0.000 A 
ATOM     25  C   UNL     1       1.456   9.793  18.412  0.00  0.00    +0.000 A 
ATOM     26  C   UNL     1       0.958  10.091  19.674  0.00  0.00    +0.000 A 
ATOM     27  C   UNL     1       1.009   9.133  20.695  0.00  0.00    +0.000 A 
ATOM     28  C   UNL     1       1.562   7.861  20.413  0.00  0.00    +0.000 A 
BRANCH  27  29
ATOM     29  C   UNL     1       0.486   9.466  22.072  0.00  0.00    +0.000 C 
ATOM     30  F   UNL     1       0.101  10.768  22.209  0.00  0.00    +0.000 F 
ATOM     31  F   UNL     1      -0.601   8.723  22.419  0.00  0.00    +0.000 F 
ATOM     32  F   UNL     1       1.414   9.254  23.048  0.00  0.00    +0.000 F 
ENDBRANCH  27  29
ENDBRANCH  21  23
ENDBRANCH   7  19
TORSDOF 6
ENDMDL
MODEL 2
REMARK VINA RESULT:      -9.2      2.087      2.789
REMARK  Name = 
REMARK  6 active torsions:
REMARK  status: ('A' for Active; 'I' for Inactive)
REMARK    1  A    between atoms: C_2  and  C_11
REMARK    2  A    between atoms: N_3  and  C_4
REMARK    3  A    between atoms: C_4  and  C_5
REMARK    4  A    between atoms: C_17  and  C_18
REMARK    5  A    between atoms: N_20  and  C_21
REMARK    6  A    between atoms: C_25  and  C_26
REMARK                            x       y       z     vdW  Elec       q    Type
REMARK                         _______ _______ _______ _____ _____    ______ ____
ROOT
ATOM      1  C   UNL     1       3.507   4.027  18.133  0.00  0.00    +0.000 C 
ATOM      2  C   UNL     1       3.044   2.570  17.870  0.00  0.00    +0.000 C 
ATOM      3  C   UNL     1       1.598   2.372  18.276  0.00  0.00    +0.000 C 
ATOM      4  C   UNL     1       1.554   2.386  19.616  0.00  0.00    +0.000 C 
ATOM      5  C   UNL     1       2.944   2.695  20.100  0.00  0.00    +0.000 C 
ATOM      6  C   UNL     1       3.696   1.852  19.056  0.00  0.00    +0.000 C 
ATOM      7  C   UNL     1       3.342   4.150  19.694  0.00  0.00    +0.000 C 
ENDROOT
BRANCH   1   9
ATOM      8  O   UNL     1       5.830   4.224  18.719  0.00  0.00    +0.000 OA
ATOM      9  C   UNL     1       4.983   4.301  17.829  0.00  0.00    +0.000 C 
ATOM     10  N   UNL     1       5.307   4.614  16.533  0.00  0.00    +0.000 N 
ATOM     11  H   UNL     1       4.597   4.901  15.877  0.00  0.00    +0.000 HD
BRANCH  10  12
ATOM     12  C   UNL     1       6.681   4.649  16.075  0.00  0.00    +0.000 C 
BRANCH  12  13
ATOM     13  C   UNL     1       6.786   4.490  14.592  0.00  0.00    +0.000 A 
ATOM     14  C   UNL     1       5.978   3.594  13.887  0.00  0.00    +0.000 A 
ATOM     15  C   UNL     1       6.113   3.489  12.506  0.00  0.00    +0.000 A 
ATOM     16  C   UNL     1       7.053   4.287  11.875  0.00  0.00    +0.000 A 
ATOM     17  N   UNL     1       7.846   5.167  12.521  0.00  0.00    +0.000 NA
ATOM     18  C   UNL     1       7.691   5.253  13.861  0.00  0.00    +0.000 A 
ENDBRANCH  12  13
ENDBRANCH  10  12
ENDBRANCH   1   9
BRANCH   7  19
ATOM     19  C   UNL     1       2.377   5.276  20.094  0.00  0.00    +0.000 C 
ATOM     20  O   UNL     1       1.457   5.085  20.884  0.00  0.00    +0.000 OA
ATOM     21  N   UNL     1       2.693   6.501  19.504  0.00  0.00    +0.000 N 
ATOM     22  H   UNL     1       3.530   6.528  18.927  0.00  0.00    +0.000 HD
BRANCH  21  23
ATOM     23  C   UNL     1       1.995   7.731  19.652  0.00  0.00    +0.000 A 
ATOM     24  C   UNL     1       1.835   8.658  18.617  0.00  0.00    +0.000 A 
ATOM     25  C   UNL     1       1.137   9.854  18.818  0.00  0.00    +0.000 A 
ATOM     26  C   UNL     1       0.597  10.151  20.064  0.00  0.00    +0.000 A 
ATOM     27  C   UNL     1       0.746   9.250  21.127  0.00  0.00    +0.000 A 
ATOM     28  C   UNL     1       1.441   8.037  20.905  0.00  0.00    +0.000 A 
BRANCH  27  29
ATOM     29  C   UNL     1       0.176   9.584  22.485  0.00  0.00    +0.000 C 
ATOM     30  F   UNL     1      -0.932   8.854  22.806  0.00  0.00    +0.000 F 
ATOM     31  F   UNL     1       1.062   9.371  23.497  0.00  0.00    +0.000 F 
ATOM     32  F   UNL     1      -0.204  10.889  22.586  0.00  0.00    +0.000 F 
ENDBRANCH  27  29
ENDBRANCH  21  23
ENDBRANCH   7  19
TORSDOF 6
ENDMDL
MODEL 3
REMARK VINA RESULT:      -9.0      0.946      1.195
REMARK  Name = 
REMARK  6 active torsions:
REMARK  status: ('A' for Active; 'I' for Inactive)
REMARK    1  A    between atoms: C_2  and  C_11
REMARK    2  A    between atoms: N_3  and  C_4
REMARK    3  A    between atoms: C_4  and  C_5
REMARK    4  A    between atoms: C_17  and  C_18
REMARK    5  A    between atoms: N_20  and  C_21
REMARK    6  A    between atoms: C_25  and  C_26
REMARK                            x       y       z     vdW  Elec       q    Type
REMARK                         _______ _______ _______ _____ _____    ______ ____
ROOT
ATOM      1  C   UNL     1       3.458   3.687  17.499  0.00  0.00    +0.000 C 
ATOM      2  C   UNL     1       2.948   2.280  17.909  0.00  0.00    +0.000 C 
ATOM      3  C   UNL     1       1.507   2.333  18.374  0.00  0.00    +0.000 C 
ATOM      4  C   UNL     1       1.497   2.937  19.571  0.00  0.00    +0.000 C 
ATOM      5  C   UNL     1       2.906   3.378  19.857  0.00  0.00    +0.000 C 
ATOM      6  C   UNL     1       3.609   2.135  19.284  0.00  0.00    +0.000 C 
ATOM      7  C   UNL     1       3.334   4.490  18.848  0.00  0.00    +0.000 C 
ENDROOT
BRANCH   1   9
ATOM      8  O   UNL     1       5.278   3.450  15.946  0.00  0.00    +0.000 OA
ATOM      9  C   UNL     1       4.933   3.745  17.091  0.00  0.00    +0.000 C 
ATOM     10  N   UNL     1       5.831   4.152  18.045  0.00  0.00    +0.000 N 
ATOM     11  H   UNL     1       5.578   4.162  19.022  0.00  0.00    +0.000 HD
BRANCH  10  12
ATOM     12  C   UNL     1       7.201   4.482  17.716  0.00  0.00    +0.000 C 
BRANCH  12  13
ATOM     13  C   UNL     1       7.475   5.947  17.839  0.00  0.00    +0.000 A 
ATOM     14  C   UNL     1       8.212   6.473  18.903  0.00  0.00    +0.000 A 
ATOM     15  C   UNL     1       8.442   7.844  18.967  0.00  0.00    +0.000 A 
ATOM     16  C   UNL     1       7.927   8.644  17.961  0.00  0.00    +0.000 A 
ATOM     17  N   UNL     1       7.217   8.172  16.915  0.00  0.00    +0.000 NA
ATOM     18  C   UNL     1       7.012   6.837  16.874  0.00  0.00    +0.000 A 
ENDBRANCH  12  13
ENDBRANCH  10  12
ENDBRANCH   1   9
BRANCH   7  19
ATOM     19  C   UNL     1       2.411   5.711  18.719  0.00  0.00    +0.000 C 
ATOM     20  O   UNL     1       1.625   5.828  17.784  0.00  0.00    +0.000 OA
ATOM     21  N   UNL     1       2.545   6.611  19.777  0.00  0.00    +0.000 N 
ATOM     22  H   UNL     1       3.185   6.348  20.523  0.00  0.00    +0.000 HD
BRANCH  21  23
ATOM     23  C   UNL     1       1.853   7.841  19.952  0.00  0.00    +0.000 A 
ATOM     24  C   UNL     1       1.722   8.803  18.945  0.00  0.00    +0.000 A 
ATOM     25  C   UNL     1       1.028   9.998  19.173  0.00  0.00    +0.000 A 
ATOM     26  C   UNL     1       0.465  10.256  20.415  0.00  0.00    +0.000 A 
ATOM     27  C   UNL     1       0.584   9.320  21.451  0.00  0.00    +0.000 A 
ATOM     28  C   UNL     1       1.275   8.109  21.202  0.00  0.00    +0.000 A 
BRANCH  27  29
ATOM     29  C   UNL     1      -0.012   9.611  22.807  0.00  0.00    +0.000 C 
ATOM     30  F   UNL     1       0.832   9.338  23.844  0.00  0.00    +0.000 F 
ATOM     31  F   UNL     1      -0.370  10.916  22.959  0.00  0.00    +0.000 F 
ATOM     32  F   UNL     1      -1.138   8.882  23.050  0.00  0.00    +0.000 F 
ENDBRANCH  27  29
ENDBRANCH  21  23
ENDBRANCH   7  19
TORSDOF 6
ENDMDL
MODEL 4
REMARK VINA RESULT:      -9.0      0.563      1.121
REMARK  Name = 
REMARK  6 active torsions:
REMARK  status: ('A' for Active; 'I' for Inactive)
REMARK    1  A    between atoms: C_2  and  C_11
REMARK    2  A    between atoms: N_3  and  C_4
REMARK    3  A    between atoms: C_4  and  C_5
REMARK    4  A    between atoms: C_17  and  C_18
REMARK    5  A    between atoms: N_20  and  C_21
REMARK    6  A    between atoms: C_25  and  C_26
REMARK                            x       y       z     vdW  Elec       q    Type
REMARK                         _______ _______ _______ _____ _____    ______ ____
ROOT
ATOM      1  C   UNL     1       3.196   3.899  17.849  0.00  0.00    +0.000 C 
ATOM      2  C   UNL     1       2.470   2.533  17.744  0.00  0.00    +0.000 C 
ATOM      3  C   UNL     1       1.150   2.554  18.487  0.00  0.00    +0.000 C 
ATOM      4  C   UNL     1       1.430   2.562  19.798  0.00  0.00    +0.000 C 
ATOM      5  C   UNL     1       2.926   2.650  19.930  0.00  0.00    +0.000 C 
ATOM      6  C   UNL     1       3.271   1.712  18.760  0.00  0.00    +0.000 C 
ATOM      7  C   UNL     1       3.429   4.031  19.401  0.00  0.00    +0.000 C 
ENDROOT
BRANCH   1   9
ATOM      8  O   UNL     1       4.692   3.965  15.969  0.00  0.00    +0.000 OA
ATOM      9  C   UNL     1       4.580   3.947  17.195  0.00  0.00    +0.000 C 
ATOM     10  N   UNL     1       5.667   3.984  18.032  0.00  0.00    +0.000 N 
ATOM     11  H   UNL     1       5.579   3.734  19.006  0.00  0.00    +0.000 HD
BRANCH  10  12
ATOM     12  C   UNL     1       6.998   4.278  17.545  0.00  0.00    +0.000 C 
BRANCH  12  13
ATOM     13  C   UNL     1       7.387   5.702  17.785  0.00  0.00    +0.000 A 
ATOM     14  C   UNL     1       7.003   6.727  16.918  0.00  0.00    +0.000 A 
ATOM     15  C   UNL     1       7.387   8.037  17.191  0.00  0.00    +0.000 A 
ATOM     16  C   UNL     1       8.142   8.276  18.327  0.00  0.00    +0.000 A 
ATOM     17  N   UNL     1       8.525   7.313  19.191  0.00  0.00    +0.000 NA
ATOM     18  C   UNL     1       8.135   6.051  18.905  0.00  0.00    +0.000 A 
ENDBRANCH  12  13
ENDBRANCH  10  12
ENDBRANCH   1   9
BRANCH   7  19
ATOM     19  C   UNL     1       2.769   5.288  19.988  0.00  0.00    +0.000 C 
ATOM     20  O   UNL     1       2.438   5.350  21.168  0.00  0.00    +0.000 OA
ATOM     21  N   UNL     1       2.638   6.320  19.059  0.00  0.00    +0.000 N 
ATOM     22  H   UNL     1       3.024   6.154  18.132  0.00  0.00    +0.000 HD
BRANCH  21  23
ATOM     23  C   UNL     1       2.058   7.601  19.273  0.00  0.00    +0.000 A 
ATOM     24  C   UNL     1       2.066   8.622  18.317  0.00  0.00    +0.000 A 
ATOM     25  C   UNL     1       1.478   9.865  18.582  0.00  0.00    +0.000 A 
ATOM     26  C   UNL     1       0.885  10.113  19.813  0.00  0.00    +0.000 A 
ATOM     27  C   UNL     1       0.866   9.117  20.798  0.00  0.00    +0.000 A 
ATOM     28  C   UNL     1       1.450   7.860  20.511  0.00  0.00    +0.000 A 
BRANCH  27  29
ATOM     29  C   UNL     1       0.239   9.395  22.143  0.00  0.00    +0.000 C 
ATOM     30  F   UNL     1       1.116   9.304  23.184  0.00  0.00    +0.000 F 
ATOM     31  F   UNL     1      -0.304  10.641  22.227  0.00  0.00    +0.000 F 
ATOM     32  F   UNL     1      -0.770   8.525  22.438  0.00  0.00    +0.000 F 
ENDBRANCH  27  29
ENDBRANCH  21  23
ENDBRANCH   7  19
TORSDOF 6
ENDMDL
MODEL 5
REMARK VINA RESULT:      -8.9      2.094      2.742
REMARK  Name = 
REMARK  6 active torsions:
REMARK  status: ('A' for Active; 'I' for Inactive)
REMARK    1  A    between atoms: C_2  and  C_11
REMARK    2  A    between atoms: N_3  and  C_4
REMARK    3  A    between atoms: C_4  and  C_5
REMARK    4  A    between atoms: C_17  and  C_18
REMARK    5  A    between atoms: N_20  and  C_21
REMARK    6  A    between atoms: C_25  and  C_26
REMARK                            x       y       z     vdW  Elec       q    Type
REMARK                         _______ _______ _______ _____ _____    ______ ____
ROOT
ATOM      1  C   UNL     1       3.465   4.203  18.185  0.00  0.00    +0.000 C 
ATOM      2  C   UNL     1       3.134   2.701  17.982  0.00  0.00    +0.000 C 
ATOM      3  C   UNL     1       1.707   2.395  18.389  0.00  0.00    +0.000 C 
ATOM      4  C   UNL     1       1.650   2.462  19.727  0.00  0.00    +0.000 C 
ATOM      5  C   UNL     1       3.003   2.911  20.205  0.00  0.00    +0.000 C 
ATOM      6  C   UNL     1       3.835   2.094  19.202  0.00  0.00    +0.000 C 
ATOM      7  C   UNL     1       3.276   4.377  19.738  0.00  0.00    +0.000 C 
ENDROOT
BRANCH   1   9
ATOM      8  O   UNL     1       5.770   4.569  18.763  0.00  0.00    +0.000 OA
ATOM      9  C   UNL     1       4.915   4.591  17.877  0.00  0.00    +0.000 C 
ATOM     10  N   UNL     1       5.208   4.942  16.584  0.00  0.00    +0.000 N 
ATOM     11  H   UNL     1       4.473   5.182  15.934  0.00  0.00    +0.000 HD
BRANCH  10  12
ATOM     12  C   UNL     1       6.572   5.087  16.120  0.00  0.00    +0.000 C 
BRANCH  12  13
ATOM     13  C   UNL     1       6.714   4.752  14.670  0.00  0.00    +0.000 A 
ATOM     14  C   UNL     1       7.660   5.381  13.856  0.00  0.00    +0.000 A 
ATOM     15  C   UNL     1       7.754   5.027  12.514  0.00  0.00    +0.000 A 
ATOM     16  C   UNL     1       6.899   4.051  12.030  0.00  0.00    +0.000 A 
ATOM     17  N   UNL     1       5.979   3.417  12.786  0.00  0.00    +0.000 NA
ATOM     18  C   UNL     1       5.911   3.776  14.087  0.00  0.00    +0.000 A 
ENDBRANCH  12  13
ENDBRANCH  10  12
ENDBRANCH   1   9
BRANCH   7  19
ATOM     19  C   UNL     1       2.213   5.431  20.084  0.00  0.00    +0.000 C 
ATOM     20  O   UNL     1       1.159   5.126  20.634  0.00  0.00    +0.000 OA
ATOM     21  N   UNL     1       2.600   6.728  19.746  0.00  0.00    +0.000 N 
ATOM     22  H   UNL     1       3.535   6.841  19.361  0.00  0.00    +0.000 HD
BRANCH  21  23
ATOM     23  C   UNL     1       1.846   7.922  19.916  0.00  0.00    +0.000 A 
ATOM     24  C   UNL     1       1.624   8.848  18.891  0.00  0.00    +0.000 A 
ATOM     25  C   UNL     1       0.872  10.007  19.115  0.00  0.00    +0.000 A 
ATOM     26  C   UNL     1       0.340  10.267  20.372  0.00  0.00    +0.000 A 
ATOM     27  C   UNL     1       0.550   9.366  21.425  0.00  0.00    +0.000 A 
ATOM     28  C   UNL     1       1.299   8.191  21.180  0.00  0.00    +0.000 A 
BRANCH  27  29
ATOM     29  C   UNL     1      -0.012   9.660  22.795  0.00  0.00    +0.000 C 
ATOM     30  F   UNL     1      -0.385  10.962  22.964  0.00  0.00    +0.000 F 
ATOM     31  F   UNL     1      -1.118   8.921  23.083  0.00  0.00    +0.000 F 
ATOM     32  F   UNL     1       0.882   9.404  23.792  0.00  0.00    +0.000 F 
ENDBRANCH  27  29
ENDBRANCH  21  23
ENDBRANCH   7  19
TORSDOF 6
ENDMDL
MODEL 6
REMARK VINA RESULT:      -8.8      2.624      3.632
REMARK  Name = 
REMARK  6 active torsions:
REMARK  status: ('A' for Active; 'I' for Inactive)
REMARK    1  A    between atoms: C_2  and  C_11
REMARK    2  A    between atoms: N_3  and  C_4
REMARK    3  A    between atoms: C_4  and  C_5
REMARK    4  A    between atoms: C_17  and  C_18
REMARK    5  A    between atoms: N_20  and  C_21
REMARK    6  A    between atoms: C_25  and  C_26
REMARK                            x       y       z     vdW  Elec       q    Type
REMARK                         _______ _______ _______ _____ _____    ______ ____
ROOT
ATOM      1  C   UNL     1       3.302   5.115  18.178  0.00  0.00    +0.000 C 
ATOM      2  C   UNL     1       2.727   3.706  18.476  0.00  0.00    +0.000 C 
ATOM      3  C   UNL     1       1.281   3.787  18.922  0.00  0.00    +0.000 C 
ATOM      4  C   UNL     1       1.274   4.303  20.159  0.00  0.00    +0.000 C 
ATOM      5  C   UNL     1       2.695   4.660  20.498  0.00  0.00    +0.000 C 
ATOM      6  C   UNL     1       3.355   3.433  19.846  0.00  0.00    +0.000 C 
ATOM      7  C   UNL     1       3.187   5.823  19.580  0.00  0.00    +0.000 C 
ENDROOT
BRANCH   1   9
ATOM      8  O   UNL     1       5.621   5.613  18.569  0.00  0.00    +0.000 OA
ATOM      9  C   UNL     1       4.786   5.140  17.798  0.00  0.00    +0.000 C 
ATOM     10  N   UNL     1       5.130   4.602  16.584  0.00  0.00    +0.000 N 
ATOM     11  H   UNL     1       4.432   4.437  15.874  0.00  0.00    +0.000 HD
BRANCH  10  12
ATOM     12  C   UNL     1       6.509   4.345  16.224  0.00  0.00    +0.000 C 
BRANCH  12  13
ATOM     13  C   UNL     1       6.725   4.388  14.745  0.00  0.00    +0.000 A 
ATOM     14  C   UNL     1       6.049   3.529  13.875  0.00  0.00    +0.000 A 
ATOM     15  C   UNL     1       6.283   3.616  12.506  0.00  0.00    +0.000 A 
ATOM     16  C   UNL     1       7.186   4.563  12.052  0.00  0.00    +0.000 A 
ATOM     17  N   UNL     1       7.852   5.413  12.861  0.00  0.00    +0.000 NA
ATOM     18  C   UNL     1       7.603   5.312  14.185  0.00  0.00    +0.000 A 
ENDBRANCH  12  13
ENDBRANCH  10  12
ENDBRANCH   1   9
BRANCH   7  19
ATOM     19  C   UNL     1       2.319   7.089  19.527  0.00  0.00    +0.000 C 
ATOM     20  O   UNL     1       2.050   7.641  18.464  0.00  0.00    +0.000 OA
ATOM     21  N   UNL     1       1.860   7.489  20.782  0.00  0.00    +0.000 N 
ATOM     22  H   UNL     1       2.102   6.892  21.570  0.00  0.00    +0.000 HD
BRANCH  21  23
ATOM     23  C   UNL     1       1.054   8.622  21.082  0.00  0.00    +0.000 A 
ATOM     24  C   UNL     1       0.771   9.046  22.385  0.00  0.00    +0.000 A 
ATOM     25  C   UNL     1      -0.029  10.170  22.621  0.00  0.00    +0.000 A 
ATOM     26  C   UNL     1      -0.571  10.882  21.559  0.00  0.00    +0.000 A 
ATOM     27  C   UNL     1      -0.316  10.481  20.240  0.00  0.00    +0.000 A 
ATOM     28  C   UNL     1       0.507   9.352  20.016  0.00  0.00    +0.000 A 
BRANCH  27  29
ATOM     29  C   UNL     1      -0.923  11.245  19.088  0.00  0.00    +0.000 C 
ATOM     30  F   UNL     1      -2.070  11.908  19.415  0.00  0.00    +0.000 F 
ATOM     31  F   UNL     1      -0.085  12.189  18.579  0.00  0.00    +0.000 F 
ATOM     32  F   UNL     1      -1.254  10.435  18.042  0.00  0.00    +0.000 F 
ENDBRANCH  27  29
ENDBRANCH  21  23
ENDBRANCH   7  19
TORSDOF 6
ENDMDL
MODEL 7
REMARK VINA RESULT:      -8.8      2.485      3.338
REMARK  Name = 
REMARK  6 active torsions:
REMARK  status: ('A' for Active; 'I' for Inactive)
REMARK    1  A    between atoms: C_2  and  C_11
REMARK    2  A    between atoms: N_3  and  C_4
REMARK    3  A    between atoms: C_4  and  C_5
REMARK    4  A    between atoms: C_17  and  C_18
REMARK    5  A    between atoms: N_20  and  C_21
REMARK    6  A    between atoms: C_25  and  C_26
REMARK                            x       y       z     vdW  Elec       q    Type
REMARK                         _______ _______ _______ _____ _____    ______ ____
ROOT
ATOM      1  C   UNL     1       3.108   4.552  18.101  0.00  0.00    +0.000 C 
ATOM      2  C   UNL     1       2.852   3.045  17.835  0.00  0.00    +0.000 C 
ATOM      3  C   UNL     1       1.510   2.611  18.388  0.00  0.00    +0.000 C 
ATOM      4  C   UNL     1       1.617   2.592  19.725  0.00  0.00    +0.000 C 
ATOM      5  C   UNL     1       2.987   3.108  20.067  0.00  0.00    +0.000 C 
ATOM      6  C   UNL     1       3.739   2.417  18.916  0.00  0.00    +0.000 C 
ATOM      7  C   UNL     1       3.103   4.616  19.675  0.00  0.00    +0.000 C 
ENDROOT
BRANCH   1   9
ATOM      8  O   UNL     1       5.034   5.982  18.253  0.00  0.00    +0.000 OA
ATOM      9  C   UNL     1       4.479   5.063  17.649  0.00  0.00    +0.000 C 
ATOM     10  N   UNL     1       5.052   4.446  16.566  0.00  0.00    +0.000 N 
ATOM     11  H   UNL     1       4.501   3.870  15.947  0.00  0.00    +0.000 HD
BRANCH  10  12
ATOM     12  C   UNL     1       6.435   4.669  16.201  0.00  0.00    +0.000 C 
BRANCH  12  13
ATOM     13  C   UNL     1       6.657   4.551  14.727  0.00  0.00    +0.000 A 
ATOM     14  C   UNL     1       5.943   3.640  13.944  0.00  0.00    +0.000 A 
ATOM     15  C   UNL     1       6.185   3.575  12.575  0.00  0.00    +0.000 A 
ATOM     16  C   UNL     1       7.132   4.428  12.033  0.00  0.00    +0.000 A 
ATOM     17  N   UNL     1       7.835   5.325  12.756  0.00  0.00    +0.000 NA
ATOM     18  C   UNL     1       7.578   5.371  14.082  0.00  0.00    +0.000 A 
ENDBRANCH  12  13
ENDBRANCH  10  12
ENDBRANCH   1   9
BRANCH   7  19
ATOM     19  C   UNL     1       2.026   5.566  20.219  0.00  0.00    +0.000 C 
ATOM     20  O   UNL     1       0.992   5.143  20.726  0.00  0.00    +0.000 OA
ATOM     21  N   UNL     1       2.377   6.911  20.106  0.00  0.00    +0.000 N 
ATOM     22  H   UNL     1       3.301   7.114  19.730  0.00  0.00    +0.000 HD
BRANCH  21  23
ATOM     23  C   UNL     1       1.601   8.038  20.496  0.00  0.00    +0.000 A 
ATOM     24  C   UNL     1       1.346   8.375  21.830  0.00  0.00    +0.000 A 
ATOM     25  C   UNL     1       0.576   9.497  22.157  0.00  0.00    +0.000 A 
ATOM     26  C   UNL     1       0.037  10.295  21.156  0.00  0.00    +0.000 A 
ATOM     27  C   UNL     1       0.264   9.982  19.809  0.00  0.00    +0.000 A 
ATOM     28  C   UNL     1       1.057   8.854  19.492  0.00  0.00    +0.000 A 
BRANCH  27  29
ATOM     29  C   UNL     1      -0.340  10.839  18.722  0.00  0.00    +0.000 C 
ATOM     30  F   UNL     1       0.487  11.836  18.290  0.00  0.00    +0.000 F 
ATOM     31  F   UNL     1      -0.669  10.127  17.609  0.00  0.00    +0.000 F 
ATOM     32  F   UNL     1      -1.484  11.461  19.123  0.00  0.00    +0.000 F 
ENDBRANCH  27  29
ENDBRANCH  21  23
ENDBRANCH   7  19
TORSDOF 6
ENDMDL
MODEL 8
REMARK VINA RESULT:      -8.7      3.176      4.051
REMARK  Name = 
REMARK  6 active torsions:
REMARK  status: ('A' for Active; 'I' for Inactive)
REMARK    1  A    between atoms: C_2  and  C_11
REMARK    2  A    between atoms: N_3  and  C_4
REMARK    3  A    between atoms: C_4  and  C_5
REMARK    4  A    between atoms: C_17  and  C_18
REMARK    5  A    between atoms: N_20  and  C_21
REMARK    6  A    between atoms: C_25  and  C_26
REMARK                            x       y       z     vdW  Elec       q    Type
REMARK                         _______ _______ _______ _____ _____    ______ ____
ROOT
ATOM      1  C   UNL     1       3.118   5.870  17.783  0.00  0.00    +0.000 C 
ATOM      2  C   UNL     1       2.790   4.360  17.924  0.00  0.00    +0.000 C 
ATOM      3  C   UNL     1       1.451   4.151  18.602  0.00  0.00    +0.000 C 
ATOM      4  C   UNL     1       1.604   4.473  19.894  0.00  0.00    +0.000 C 
ATOM      5  C   UNL     1       3.006   4.991  20.058  0.00  0.00    +0.000 C 
ATOM      6  C   UNL     1       3.687   3.990  19.110  0.00  0.00    +0.000 C 
ATOM      7  C   UNL     1       3.172   6.339  19.285  0.00  0.00    +0.000 C 
ENDROOT
BRANCH   1   9
ATOM      8  O   UNL     1       5.037   7.263  17.388  0.00  0.00    +0.000 OA
ATOM      9  C   UNL     1       4.493   6.178  17.181  0.00  0.00    +0.000 C 
ATOM     10  N   UNL     1       5.082   5.194  16.428  0.00  0.00    +0.000 N 
ATOM     11  H   UNL     1       4.540   4.419  16.075  0.00  0.00    +0.000 HD
BRANCH  10  12
ATOM     12  C   UNL     1       6.468   5.270  16.018  0.00  0.00    +0.000 C 
BRANCH  12  13
ATOM     13  C   UNL     1       6.662   4.848  14.597  0.00  0.00    +0.000 A 
ATOM     14  C   UNL     1       7.626   5.439  13.776  0.00  0.00    +0.000 A 
ATOM     15  C   UNL     1       7.768   5.005  12.462  0.00  0.00    +0.000 A 
ATOM     16  C   UNL     1       6.940   3.989  12.012  0.00  0.00    +0.000 A 
ATOM     17  N   UNL     1       6.003   3.390  12.777  0.00  0.00    +0.000 NA
ATOM     18  C   UNL     1       5.889   3.828  14.050  0.00  0.00    +0.000 A 
ENDBRANCH  12  13
ENDBRANCH  10  12
ENDBRANCH   1   9
BRANCH   7  19
ATOM     19  C   UNL     1       2.156   7.450  19.589  0.00  0.00    +0.000 C 
ATOM     20  O   UNL     1       1.612   7.542  20.685  0.00  0.00    +0.000 OA
ATOM     21  N   UNL     1       1.970   8.327  18.520  0.00  0.00    +0.000 N 
ATOM     22  H   UNL     1       2.545   8.171  17.695  0.00  0.00    +0.000 HD
BRANCH  21  23
ATOM     23  C   UNL     1       1.093   9.445  18.468  0.00  0.00    +0.000 A 
ATOM     24  C   UNL     1       1.424  10.710  18.965  0.00  0.00    +0.000 A 
ATOM     25  C   UNL     1       0.521  11.777  18.886  0.00  0.00    +0.000 A 
ATOM     26  C   UNL     1      -0.734  11.594  18.321  0.00  0.00    +0.000 A 
ATOM     27  C   UNL     1      -1.104  10.338  17.821  0.00  0.00    +0.000 A 
ATOM     28  C   UNL     1      -0.175   9.272  17.893  0.00  0.00    +0.000 A 
BRANCH  27  29
ATOM     29  C   UNL     1      -2.476  10.136  17.226  0.00  0.00    +0.000 C 
ATOM     30  F   UNL     1      -3.240   9.233  17.908  0.00  0.00    +0.000 F 
ATOM     31  F   UNL     1      -3.210  11.281  17.185  0.00  0.00    +0.000 F 
ATOM     32  F   UNL     1      -2.426   9.676  15.943  0.00  0.00    +0.000 F 
ENDBRANCH  27  29
ENDBRANCH  21  23
ENDBRANCH   7  19
TORSDOF 6
ENDMDL
MODEL 9
REMARK VINA RESULT:      -8.7      4.831      8.069
REMARK  Name = 
REMARK  6 active torsions:
REMARK  status: ('A' for Active; 'I' for Inactive)
REMARK    1  A    between atoms: C_2  and  C_11
REMARK    2  A    between atoms: N_3  and  C_4
REMARK    3  A    between atoms: C_4  and  C_5
REMARK    4  A    between atoms: C_17  and  C_18
REMARK    5  A    between atoms: N_20  and  C_21
REMARK    6  A    between atoms: C_25  and  C_26
REMARK                            x       y       z     vdW  Elec       q    Type
REMARK                         _______ _______ _______ _____ _____    ______ ____
ROOT
ATOM      1  C   UNL     1       2.853   5.985  19.453  0.00  0.00    +0.000 C 
ATOM      2  C   UNL     1       2.272   5.378  20.757  0.00  0.00    +0.000 C 
ATOM      3  C   UNL     1       2.803   3.979  20.995  0.00  0.00    +0.000 C 
ATOM      4  C   UNL     1       2.225   3.174  20.091  0.00  0.00    +0.000 C 
ATOM      5  C   UNL     1       1.393   4.045  19.191  0.00  0.00    +0.000 C 
ATOM      6  C   UNL     1       0.867   4.992  20.282  0.00  0.00    +0.000 C 
ATOM      7  C   UNL     1       2.318   4.988  18.356  0.00  0.00    +0.000 C 
ENDROOT
BRANCH   1   9
ATOM      8  O   UNL     1       2.377   7.781  17.928  0.00  0.00    +0.000 OA
ATOM      9  C   UNL     1       2.308   7.369  19.086  0.00  0.00    +0.000 C 
ATOM     10  N   UNL     1       1.737   8.104  20.093  0.00  0.00    +0.000 N 
ATOM     11  H   UNL     1       1.895   7.865  21.061  0.00  0.00    +0.000 HD
BRANCH  10  12
ATOM     12  C   UNL     1       0.974   9.305  19.826  0.00  0.00    +0.000 C 
BRANCH  12  13
ATOM     13  C   UNL     1       0.307   9.836  21.055  0.00  0.00    +0.000 A 
ATOM     14  C   UNL     1      -0.631  10.870  20.997  0.00  0.00    +0.000 A 
ATOM     15  C   UNL     1      -1.226  11.323  22.171  0.00  0.00    +0.000 A 
ATOM     16  C   UNL     1      -0.863  10.723  23.365  0.00  0.00    +0.000 A 
ATOM     17  N   UNL     1       0.033   9.718  23.459  0.00  0.00    +0.000 NA
ATOM     18  C   UNL     1       0.592   9.294  22.305  0.00  0.00    +0.000 A 
ENDBRANCH  12  13
ENDBRANCH  10  12
ENDBRANCH   1   9
BRANCH   7  19
ATOM     19  C   UNL     1       3.453   4.330  17.559  0.00  0.00    +0.000 C 
ATOM     20  O   UNL     1       3.667   3.123  17.621  0.00  0.00    +0.000 OA
ATOM     21  N   UNL     1       4.153   5.233  16.757  0.00  0.00    +0.000 N 
ATOM     22  H   UNL     1       3.817   6.194  16.750  0.00  0.00    +0.000 HD
BRANCH  21  23
ATOM     23  C   UNL     1       5.263   4.952  15.914  0.00  0.00    +0.000 A 
ATOM     24  C   UNL     1       6.590   5.216  16.270  0.00  0.00    +0.000 A 
ATOM     25  C   UNL     1       7.645   4.918  15.399  0.00  0.00    +0.000 A 
ATOM     26  C   UNL     1       7.390   4.362  14.152  0.00  0.00    +0.000 A 
ATOM     27  C   UNL     1       6.072   4.093  13.758  0.00  0.00    +0.000 A 
ATOM     28  C   UNL     1       5.016   4.385  14.654  0.00  0.00    +0.000 A 
BRANCH  27  29
ATOM     29  C   UNL     1       5.796   3.507  12.394  0.00  0.00    +0.000 C 
ATOM     30  F   UNL     1       6.596   4.013  11.411  0.00  0.00    +0.000 F 
ATOM     31  F   UNL     1       5.970   2.158  12.351  0.00  0.00    +0.000 F 
ATOM     32  F   UNL     1       4.518   3.734  11.978  0.00  0.00    +0.000 F 
ENDBRANCH  27  29
ENDBRANCH  21  23
ENDBRANCH   7  19
TORSDOF 6
ENDMDL
