MODEL 1
REMARK VINA RESULT:      -7.8      0.000      0.000
REMARK  Name = 
REMARK  7 active torsions:
REMARK  status: ('A' for Active; 'I' for Inactive)
REMARK    1  A    between atoms: C_1  and  C_2
REMARK    2  A    between atoms: C_2  and  C_3
REMARK    3  A    between atoms: C_2  and  N_4
REMARK    4  A    between atoms: C_6  and  C_7
REMARK    5  A    between atoms: C_7  and  N_8
REMARK    6  A    between atoms: C_15  and  C_16
REMARK    7  A    between atoms: C_19  and  C_20
REMARK                            x       y       z     vdW  Elec       q    Type
REMARK                         _______ _______ _______ _____ _____    ______ ____
ROOT
ATOM      1  N   UNL     1       2.413   4.768  19.313  0.00  0.00    +0.000 N 
ATOM      2  N   UNL     1       3.085   3.895  18.522  0.00  0.00    +0.000 NA
ATOM      3  C   UNL     1       3.624   4.649  17.555  0.00  0.00    +0.000 A 
ATOM      4  C   UNL     1       3.360   6.016  17.785  0.00  0.00    +0.000 A 
ATOM      5  C   UNL     1       2.594   6.093  18.938  0.00  0.00    +0.000 A 
ENDROOT
BRANCH   5   6
ATOM      6  C   UNL     1       1.996   7.293  19.550  0.00  0.00    +0.000 A 
ATOM      7  C   UNL     1       1.756   8.427  18.758  0.00  0.00    +0.000 A 
ATOM      8  C   UNL     1       1.171   9.580  19.296  0.00  0.00    +0.000 A 
ATOM      9  C   UNL     1       0.802   9.630  20.643  0.00  0.00    +0.000 A 
ATOM     10  C   UNL     1       1.059   8.512  21.445  0.00  0.00    +0.000 A 
ATOM     11  C   UNL     1       1.670   7.372  20.908  0.00  0.00    +0.000 A 
BRANCH   9  12
ATOM     12  C   UNL     1       0.129  10.842  21.238  0.00  0.00    +0.000 C 
ATOM     13  F   UNL     1      -0.070  10.749  22.583  0.00  0.00    +0.000 F 
ATOM     14  F   UNL     1       0.848  11.983  21.046  0.00  0.00    +0.000 F 
ATOM     15  F   UNL     1      -1.097  11.078  20.694  0.00  0.00    +0.000 F 
ENDBRANCH   9  12
ENDBRANCH   5   6
BRANCH   1  17
ATOM     16  C   UNL     1       0.635   3.075  19.798  0.00  0.00    +0.000 C 
ATOM     17  C   UNL     1       1.496   4.232  20.318  0.00  0.00    +0.000 C 
ATOM     18  C   UNL     1       2.226   3.791  21.593  0.00  0.00    +0.000 C 
ENDBRANCH   1  17
BRANCH   3  19
ATOM     19  C   UNL     1       4.289   4.033  16.349  0.00  0.00    +0.000 C 
BRANCH  19  20
ATOM     20  N   UNL     1       5.737   3.830  16.395  0.00  0.00    +0.000 NA
ATOM     21  C   UNL     1       6.462   4.691  17.337  0.00  0.00    +0.000 C 
ATOM     22  C   UNL     1       6.937   6.027  16.742  0.00  0.00    +0.000 C 
ATOM     23  O   UNL     1       7.692   5.828  15.538  0.00  0.00    +0.000 OA
ATOM     24  C   UNL     1       6.924   5.112  14.565  0.00  0.00    +0.000 C 
ATOM     25  C   UNL     1       6.438   3.761  15.109  0.00  0.00    +0.000 C 
ENDBRANCH  19  20
ENDBRANCH   3  19
TORSDOF 5
ENDMDL
MODEL 2
REMARK VINA RESULT:      -7.7      1.301      1.765
REMARK  Name = 
REMARK  7 active torsions:
REMARK  status: ('A' for Active; 'I' for Inactive)
REMARK    1  A    between atoms: C_1  and  C_2
REMARK    2  A    between atoms: C_2  and  C_3
REMARK    3  A    between atoms: C_2  and  N_4
REMARK    4  A    between atoms: C_6  and  C_7
REMARK    5  A    between atoms: C_7  and  N_8
REMARK    6  A    between atoms: C_15  and  C_16
REMARK    7  A    between atoms: C_19  and  C_20
REMARK                            x       y       z     vdW  Elec       q    Type
REMARK                         _______ _______ _______ _____ _____    ______ ____
ROOT
ATOM      1  N   UNL     1       2.930   5.140  18.812  0.00  0.00    +0.000 N 
ATOM      2  N   UNL     1       3.858   4.331  18.246  0.00  0.00    +0.000 NA
ATOM      3  C   UNL     1       4.560   5.129  17.429  0.00  0.00    +0.000 A 
ATOM      4  C   UNL     1       4.123   6.466  17.544  0.00  0.00    +0.000 A 
ATOM      5  C   UNL     1       3.080   6.475  18.459  0.00  0.00    +0.000 A 
ENDROOT
BRANCH   5   6
ATOM      6  C   UNL     1       2.239   7.616  18.861  0.00  0.00    +0.000 A 
ATOM      7  C   UNL     1       1.804   8.531  17.890  0.00  0.00    +0.000 A 
ATOM      8  C   UNL     1       0.987   9.618  18.228  0.00  0.00    +0.000 A 
ATOM      9  C   UNL     1       0.575   9.816  19.548  0.00  0.00    +0.000 A 
ATOM     10  C   UNL     1       1.023   8.921  20.527  0.00  0.00    +0.000 A 
ATOM     11  C   UNL     1       1.863   7.853  20.188  0.00  0.00    +0.000 A 
BRANCH   9  12
ATOM     12  C   UNL     1      -0.343  10.950  19.933  0.00  0.00    +0.000 C 
ATOM     13  F   UNL     1       0.252  12.174  19.879  0.00  0.00    +0.000 F 
ATOM     14  F   UNL     1      -1.437  11.031  19.125  0.00  0.00    +0.000 F 
ATOM     15  F   UNL     1      -0.825  10.824  21.201  0.00  0.00    +0.000 F 
ENDBRANCH   9  12
ENDBRANCH   5   6
BRANCH   1  17
ATOM     16  C   UNL     1       1.306   3.239  18.917  0.00  0.00    +0.000 C 
ATOM     17  C   UNL     1       1.835   4.525  19.563  0.00  0.00    +0.000 C 
ATOM     18  C   UNL     1       2.219   4.243  21.021  0.00  0.00    +0.000 C 
ENDBRANCH   1  17
BRANCH   3  19
ATOM     19  C   UNL     1       5.567   4.573  16.453  0.00  0.00    +0.000 C 
BRANCH  19  20
ATOM     20  N   UNL     1       6.976   4.904  16.661  0.00  0.00    +0.000 NA
ATOM     21  C   UNL     1       7.522   4.534  17.973  0.00  0.00    +0.000 C 
ATOM     22  C   UNL     1       7.383   5.624  19.049  0.00  0.00    +0.000 C 
ATOM     23  O   UNL     1       7.919   6.877  18.602  0.00  0.00    +0.000 OA
ATOM     24  C   UNL     1       7.279   7.306  17.395  0.00  0.00    +0.000 C 
ATOM     25  C   UNL     1       7.402   6.255  16.283  0.00  0.00    +0.000 C 
ENDBRANCH  19  20
ENDBRANCH   3  19
TORSDOF 5
ENDMDL
MODEL 3
REMARK VINA RESULT:      -7.7      5.011      8.036
REMARK  Name = 
REMARK  7 active torsions:
REMARK  status: ('A' for Active; 'I' for Inactive)
REMARK    1  A    between atoms: C_1  and  C_2
REMARK    2  A    between atoms: C_2  and  C_3
REMARK    3  A    between atoms: C_2  and  N_4
REMARK    4  A    between atoms: C_6  and  C_7
REMARK    5  A    between atoms: C_7  and  N_8
REMARK    6  A    between atoms: C_15  and  C_16
REMARK    7  A    between atoms: C_19  and  C_20
REMARK                            x       y       z     vdW  Elec       q    Type
REMARK                         _______ _______ _______ _____ _____    ______ ____
ROOT
ATOM      1  N   UNL     1       2.088   5.353  19.885  0.00  0.00    +0.000 N 
ATOM      2  N   UNL     1       1.390   6.064  20.804  0.00  0.00    +0.000 NA
ATOM      3  C   UNL     1       1.654   7.347  20.521  0.00  0.00    +0.000 A 
ATOM      4  C   UNL     1       2.457   7.446  19.365  0.00  0.00    +0.000 A 
ATOM      5  C   UNL     1       2.720   6.152  18.942  0.00  0.00    +0.000 A 
ENDROOT
BRANCH   5   6
ATOM      6  C   UNL     1       3.580   5.722  17.825  0.00  0.00    +0.000 A 
ATOM      7  C   UNL     1       3.611   4.367  17.457  0.00  0.00    +0.000 A 
ATOM      8  C   UNL     1       4.399   3.920  16.390  0.00  0.00    +0.000 A 
ATOM      9  C   UNL     1       5.175   4.819  15.652  0.00  0.00    +0.000 A 
ATOM     10  C   UNL     1       5.168   6.168  16.026  0.00  0.00    +0.000 A 
ATOM     11  C   UNL     1       4.400   6.604  17.112  0.00  0.00    +0.000 A 
BRANCH   9  12
ATOM     12  C   UNL     1       5.998   4.373  14.468  0.00  0.00    +0.000 C 
ATOM     13  F   UNL     1       5.250   4.034  13.382  0.00  0.00    +0.000 F 
ATOM     14  F   UNL     1       6.860   5.339  14.042  0.00  0.00    +0.000 F 
ATOM     15  F   UNL     1       6.768   3.285  14.748  0.00  0.00    +0.000 F 
ENDBRANCH   9  12
ENDBRANCH   5   6
BRANCH   1  17
ATOM     16  C   UNL     1       2.408   3.509  21.547  0.00  0.00    +0.000 C 
ATOM     17  C   UNL     1       2.222   3.909  20.079  0.00  0.00    +0.000 C 
ATOM     18  C   UNL     1       1.040   3.133  19.484  0.00  0.00    +0.000 C 
ENDBRANCH   1  17
BRANCH   3  19
ATOM     19  C   UNL     1       1.227   8.464  21.441  0.00  0.00    +0.000 C 
BRANCH  19  20
ATOM     20  N   UNL     1      -0.164   8.914  21.371  0.00  0.00    +0.000 NA
ATOM     21  C   UNL     1      -0.453   9.904  20.327  0.00  0.00    +0.000 C 
ATOM     22  C   UNL     1      -0.283  11.366  20.772  0.00  0.00    +0.000 C 
ATOM     23  O   UNL     1      -1.029  11.642  21.967  0.00  0.00    +0.000 OA
ATOM     24  C   UNL     1      -0.638  10.765  23.028  0.00  0.00    +0.000 C 
ATOM     25  C   UNL     1      -0.803   9.290  22.636  0.00  0.00    +0.000 C 
ENDBRANCH  19  20
ENDBRANCH   3  19
TORSDOF 5
ENDMDL
MODEL 4
REMARK VINA RESULT:      -7.7      4.986      7.999
REMARK  Name = 
REMARK  7 active torsions:
REMARK  status: ('A' for Active; 'I' for Inactive)
REMARK    1  A    between atoms: C_1  and  C_2
REMARK    2  A    between atoms: C_2  and  C_3
REMARK    3  A    between atoms: C_2  and  N_4
REMARK    4  A    between atoms: C_6  and  C_7
REMARK    5  A    between atoms: C_7  and  N_8
REMARK    6  A    between atoms: C_15  and  C_16
REMARK    7  A    between atoms: C_19  and  C_20
REMARK                            x       y       z     vdW  Elec       q    Type
REMARK                         _______ _______ _______ _____ _____    ______ ____
ROOT
ATOM      1  N   UNL     1       2.016   5.420  20.009  0.00  0.00    +0.000 N 
ATOM      2  N   UNL     1       1.299   6.158  20.892  0.00  0.00    +0.000 NA
ATOM      3  C   UNL     1       1.602   7.430  20.605  0.00  0.00    +0.000 A 
ATOM      4  C   UNL     1       2.451   7.498  19.480  0.00  0.00    +0.000 A 
ATOM      5  C   UNL     1       2.700   6.193  19.081  0.00  0.00    +0.000 A 
ENDROOT
BRANCH   5   6
ATOM      6  C   UNL     1       3.593   5.731  18.003  0.00  0.00    +0.000 A 
ATOM      7  C   UNL     1       4.510   6.627  17.432  0.00  0.00    +0.000 A 
ATOM      8  C   UNL     1       5.389   6.223  16.420  0.00  0.00    +0.000 A 
ATOM      9  C   UNL     1       5.382   4.905  15.954  0.00  0.00    +0.000 A 
ATOM     10  C   UNL     1       4.455   4.010  16.502  0.00  0.00    +0.000 A 
ATOM     11  C   UNL     1       3.559   4.428  17.494  0.00  0.00    +0.000 A 
BRANCH   9  12
ATOM     12  C   UNL     1       6.348   4.429  14.898  0.00  0.00    +0.000 C 
ATOM     13  F   UNL     1       7.653   4.492  15.285  0.00  0.00    +0.000 F 
ATOM     14  F   UNL     1       6.128   3.134  14.537  0.00  0.00    +0.000 F 
ATOM     15  F   UNL     1       6.264   5.156  13.748  0.00  0.00    +0.000 F 
ENDBRANCH   9  12
ENDBRANCH   5   6
BRANCH   1  17
ATOM     16  C   UNL     1       2.279   3.592  21.698  0.00  0.00    +0.000 C 
ATOM     17  C   UNL     1       2.109   3.976  20.224  0.00  0.00    +0.000 C 
ATOM     18  C   UNL     1       0.909   3.223  19.635  0.00  0.00    +0.000 C 
ENDBRANCH   1  17
BRANCH   3  19
ATOM     19  C   UNL     1       1.166   8.568  21.496  0.00  0.00    +0.000 C 
BRANCH  19  20
ATOM     20  N   UNL     1      -0.228   9.006  21.413  0.00  0.00    +0.000 NA
ATOM     21  C   UNL     1      -0.535   9.916  20.304  0.00  0.00    +0.000 C 
ATOM     22  C   UNL     1      -0.367  11.408  20.640  0.00  0.00    +0.000 C 
ATOM     23  O   UNL     1      -1.098  11.767  21.821  0.00  0.00    +0.000 OA
ATOM     24  C   UNL     1      -0.688  10.971  22.938  0.00  0.00    +0.000 C 
ATOM     25  C   UNL     1      -0.851   9.470  22.656  0.00  0.00    +0.000 C 
ENDBRANCH  19  20
ENDBRANCH   3  19
TORSDOF 5
ENDMDL
MODEL 5
REMARK VINA RESULT:      -7.6      0.132      1.242
REMARK  Name = 
REMARK  7 active torsions:
REMARK  status: ('A' for Active; 'I' for Inactive)
REMARK    1  A    between atoms: C_1  and  C_2
REMARK    2  A    between atoms: C_2  and  C_3
REMARK    3  A    between atoms: C_2  and  N_4
REMARK    4  A    between atoms: C_6  and  C_7
REMARK    5  A    between atoms: C_7  and  N_8
REMARK    6  A    between atoms: C_15  and  C_16
REMARK    7  A    between atoms: C_19  and  C_20
REMARK                            x       y       z     vdW  Elec       q    Type
REMARK                         _______ _______ _______ _____ _____    ______ ____
ROOT
ATOM      1  N   UNL     1       2.425   4.865  19.352  0.00  0.00    +0.000 N 
ATOM      2  N   UNL     1       3.112   3.975  18.594  0.00  0.00    +0.000 NA
ATOM      3  C   UNL     1       3.635   4.701  17.597  0.00  0.00    +0.000 A 
ATOM      4  C   UNL     1       3.345   6.071  17.774  0.00  0.00    +0.000 A 
ATOM      5  C   UNL     1       2.578   6.177  18.925  0.00  0.00    +0.000 A 
ENDROOT
BRANCH   5   6
ATOM      6  C   UNL     1       1.958   7.389  19.491  0.00  0.00    +0.000 A 
ATOM      7  C   UNL     1       1.609   7.417  20.850  0.00  0.00    +0.000 A 
ATOM      8  C   UNL     1       1.037   8.555  21.432  0.00  0.00    +0.000 A 
ATOM      9  C   UNL     1       0.803   9.703  20.670  0.00  0.00    +0.000 A 
ATOM     10  C   UNL     1       1.127   9.676  19.308  0.00  0.00    +0.000 A 
ATOM     11  C   UNL     1       1.673   8.525  18.726  0.00  0.00    +0.000 A 
BRANCH   9  12
ATOM     12  C   UNL     1       0.231  10.959  21.279  0.00  0.00    +0.000 C 
ATOM     13  F   UNL     1      -0.919  11.379  20.683  0.00  0.00    +0.000 F 
ATOM     14  F   UNL     1      -0.069  10.806  22.600  0.00  0.00    +0.000 F 
ATOM     15  F   UNL     1       1.093  12.012  21.213  0.00  0.00    +0.000 F 
ENDBRANCH   9  12
ENDBRANCH   5   6
BRANCH   1  17
ATOM     16  C   UNL     1       0.603   3.231  19.875  0.00  0.00    +0.000 C 
ATOM     17  C   UNL     1       1.520   4.351  20.380  0.00  0.00    +0.000 C 
ATOM     18  C   UNL     1       2.273   3.871  21.627  0.00  0.00    +0.000 C 
ENDBRANCH   1  17
BRANCH   3  19
ATOM     19  C   UNL     1       4.310   4.051  16.414  0.00  0.00    +0.000 C 
BRANCH  19  20
ATOM     20  N   UNL     1       5.760   3.866  16.471  0.00  0.00    +0.000 NA
ATOM     21  C   UNL     1       6.475   4.773  17.377  0.00  0.00    +0.000 C 
ATOM     22  C   UNL     1       6.937   6.088  16.726  0.00  0.00    +0.000 C 
ATOM     23  O   UNL     1       7.696   5.845  15.532  0.00  0.00    +0.000 OA
ATOM     24  C   UNL     1       6.938   5.080  14.590  0.00  0.00    +0.000 C 
ATOM     25  C   UNL     1       6.464   3.748  15.190  0.00  0.00    +0.000 C 
ENDBRANCH  19  20
ENDBRANCH   3  19
TORSDOF 5
ENDMDL
MODEL 6
REMARK VINA RESULT:      -7.6      4.864      7.801
REMARK  Name = 
REMARK  7 active torsions:
REMARK  status: ('A' for Active; 'I' for Inactive)
REMARK    1  A    between atoms: C_1  and  C_2
REMARK    2  A    between atoms: C_2  and  C_3
REMARK    3  A    between atoms: C_2  and  N_4
REMARK    4  A    between atoms: C_6  and  C_7
REMARK    5  A    between atoms: C_7  and  N_8
REMARK    6  A    between atoms: C_15  and  C_16
REMARK    7  A    between atoms: C_19  and  C_20
REMARK                            x       y       z     vdW  Elec       q    Type
REMARK                         _______ _______ _______ _____ _____    ______ ____
ROOT
ATOM      1  N   UNL     1       1.999   5.515  19.998  0.00  0.00    +0.000 N 
ATOM      2  N   UNL     1       1.284   6.260  20.877  0.00  0.00    +0.000 NA
ATOM      3  C   UNL     1       1.584   7.530  20.577  0.00  0.00    +0.000 A 
ATOM      4  C   UNL     1       2.430   7.589  19.448  0.00  0.00    +0.000 A 
ATOM      5  C   UNL     1       2.680   6.281  19.061  0.00  0.00    +0.000 A 
ENDROOT
BRANCH   5   6
ATOM      6  C   UNL     1       3.570   5.811  17.984  0.00  0.00    +0.000 A 
ATOM      7  C   UNL     1       4.306   6.744  17.238  0.00  0.00    +0.000 A 
ATOM      8  C   UNL     1       5.178   6.337  16.221  0.00  0.00    +0.000 A 
ATOM      9  C   UNL     1       5.344   4.981  15.924  0.00  0.00    +0.000 A 
ATOM     10  C   UNL     1       4.596   4.045  16.648  0.00  0.00    +0.000 A 
ATOM     11  C   UNL     1       3.705   4.460  17.645  0.00  0.00    +0.000 A 
BRANCH   9  12
ATOM     12  C   UNL     1       6.311   4.512  14.865  0.00  0.00    +0.000 C 
ATOM     13  F   UNL     1       5.894   3.397  14.203  0.00  0.00    +0.000 F 
ATOM     14  F   UNL     1       6.530   5.455  13.906  0.00  0.00    +0.000 F 
ATOM     15  F   UNL     1       7.537   4.207  15.375  0.00  0.00    +0.000 F 
ENDBRANCH   9  12
ENDBRANCH   5   6
BRANCH   1  17
ATOM     16  C   UNL     1       2.298   3.704  21.699  0.00  0.00    +0.000 C 
ATOM     17  C   UNL     1       2.096   4.073  20.225  0.00  0.00    +0.000 C 
ATOM     18  C   UNL     1       0.882   3.316  19.671  0.00  0.00    +0.000 C 
ENDBRANCH   1  17
BRANCH   3  19
ATOM     19  C   UNL     1       1.149   8.675  21.458  0.00  0.00    +0.000 C 
BRANCH  19  20
ATOM     20  N   UNL     1      -0.093   9.370  21.114  0.00  0.00    +0.000 NA
ATOM     21  C   UNL     1      -0.185   9.841  19.727  0.00  0.00    +0.000 C 
ATOM     22  C   UNL     1       0.358  11.262  19.500  0.00  0.00    +0.000 C 
ATOM     23  O   UNL     1      -0.236  12.203  20.407  0.00  0.00    +0.000 OA
ATOM     24  C   UNL     1      -0.016  11.812  21.766  0.00  0.00    +0.000 C 
ATOM     25  C   UNL     1      -0.555  10.402  22.046  0.00  0.00    +0.000 C 
ENDBRANCH  19  20
ENDBRANCH   3  19
TORSDOF 5
ENDMDL
MODEL 7
REMARK VINA RESULT:      -7.5      1.131      1.617
REMARK  Name = 
REMARK  7 active torsions:
REMARK  status: ('A' for Active; 'I' for Inactive)
REMARK    1  A    between atoms: C_1  and  C_2
REMARK    2  A    between atoms: C_2  and  C_3
REMARK    3  A    between atoms: C_2  and  N_4
REMARK    4  A    between atoms: C_6  and  C_7
REMARK    5  A    between atoms: C_7  and  N_8
REMARK    6  A    between atoms: C_15  and  C_16
REMARK    7  A    between atoms: C_19  and  C_20
REMARK                            x       y       z     vdW  Elec       q    Type
REMARK                         _______ _______ _______ _____ _____    ______ ____
ROOT
ATOM      1  N   UNL     1       2.680   5.237  19.057  0.00  0.00    +0.000 N 
ATOM      2  N   UNL     1       3.545   4.516  18.303  0.00  0.00    +0.000 NA
ATOM      3  C   UNL     1       4.172   5.420  17.539  0.00  0.00    +0.000 A 
ATOM      4  C   UNL     1       3.758   6.727  17.872  0.00  0.00    +0.000 A 
ATOM      5  C   UNL     1       2.806   6.607  18.873  0.00  0.00    +0.000 A 
ENDROOT
BRANCH   5   6
ATOM      6  C   UNL     1       2.015   7.680  19.503  0.00  0.00    +0.000 A 
ATOM      7  C   UNL     1       1.585   8.768  18.728  0.00  0.00    +0.000 A 
ATOM      8  C   UNL     1       0.813   9.797  19.283  0.00  0.00    +0.000 A 
ATOM      9  C   UNL     1       0.443   9.763  20.630  0.00  0.00    +0.000 A 
ATOM     10  C   UNL     1       0.887   8.693  21.416  0.00  0.00    +0.000 A 
ATOM     11  C   UNL     1       1.682   7.682  20.862  0.00  0.00    +0.000 A 
BRANCH   9  12
ATOM     12  C   UNL     1      -0.425  10.834  21.243  0.00  0.00    +0.000 C 
ATOM     13  F   UNL     1      -1.421  11.266  20.421  0.00  0.00    +0.000 F 
ATOM     14  F   UNL     1      -1.039  10.415  22.385  0.00  0.00    +0.000 F 
ATOM     15  F   UNL     1       0.283  11.946  21.589  0.00  0.00    +0.000 F 
ENDBRANCH   9  12
ENDBRANCH   5   6
BRANCH   1  17
ATOM     16  C   UNL     1       1.080   3.312  19.070  0.00  0.00    +0.000 C 
ATOM     17  C   UNL     1       1.656   4.520  19.818  0.00  0.00    +0.000 C 
ATOM     18  C   UNL     1       2.164   4.072  21.195  0.00  0.00    +0.000 C 
ENDBRANCH   1  17
BRANCH   3  19
ATOM     19  C   UNL     1       5.079   5.006  16.406  0.00  0.00    +0.000 C 
BRANCH  19  20
ATOM     20  N   UNL     1       6.523   5.014  16.647  0.00  0.00    +0.000 NA
ATOM     21  C   UNL     1       6.944   4.495  17.954  0.00  0.00    +0.000 C 
ATOM     22  C   UNL     1       7.022   5.555  19.065  0.00  0.00    +0.000 C 
ATOM     23  O   UNL     1       7.829   6.674  18.668  0.00  0.00    +0.000 OA
ATOM     24  C   UNL     1       7.326   7.268  17.467  0.00  0.00    +0.000 C 
ATOM     25  C   UNL     1       7.242   6.249  16.322  0.00  0.00    +0.000 C 
ENDBRANCH  19  20
ENDBRANCH   3  19
TORSDOF 5
ENDMDL
MODEL 8
REMARK VINA RESULT:      -7.5      1.494      2.120
REMARK  Name = 
REMARK  7 active torsions:
REMARK  status: ('A' for Active; 'I' for Inactive)
REMARK    1  A    between atoms: C_1  and  C_2
REMARK    2  A    between atoms: C_2  and  C_3
REMARK    3  A    between atoms: C_2  and  N_4
REMARK    4  A    between atoms: C_6  and  C_7
REMARK    5  A    between atoms: C_7  and  N_8
REMARK    6  A    between atoms: C_15  and  C_16
REMARK    7  A    between atoms: C_19  and  C_20
REMARK                            x       y       z     vdW  Elec       q    Type
REMARK                         _______ _______ _______ _____ _____    ______ ____
ROOT
ATOM      1  N   UNL     1       2.887   5.858  18.456  0.00  0.00    +0.000 N 
ATOM      2  N   UNL     1       3.818   5.343  17.616  0.00  0.00    +0.000 NA
ATOM      3  C   UNL     1       4.337   6.404  16.984  0.00  0.00    +0.000 A 
ATOM      4  C   UNL     1       3.788   7.602  17.489  0.00  0.00    +0.000 A 
ATOM      5  C   UNL     1       2.864   7.246  18.460  0.00  0.00    +0.000 A 
ENDROOT
BRANCH   5   6
ATOM      6  C   UNL     1       1.969   8.132  19.225  0.00  0.00    +0.000 A 
ATOM      7  C   UNL     1       1.726   7.867  20.582  0.00  0.00    +0.000 A 
ATOM      8  C   UNL     1       0.899   8.695  21.350  0.00  0.00    +0.000 A 
ATOM      9  C   UNL     1       0.294   9.821  20.783  0.00  0.00    +0.000 A 
ATOM     10  C   UNL     1       0.512  10.080  19.424  0.00  0.00    +0.000 A 
ATOM     11  C   UNL     1       1.318   9.232  18.655  0.00  0.00    +0.000 A 
BRANCH   9  12
ATOM     12  C   UNL     1      -0.565  10.757  21.596  0.00  0.00    +0.000 C 
ATOM     13  F   UNL     1      -1.123  10.170  22.692  0.00  0.00    +0.000 F 
ATOM     14  F   UNL     1       0.133  11.830  22.062  0.00  0.00    +0.000 F 
ATOM     15  F   UNL     1      -1.602  11.270  20.878  0.00  0.00    +0.000 F 
ENDBRANCH   9  12
ENDBRANCH   5   6
BRANCH   1  17
ATOM     16  C   UNL     1       1.437   3.837  18.175  0.00  0.00    +0.000 C 
ATOM     17  C   UNL     1       1.954   4.939  19.108  0.00  0.00    +0.000 C 
ATOM     18  C   UNL     1       2.553   4.302  20.368  0.00  0.00    +0.000 C 
ENDBRANCH   1  17
BRANCH   3  19
ATOM     19  C   UNL     1       5.272   6.246  15.810  0.00  0.00    +0.000 C 
BRANCH  19  20
ATOM     20  N   UNL     1       6.708   6.182  16.083  0.00  0.00    +0.000 NA
ATOM     21  C   UNL     1       7.285   4.833  16.105  0.00  0.00    +0.000 C 
ATOM     22  C   UNL     1       7.264   4.154  17.484  0.00  0.00    +0.000 C 
ATOM     23  O   UNL     1       7.860   4.987  18.490  0.00  0.00    +0.000 OA
ATOM     24  C   UNL     1       7.197   6.253  18.564  0.00  0.00    +0.000 C 
ATOM     25  C   UNL     1       7.203   6.978  17.210  0.00  0.00    +0.000 C 
ENDBRANCH  19  20
ENDBRANCH   3  19
TORSDOF 5
ENDMDL
MODEL 9
REMARK VINA RESULT:      -7.5      4.917      7.760
REMARK  Name = 
REMARK  7 active torsions:
REMARK  status: ('A' for Active; 'I' for Inactive)
REMARK    1  A    between atoms: C_1  and  C_2
REMARK    2  A    between atoms: C_2  and  C_3
REMARK    3  A    between atoms: C_2  and  N_4
REMARK    4  A    between atoms: C_6  and  C_7
REMARK    5  A    between atoms: C_7  and  N_8
REMARK    6  A    between atoms: C_15  and  C_16
REMARK    7  A    between atoms: C_19  and  C_20
REMARK                            x       y       z     vdW  Elec       q    Type
REMARK                         _______ _______ _______ _____ _____    ______ ____
ROOT
ATOM      1  N   UNL     1       1.990   5.456  19.929  0.00  0.00    +0.000 N 
ATOM      2  N   UNL     1       1.231   6.195  20.775  0.00  0.00    +0.000 NA
ATOM      3  C   UNL     1       1.488   7.468  20.448  0.00  0.00    +0.000 A 
ATOM      4  C   UNL     1       2.352   7.531  19.334  0.00  0.00    +0.000 A 
ATOM      5  C   UNL     1       2.659   6.224  18.985  0.00  0.00    +0.000 A 
ENDROOT
BRANCH   5   6
ATOM      6  C   UNL     1       3.586   5.761  17.937  0.00  0.00    +0.000 A 
ATOM      7  C   UNL     1       4.426   6.686  17.298  0.00  0.00    +0.000 A 
ATOM      8  C   UNL     1       5.336   6.284  16.312  0.00  0.00    +0.000 A 
ATOM      9  C   UNL     1       5.437   4.941  15.941  0.00  0.00    +0.000 A 
ATOM     10  C   UNL     1       4.587   4.014  16.557  0.00  0.00    +0.000 A 
ATOM     11  C   UNL     1       3.660   4.427  17.523  0.00  0.00    +0.000 A 
BRANCH   9  12
ATOM     12  C   UNL     1       6.440   4.472  14.916  0.00  0.00    +0.000 C 
ATOM     13  F   UNL     1       6.112   3.283  14.338  0.00  0.00    +0.000 F 
ATOM     14  F   UNL     1       6.586   5.357  13.890  0.00  0.00    +0.000 F 
ATOM     15  F   UNL     1       7.684   4.303  15.442  0.00  0.00    +0.000 F 
ENDBRANCH   9  12
ENDBRANCH   5   6
BRANCH   1  17
ATOM     16  C   UNL     1       2.298   3.699  21.685  0.00  0.00    +0.000 C 
ATOM     17  C   UNL     1       2.137   4.025  20.196  0.00  0.00    +0.000 C 
ATOM     18  C   UNL     1       0.977   3.206  19.616  0.00  0.00    +0.000 C 
ENDBRANCH   1  17
BRANCH   3  19
ATOM     19  C   UNL     1       0.993   8.617  21.292  0.00  0.00    +0.000 C 
BRANCH  19  20
ATOM     20  N   UNL     1       1.005   9.955  20.699  0.00  0.00    +0.000 NA
ATOM     21  C   UNL     1       0.544  11.036  21.579  0.00  0.00    +0.000 C 
ATOM     22  C   UNL     1      -0.967  11.310  21.511  0.00  0.00    +0.000 C 
ATOM     23  O   UNL     1      -1.404  11.522  20.161  0.00  0.00    +0.000 OA
ATOM     24  C   UNL     1      -1.080  10.397  19.336  0.00  0.00    +0.000 C 
ATOM     25  C   UNL     1       0.425  10.091  19.360  0.00  0.00    +0.000 C 
ENDBRANCH  19  20
ENDBRANCH   3  19
TORSDOF 5
ENDMDL
