MODEL 1
REMARK VINA RESULT:      -7.4      0.000      0.000
REMARK  Name = 
REMARK  8 active torsions:
REMARK  status: ('A' for Active; 'I' for Inactive)
REMARK    1  A    between atoms: C_1  and  C_2
REMARK    2  A    between atoms: C_4  and  O_5
REMARK    3  A    between atoms: O_5  and  C_6
REMARK    4  A    between atoms: C_6  and  C_7
REMARK    5  A    between atoms: C_7  and  C_8
REMARK    6  A    between atoms: C_8  and  C_9
REMARK    7  A    between atoms: C_9  and  N_10
REMARK    8  A    between atoms: N_17  and  C_18
REMARK                            x       y       z     vdW  Elec       q    Type
REMARK                         _______ _______ _______ _____ _____    ______ ____
ROOT
ATOM      1  C   UNL     1       2.153   9.381  17.873  0.00  0.00    +0.000 C 
ATOM      2  C   UNL     1       2.128   8.137  18.683  0.00  0.00    +0.000 A 
ATOM      3  C   UNL     1       2.684   6.904  18.397  0.00  0.00    +0.000 A 
ATOM      4  C   UNL     1       2.502   6.155  19.560  0.00  0.00    +0.000 A 
ATOM      5  N   UNL     1       1.947   6.851  20.545  0.00  0.00    +0.000 NA
ATOM      6  N   UNL     1       1.618   8.034  19.973  0.00  0.00    +0.000 N 
ENDROOT
BRANCH   6   7
ATOM      7  C   UNL     1       0.851   8.967  20.721  0.00  0.00    +0.000 A 
ATOM      8  C   UNL     1       0.879   8.972  22.119  0.00  0.00    +0.000 A 
ATOM      9  C   UNL     1       0.104   9.891  22.829  0.00  0.00    +0.000 A 
ATOM     10  C   UNL     1      -0.708  10.804  22.149  0.00  0.00    +0.000 A 
ATOM     11 CL   UNL     1      -1.664  11.884  23.099  0.00  0.00    +0.000 Cl
ATOM     12  C   UNL     1      -0.718  10.819  20.749  0.00  0.00    +0.000 A 
ATOM     13 CL   UNL     1      -1.707  11.910  19.847  0.00  0.00    +0.000 Cl
ATOM     14  C   UNL     1       0.080   9.917  20.037  0.00  0.00    +0.000 A 
ENDBRANCH   6   7
BRANCH   4  15
ATOM     15  O   UNL     1       2.904   4.883  19.768  0.00  0.00    +0.000 OA
BRANCH  15  16
ATOM     16  C   UNL     1       2.264   3.944  18.898  0.00  0.00    +0.000 C 
BRANCH  16  17
ATOM     17  C   UNL     1       3.327   3.124  18.175  0.00  0.00    +0.000 C 
BRANCH  17  18
ATOM     18  C   UNL     1       3.734   3.766  16.841  0.00  0.00    +0.000 C 
BRANCH  18  19
ATOM     19  C   UNL     1       5.258   3.819  16.652  0.00  0.00    +0.000 C 
BRANCH  19  20
ATOM     20  N   UNL     1       5.883   4.966  17.322  0.00  0.00    +0.000 NA
ATOM     21  C   UNL     1       7.256   4.690  17.766  0.00  0.00    +0.000 C 
ATOM     22  C   UNL     1       7.764   5.841  18.633  0.00  0.00    +0.000 C 
ATOM     23  C   UNL     1       7.700   7.167  17.887  0.00  0.00    +0.000 C 
ATOM     24  C   UNL     1       6.316   7.386  17.284  0.00  0.00    +0.000 C 
ATOM     25  C   UNL     1       5.846   6.170  16.482  0.00  0.00    +0.000 C 
ENDBRANCH  19  20
ENDBRANCH  18  19
ENDBRANCH  17  18
ENDBRANCH  16  17
ENDBRANCH  15  16
ENDBRANCH   4  15
TORSDOF 7
ENDMDL
MODEL 2
REMARK VINA RESULT:      -7.3      4.985      7.551
REMARK  Name = 
REMARK  8 active torsions:
REMARK  status: ('A' for Active; 'I' for Inactive)
REMARK    1  A    between atoms: C_1  and  C_2
REMARK    2  A    between atoms: C_4  and  O_5
REMARK    3  A    between atoms: O_5  and  C_6
REMARK    4  A    between atoms: C_6  and  C_7
REMARK    5  A    between atoms: C_7  and  C_8
REMARK    6  A    between atoms: C_8  and  C_9
REMARK    7  A    between atoms: C_9  and  N_10
REMARK    8  A    between atoms: N_17  and  C_18
REMARK                            x       y       z     vdW  Elec       q    Type
REMARK                         _______ _______ _______ _____ _____    ______ ____
ROOT
ATOM      1  C   UNL     1       5.046   3.756  15.690  0.00  0.00    +0.000 C 
ATOM      2  C   UNL     1       5.792   4.812  16.422  0.00  0.00    +0.000 A 
ATOM      3  C   UNL     1       6.810   5.630  15.966  0.00  0.00    +0.000 A 
ATOM      4  C   UNL     1       7.029   6.534  17.007  0.00  0.00    +0.000 A 
ATOM      5  N   UNL     1       6.184   6.376  18.018  0.00  0.00    +0.000 NA
ATOM      6  N   UNL     1       5.497   5.251  17.708  0.00  0.00    +0.000 N 
ENDROOT
BRANCH   6   7
ATOM      7  C   UNL     1       4.610   4.702  18.671  0.00  0.00    +0.000 A 
ATOM      8  C   UNL     1       4.727   3.373  19.089  0.00  0.00    +0.000 A 
ATOM      9  C   UNL     1       3.833   2.855  20.029  0.00  0.00    +0.000 A 
ATOM     10  C   UNL     1       2.814   3.658  20.550  0.00  0.00    +0.000 A 
ATOM     11 CL   UNL     1       1.726   2.934  21.679  0.00  0.00    +0.000 Cl
ATOM     12  C   UNL     1       2.710   4.996  20.153  0.00  0.00    +0.000 A 
ATOM     13 CL   UNL     1       1.467   6.039  20.746  0.00  0.00    +0.000 Cl
ATOM     14  C   UNL     1       3.623   5.524  19.234  0.00  0.00    +0.000 A 
ENDBRANCH   6   7
BRANCH   4  15
ATOM     15  O   UNL     1       7.921   7.547  17.016  0.00  0.00    +0.000 OA
BRANCH  15  16
ATOM     16  C   UNL     1       7.878   8.321  18.219  0.00  0.00    +0.000 C 
BRANCH  16  17
ATOM     17  C   UNL     1       8.525   9.678  17.967  0.00  0.00    +0.000 C 
BRANCH  17  18
ATOM     18  C   UNL     1       9.425  10.107  19.134  0.00  0.00    +0.000 C 
BRANCH  18  19
ATOM     19  C   UNL     1       9.391  11.623  19.382  0.00  0.00    +0.000 C 
BRANCH  19  20
ATOM     20  N   UNL     1      10.590  12.315  18.893  0.00  0.00    +0.000 NA
ATOM     21  C   UNL     1      10.468  12.752  17.496  0.00  0.00    +0.000 C 
ATOM     22  C   UNL     1      11.815  13.270  16.994  0.00  0.00    +0.000 C 
ATOM     23  C   UNL     1      12.333  14.405  17.866  0.00  0.00    +0.000 C 
ATOM     24  C   UNL     1      12.311  14.013  19.340  0.00  0.00    +0.000 C 
ATOM     25  C   UNL     1      10.952  13.446  19.757  0.00  0.00    +0.000 C 
ENDBRANCH  19  20
ENDBRANCH  18  19
ENDBRANCH  17  18
ENDBRANCH  16  17
ENDBRANCH  15  16
ENDBRANCH   4  15
TORSDOF 7
ENDMDL
MODEL 3
REMARK VINA RESULT:      -7.3      6.178      8.558
REMARK  Name = 
REMARK  8 active torsions:
REMARK  status: ('A' for Active; 'I' for Inactive)
REMARK    1  A    between atoms: C_1  and  C_2
REMARK    2  A    between atoms: C_4  and  O_5
REMARK    3  A    between atoms: O_5  and  C_6
REMARK    4  A    between atoms: C_6  and  C_7
REMARK    5  A    between atoms: C_7  and  C_8
REMARK    6  A    between atoms: C_8  and  C_9
REMARK    7  A    between atoms: C_9  and  N_10
REMARK    8  A    between atoms: N_17  and  C_18
REMARK                            x       y       z     vdW  Elec       q    Type
REMARK                         _______ _______ _______ _____ _____    ______ ____
ROOT
ATOM      1  C   UNL     1      10.893  11.753  20.419  0.00  0.00    +0.000 C 
ATOM      2  C   UNL     1       9.970  11.283  19.354  0.00  0.00    +0.000 A 
ATOM      3  C   UNL     1       9.436  10.021  19.164  0.00  0.00    +0.000 A 
ATOM      4  C   UNL     1       8.519  10.179  18.123  0.00  0.00    +0.000 A 
ATOM      5  N   UNL     1       8.404  11.439  17.719  0.00  0.00    +0.000 NA
ATOM      6  N   UNL     1       9.373  12.097  18.399  0.00  0.00    +0.000 N 
ENDROOT
BRANCH   6   7
ATOM      7  C   UNL     1       9.633  13.456  18.077  0.00  0.00    +0.000 A 
ATOM      8  C   UNL     1      10.811  13.833  17.425  0.00  0.00    +0.000 A 
ATOM      9  C   UNL     1      11.047  15.178  17.132  0.00  0.00    +0.000 A 
ATOM     10  C   UNL     1      10.114  16.153  17.494  0.00  0.00    +0.000 A 
ATOM     11 CL   UNL     1      10.495  17.798  17.130  0.00  0.00    +0.000 Cl
ATOM     12  C   UNL     1       8.921  15.776  18.122  0.00  0.00    +0.000 A 
ATOM     13 CL   UNL     1       7.730  16.930  18.608  0.00  0.00    +0.000 Cl
ATOM     14  C   UNL     1       8.671  14.426  18.390  0.00  0.00    +0.000 A 
ENDBRANCH   6   7
BRANCH   4  15
ATOM     15  O   UNL     1       7.730   9.220  17.596  0.00  0.00    +0.000 OA
BRANCH  15  16
ATOM     16  C   UNL     1       8.021   7.914  18.103  0.00  0.00    +0.000 C 
BRANCH  16  17
ATOM     17  C   UNL     1       6.983   6.928  17.579  0.00  0.00    +0.000 C 
BRANCH  17  18
ATOM     18  C   UNL     1       7.237   5.504  18.093  0.00  0.00    +0.000 C 
BRANCH  18  19
ATOM     19  C   UNL     1       6.104   4.990  18.996  0.00  0.00    +0.000 C 
BRANCH  19  20
ATOM     20  N   UNL     1       4.796   4.976  18.329  0.00  0.00    +0.000 NA
ATOM     21  C   UNL     1       4.299   3.617  18.077  0.00  0.00    +0.000 C 
ATOM     22  C   UNL     1       3.048   3.675  17.201  0.00  0.00    +0.000 C 
ATOM     23  C   UNL     1       1.963   4.533  17.838  0.00  0.00    +0.000 C 
ATOM     24  C   UNL     1       2.517   5.894  18.251  0.00  0.00    +0.000 C 
ATOM     25  C   UNL     1       3.801   5.760  19.072  0.00  0.00    +0.000 C 
ENDBRANCH  19  20
ENDBRANCH  18  19
ENDBRANCH  17  18
ENDBRANCH  16  17
ENDBRANCH  15  16
ENDBRANCH   4  15
TORSDOF 7
ENDMDL
MODEL 4
REMARK VINA RESULT:      -7.1      2.004      3.712
REMARK  Name = 
REMARK  8 active torsions:
REMARK  status: ('A' for Active; 'I' for Inactive)
REMARK    1  A    between atoms: C_1  and  C_2
REMARK    2  A    between atoms: C_4  and  O_5
REMARK    3  A    between atoms: O_5  and  C_6
REMARK    4  A    between atoms: C_6  and  C_7
REMARK    5  A    between atoms: C_7  and  C_8
REMARK    6  A    between atoms: C_8  and  C_9
REMARK    7  A    between atoms: C_9  and  N_10
REMARK    8  A    between atoms: N_17  and  C_18
REMARK                            x       y       z     vdW  Elec       q    Type
REMARK                         _______ _______ _______ _____ _____    ______ ____
ROOT
ATOM      1  C   UNL     1       1.367   7.013  20.969  0.00  0.00    +0.000 C 
ATOM      2  C   UNL     1       2.070   7.448  19.735  0.00  0.00    +0.000 A 
ATOM      3  C   UNL     1       3.086   6.811  19.046  0.00  0.00    +0.000 A 
ATOM      4  C   UNL     1       3.256   7.571  17.887  0.00  0.00    +0.000 A 
ATOM      5  N   UNL     1       2.385   8.567  17.787  0.00  0.00    +0.000 NA
ATOM      6  N   UNL     1       1.729   8.559  18.972  0.00  0.00    +0.000 N 
ENDROOT
BRANCH   6   7
ATOM      7  C   UNL     1       0.825   9.614  19.262  0.00  0.00    +0.000 A 
ATOM      8  C   UNL     1       0.840  10.260  20.502  0.00  0.00    +0.000 A 
ATOM      9  C   UNL     1      -0.070  11.287  20.764  0.00  0.00    +0.000 A 
ATOM     10  C   UNL     1      -1.003  11.668  19.796  0.00  0.00    +0.000 A 
ATOM     11 CL   UNL     1      -2.118  12.921  20.210  0.00  0.00    +0.000 Cl
ATOM     12  C   UNL     1      -1.003  11.042  18.544  0.00  0.00    +0.000 A 
ATOM     13 CL   UNL     1      -2.136  11.454  17.307  0.00  0.00    +0.000 Cl
ATOM     14  C   UNL     1      -0.073  10.033  18.270  0.00  0.00    +0.000 A 
ENDBRANCH   6   7
BRANCH   4  15
ATOM     15  O   UNL     1       4.128   7.324  16.887  0.00  0.00    +0.000 OA
BRANCH  15  16
ATOM     16  C   UNL     1       5.067   6.291  17.203  0.00  0.00    +0.000 C 
BRANCH  16  17
ATOM     17  C   UNL     1       5.061   5.249  16.091  0.00  0.00    +0.000 C 
BRANCH  17  18
ATOM     18  C   UNL     1       4.553   3.888  16.585  0.00  0.00    +0.000 C 
BRANCH  18  19
ATOM     19  C   UNL     1       4.678   3.728  18.109  0.00  0.00    +0.000 C 
BRANCH  19  20
ATOM     20  N   UNL     1       3.460   3.202  18.736  0.00  0.00    +0.000 NA
ATOM     21  C   UNL     1       3.339   3.574  20.151  0.00  0.00    +0.000 C 
ATOM     22  C   UNL     1       2.170   2.825  20.789  0.00  0.00    +0.000 C 
ATOM     23  C   UNL     1       0.866   3.101  20.051  0.00  0.00    +0.000 C 
ATOM     24  C   UNL     1       1.030   2.870  18.552  0.00  0.00    +0.000 C 
ATOM     25  C   UNL     1       2.255   3.599  17.995  0.00  0.00    +0.000 C 
ENDBRANCH  19  20
ENDBRANCH  18  19
ENDBRANCH  17  18
ENDBRANCH  16  17
ENDBRANCH  15  16
ENDBRANCH   4  15
TORSDOF 7
ENDMDL
MODEL 5
REMARK VINA RESULT:      -7.1      2.338      4.292
REMARK  Name = 
REMARK  8 active torsions:
REMARK  status: ('A' for Active; 'I' for Inactive)
REMARK    1  A    between atoms: C_1  and  C_2
REMARK    2  A    between atoms: C_4  and  O_5
REMARK    3  A    between atoms: O_5  and  C_6
REMARK    4  A    between atoms: C_6  and  C_7
REMARK    5  A    between atoms: C_7  and  C_8
REMARK    6  A    between atoms: C_8  and  C_9
REMARK    7  A    between atoms: C_9  and  N_10
REMARK    8  A    between atoms: N_17  and  C_18
REMARK                            x       y       z     vdW  Elec       q    Type
REMARK                         _______ _______ _______ _____ _____    ______ ____
ROOT
ATOM      1  C   UNL     1       1.297   7.794  20.849  0.00  0.00    +0.000 C 
ATOM      2  C   UNL     1       2.072   7.773  19.582  0.00  0.00    +0.000 A 
ATOM      3  C   UNL     1       2.903   6.783  19.090  0.00  0.00    +0.000 A 
ATOM      4  C   UNL     1       3.238   7.210  17.804  0.00  0.00    +0.000 A 
ATOM      5  N   UNL     1       2.626   8.335  17.454  0.00  0.00    +0.000 NA
ATOM      6  N   UNL     1       1.996   8.738  18.584  0.00  0.00    +0.000 N 
ENDROOT
BRANCH   6   7
ATOM      7  C   UNL     1       1.368  10.012  18.602  0.00  0.00    +0.000 A 
ATOM      8  C   UNL     1      -0.021  10.133  18.696  0.00  0.00    +0.000 A 
ATOM      9  C   UNL     1      -0.613  11.398  18.698  0.00  0.00    +0.000 A 
ATOM     10  C   UNL     1       0.177  12.547  18.598  0.00  0.00    +0.000 A 
ATOM     11 CL   UNL     1      -0.632  14.072  18.569  0.00  0.00    +0.000 Cl
ATOM     12  C   UNL     1       1.570  12.430  18.529  0.00  0.00    +0.000 A 
ATOM     13 CL   UNL     1       2.605  13.806  18.390  0.00  0.00    +0.000 Cl
ATOM     14  C   UNL     1       2.166  11.164  18.556  0.00  0.00    +0.000 A 
ENDBRANCH   6   7
BRANCH   4  15
ATOM     15  O   UNL     1       4.019   6.557  16.918  0.00  0.00    +0.000 OA
BRANCH  15  16
ATOM     16  C   UNL     1       5.146   5.920  17.529  0.00  0.00    +0.000 C 
BRANCH  16  17
ATOM     17  C   UNL     1       5.355   4.550  16.893  0.00  0.00    +0.000 C 
BRANCH  17  18
ATOM     18  C   UNL     1       4.043   3.761  16.791  0.00  0.00    +0.000 C 
BRANCH  18  19
ATOM     19  C   UNL     1       3.913   2.686  17.882  0.00  0.00    +0.000 C 
BRANCH  19  20
ATOM     20  N   UNL     1       3.022   3.083  18.979  0.00  0.00    +0.000 NA
ATOM     21  C   UNL     1       1.625   2.694  18.750  0.00  0.00    +0.000 C 
ATOM     22  C   UNL     1       0.729   3.317  19.820  0.00  0.00    +0.000 C 
ATOM     23  C   UNL     1       1.174   2.914  21.220  0.00  0.00    +0.000 C 
ATOM     24  C   UNL     1       2.666   3.168  21.411  0.00  0.00    +0.000 C 
ATOM     25  C   UNL     1       3.495   2.570  20.272  0.00  0.00    +0.000 C 
ENDBRANCH  19  20
ENDBRANCH  18  19
ENDBRANCH  17  18
ENDBRANCH  16  17
ENDBRANCH  15  16
ENDBRANCH   4  15
TORSDOF 7
ENDMDL
MODEL 6
REMARK VINA RESULT:      -7.0      1.453      2.548
REMARK  Name = 
REMARK  8 active torsions:
REMARK  status: ('A' for Active; 'I' for Inactive)
REMARK    1  A    between atoms: C_1  and  C_2
REMARK    2  A    between atoms: C_4  and  O_5
REMARK    3  A    between atoms: O_5  and  C_6
REMARK    4  A    between atoms: C_6  and  C_7
REMARK    5  A    between atoms: C_7  and  C_8
REMARK    6  A    between atoms: C_8  and  C_9
REMARK    7  A    between atoms: C_9  and  N_10
REMARK    8  A    between atoms: N_17  and  C_18
REMARK                            x       y       z     vdW  Elec       q    Type
REMARK                         _______ _______ _______ _____ _____    ______ ____
ROOT
ATOM      1  C   UNL     1       2.790   8.507  17.744  0.00  0.00    +0.000 C 
ATOM      2  C   UNL     1       2.291   7.630  18.835  0.00  0.00    +0.000 A 
ATOM      3  C   UNL     1       2.544   6.288  19.053  0.00  0.00    +0.000 A 
ATOM      4  C   UNL     1       1.963   6.017  20.293  0.00  0.00    +0.000 A 
ATOM      5  N   UNL     1       1.445   7.094  20.871  0.00  0.00    +0.000 NA
ATOM      6  N   UNL     1       1.549   8.062  19.928  0.00  0.00    +0.000 N 
ENDROOT
BRANCH   6   7
ATOM      7  C   UNL     1       0.934   9.319  20.167  0.00  0.00    +0.000 A 
ATOM      8  C   UNL     1       0.990  10.344  19.218  0.00  0.00    +0.000 A 
ATOM      9  C   UNL     1       0.387  11.575  19.484  0.00  0.00    +0.000 A 
ATOM     10  C   UNL     1      -0.267  11.793  20.700  0.00  0.00    +0.000 A 
ATOM     11 CL   UNL     1      -0.955  13.354  20.970  0.00  0.00    +0.000 Cl
ATOM     12  C   UNL     1      -0.347  10.760  21.642  0.00  0.00    +0.000 A 
ATOM     13 CL   UNL     1      -1.127  10.964  23.170  0.00  0.00    +0.000 Cl
ATOM     14  C   UNL     1       0.232   9.517  21.364  0.00  0.00    +0.000 A 
ENDBRANCH   6   7
BRANCH   4  15
ATOM     15  O   UNL     1       1.971   4.833  20.941  0.00  0.00    +0.000 OA
BRANCH  15  16
ATOM     16  C   UNL     1       0.939   3.945  20.498  0.00  0.00    +0.000 C 
BRANCH  16  17
ATOM     17  C   UNL     1       1.526   2.553  20.296  0.00  0.00    +0.000 C 
BRANCH  17  18
ATOM     18  C   UNL     1       1.939   2.315  18.836  0.00  0.00    +0.000 C 
BRANCH  18  19
ATOM     19  C   UNL     1       3.380   1.794  18.707  0.00  0.00    +0.000 C 
BRANCH  19  20
ATOM     20  N   UNL     1       4.292   2.766  18.093  0.00  0.00    +0.000 NA
ATOM     21  C   UNL     1       3.669   3.521  16.998  0.00  0.00    +0.000 C 
ATOM     22  C   UNL     1       4.725   4.355  16.273  0.00  0.00    +0.000 C 
ATOM     23  C   UNL     1       5.442   5.296  17.232  0.00  0.00    +0.000 C 
ATOM     24  C   UNL     1       5.954   4.541  18.455  0.00  0.00    +0.000 C 
ATOM     25  C   UNL     1       4.861   3.681  19.091  0.00  0.00    +0.000 C 
ENDBRANCH  19  20
ENDBRANCH  18  19
ENDBRANCH  17  18
ENDBRANCH  16  17
ENDBRANCH  15  16
ENDBRANCH   4  15
TORSDOF 7
ENDMDL
MODEL 7
REMARK VINA RESULT:      -7.0      2.788      4.856
REMARK  Name = 
REMARK  8 active torsions:
REMARK  status: ('A' for Active; 'I' for Inactive)
REMARK    1  A    between atoms: C_1  and  C_2
REMARK    2  A    between atoms: C_4  and  O_5
REMARK    3  A    between atoms: O_5  and  C_6
REMARK    4  A    between atoms: C_6  and  C_7
REMARK    5  A    between atoms: C_7  and  C_8
REMARK    6  A    between atoms: C_8  and  C_9
REMARK    7  A    between atoms: C_9  and  N_10
REMARK    8  A    between atoms: N_17  and  C_18
REMARK                            x       y       z     vdW  Elec       q    Type
REMARK                         _______ _______ _______ _____ _____    ______ ____
ROOT
ATOM      1  C   UNL     1      -0.005   9.504  23.468  0.00  0.00    +0.000 C 
ATOM      2  C   UNL     1      -0.044  10.061  22.091  0.00  0.00    +0.000 A 
ATOM      3  C   UNL     1       0.462   9.522  20.923  0.00  0.00    +0.000 A 
ATOM      4  C   UNL     1       0.009  10.375  19.915  0.00  0.00    +0.000 A 
ATOM      5  N   UNL     1      -0.783  11.339  20.368  0.00  0.00    +0.000 NA
ATOM      6  N   UNL     1      -0.727  11.212  21.715  0.00  0.00    +0.000 N 
ENDROOT
BRANCH   6   7
ATOM      7  C   UNL     1      -1.345  12.204  22.523  0.00  0.00    +0.000 A 
ATOM      8  C   UNL     1      -0.751  13.455  22.714  0.00  0.00    +0.000 A 
ATOM      9  C   UNL     1      -1.374  14.407  23.524  0.00  0.00    +0.000 A 
ATOM     10  C   UNL     1      -2.587  14.113  24.153  0.00  0.00    +0.000 A 
ATOM     11 CL   UNL     1      -3.276  15.329  25.168  0.00  0.00    +0.000 Cl
ATOM     12  C   UNL     1      -3.198  12.871  23.942  0.00  0.00    +0.000 A 
ATOM     13 CL   UNL     1      -4.690  12.437  24.697  0.00  0.00    +0.000 Cl
ATOM     14  C   UNL     1      -2.589  11.927  23.108  0.00  0.00    +0.000 A 
ENDBRANCH   6   7
BRANCH   4  15
ATOM     15  O   UNL     1       0.233  10.243  18.591  0.00  0.00    +0.000 OA
BRANCH  15  16
ATOM     16  C   UNL     1       1.610  10.012  18.276  0.00  0.00    +0.000 C 
BRANCH  16  17
ATOM     17  C   UNL     1       1.754   8.642  17.624  0.00  0.00    +0.000 C 
BRANCH  17  18
ATOM     18  C   UNL     1       2.526   7.662  18.519  0.00  0.00    +0.000 C 
BRANCH  18  19
ATOM     19  C   UNL     1       3.622   6.901  17.756  0.00  0.00    +0.000 C 
BRANCH  19  20
ATOM     20  N   UNL     1       3.560   5.448  17.955  0.00  0.00    +0.000 NA
ATOM     21  C   UNL     1       4.243   5.010  19.179  0.00  0.00    +0.000 C 
ATOM     22  C   UNL     1       4.322   3.484  19.214  0.00  0.00    +0.000 C 
ATOM     23  C   UNL     1       2.939   2.855  19.119  0.00  0.00    +0.000 C 
ATOM     24  C   UNL     1       2.160   3.427  17.937  0.00  0.00    +0.000 C 
ATOM     25  C   UNL     1       2.176   4.957  17.933  0.00  0.00    +0.000 C 
ENDBRANCH  19  20
ENDBRANCH  18  19
ENDBRANCH  17  18
ENDBRANCH  16  17
ENDBRANCH  15  16
ENDBRANCH   4  15
TORSDOF 7
ENDMDL
MODEL 8
REMARK VINA RESULT:      -6.9      2.058      4.092
REMARK  Name = 
REMARK  8 active torsions:
REMARK  status: ('A' for Active; 'I' for Inactive)
REMARK    1  A    between atoms: C_1  and  C_2
REMARK    2  A    between atoms: C_4  and  O_5
REMARK    3  A    between atoms: O_5  and  C_6
REMARK    4  A    between atoms: C_6  and  C_7
REMARK    5  A    between atoms: C_7  and  C_8
REMARK    6  A    between atoms: C_8  and  C_9
REMARK    7  A    between atoms: C_9  and  N_10
REMARK    8  A    between atoms: N_17  and  C_18
REMARK                            x       y       z     vdW  Elec       q    Type
REMARK                         _______ _______ _______ _____ _____    ______ ____
ROOT
ATOM      1  C   UNL     1       0.525   9.210  22.020  0.00  0.00    +0.000 C 
ATOM      2  C   UNL     1       1.177   8.811  20.746  0.00  0.00    +0.000 A 
ATOM      3  C   UNL     1       1.772   7.608  20.416  0.00  0.00    +0.000 A 
ATOM      4  C   UNL     1       2.070   7.722  19.057  0.00  0.00    +0.000 A 
ATOM      5  N   UNL     1       1.643   8.861  18.526  0.00  0.00    +0.000 NA
ATOM      6  N   UNL     1       1.192   9.576  19.584  0.00  0.00    +0.000 N 
ENDROOT
BRANCH   6   7
ATOM      7  C   UNL     1       0.807  10.928  19.384  0.00  0.00    +0.000 A 
ATOM      8  C   UNL     1       1.675  11.847  18.786  0.00  0.00    +0.000 A 
ATOM      9  C   UNL     1       1.275  13.174  18.613  0.00  0.00    +0.000 A 
ATOM     10  C   UNL     1       0.013  13.592  19.043  0.00  0.00    +0.000 A 
ATOM     11 CL   UNL     1      -0.393  15.257  18.828  0.00  0.00    +0.000 Cl
ATOM     12  C   UNL     1      -0.869  12.668  19.618  0.00  0.00    +0.000 A 
ATOM     13 CL   UNL     1      -2.437  13.120  20.183  0.00  0.00    +0.000 Cl
ATOM     14  C   UNL     1      -0.480  11.333  19.765  0.00  0.00    +0.000 A 
ENDBRANCH   6   7
BRANCH   4  15
ATOM     15  O   UNL     1       2.645   6.781  18.279  0.00  0.00    +0.000 OA
BRANCH  15  16
ATOM     16  C   UNL     1       3.755   7.278  17.524  0.00  0.00    +0.000 C 
BRANCH  16  17
ATOM     17  C   UNL     1       4.818   6.191  17.417  0.00  0.00    +0.000 C 
BRANCH  17  18
ATOM     18  C   UNL     1       4.204   4.822  17.092  0.00  0.00    +0.000 C 
BRANCH  18  19
ATOM     19  C   UNL     1       4.547   3.756  18.145  0.00  0.00    +0.000 C 
BRANCH  19  20
ATOM     20  N   UNL     1       3.381   3.310  18.916  0.00  0.00    +0.000 NA
ATOM     21  C   UNL     1       3.215   4.043  20.177  0.00  0.00    +0.000 C 
ATOM     22  C   UNL     1       2.119   3.392  21.019  0.00  0.00    +0.000 C 
ATOM     23  C   UNL     1       0.800   3.330  20.259  0.00  0.00    +0.000 C 
ATOM     24  C   UNL     1       0.996   2.713  18.878  0.00  0.00    +0.000 C 
ATOM     25  C   UNL     1       2.149   3.372  18.118  0.00  0.00    +0.000 C 
ENDBRANCH  19  20
ENDBRANCH  18  19
ENDBRANCH  17  18
ENDBRANCH  16  17
ENDBRANCH  15  16
ENDBRANCH   4  15
TORSDOF 7
ENDMDL
MODEL 9
REMARK VINA RESULT:      -6.9      2.457      3.941
REMARK  Name = 
REMARK  8 active torsions:
REMARK  status: ('A' for Active; 'I' for Inactive)
REMARK    1  A    between atoms: C_1  and  C_2
REMARK    2  A    between atoms: C_4  and  O_5
REMARK    3  A    between atoms: O_5  and  C_6
REMARK    4  A    between atoms: C_6  and  C_7
REMARK    5  A    between atoms: C_7  and  C_8
REMARK    6  A    between atoms: C_8  and  C_9
REMARK    7  A    between atoms: C_9  and  N_10
REMARK    8  A    between atoms: N_17  and  C_18
REMARK                            x       y       z     vdW  Elec       q    Type
REMARK                         _______ _______ _______ _____ _____    ______ ____
ROOT
ATOM      1  C   UNL     1       1.117   4.104  18.407  0.00  0.00    +0.000 C 
ATOM      2  C   UNL     1       2.512   4.371  18.843  0.00  0.00    +0.000 A 
ATOM      3  C   UNL     1       3.610   3.533  18.799  0.00  0.00    +0.000 A 
ATOM      4  C   UNL     1       4.685   4.338  19.179  0.00  0.00    +0.000 A 
ATOM      5  N   UNL     1       4.339   5.604  19.380  0.00  0.00    +0.000 NA
ATOM      6  N   UNL     1       2.989   5.602  19.280  0.00  0.00    +0.000 N 
ENDROOT
BRANCH   6   7
ATOM      7  C   UNL     1       2.276   6.787  19.605  0.00  0.00    +0.000 A 
ATOM      8  C   UNL     1       1.580   6.905  20.812  0.00  0.00    +0.000 A 
ATOM      9  C   UNL     1       0.876   8.077  21.100  0.00  0.00    +0.000 A 
ATOM     10  C   UNL     1       0.857   9.131  20.183  0.00  0.00    +0.000 A 
ATOM     11 CL   UNL     1      -0.066  10.532  20.596  0.00  0.00    +0.000 Cl
ATOM     12  C   UNL     1       1.575   9.027  18.986  0.00  0.00    +0.000 A 
ATOM     13 CL   UNL     1       1.584  10.286  17.803  0.00  0.00    +0.000 Cl
ATOM     14  C   UNL     1       2.303   7.865  18.709  0.00  0.00    +0.000 A 
ENDBRANCH   6   7
BRANCH   4  15
ATOM     15  O   UNL     1       5.978   3.964  19.264  0.00  0.00    +0.000 OA
BRANCH  15  16
ATOM     16  C   UNL     1       6.884   5.072  19.270  0.00  0.00    +0.000 C 
BRANCH  16  17
ATOM     17  C   UNL     1       7.724   5.042  17.998  0.00  0.00    +0.000 C 
BRANCH  17  18
ATOM     18  C   UNL     1       7.005   5.721  16.823  0.00  0.00    +0.000 C 
BRANCH  18  19
ATOM     19  C   UNL     1       6.099   4.753  16.046  0.00  0.00    +0.000 C 
BRANCH  19  20
ATOM     20  N   UNL     1       6.626   4.407  14.721  0.00  0.00    +0.000 NA
ATOM     21  C   UNL     1       5.586   3.934  13.797  0.00  0.00    +0.000 C 
ATOM     22  C   UNL     1       6.230   3.397  12.519  0.00  0.00    +0.000 C 
ATOM     23  C   UNL     1       7.099   4.453  11.850  0.00  0.00    +0.000 C 
ATOM     24  C   UNL     1       8.078   5.065  12.848  0.00  0.00    +0.000 C 
ATOM     25  C   UNL     1       7.373   5.523  14.127  0.00  0.00    +0.000 C 
ENDBRANCH  19  20
ENDBRANCH  18  19
ENDBRANCH  17  18
ENDBRANCH  16  17
ENDBRANCH  15  16
ENDBRANCH   4  15
TORSDOF 7
ENDMDL
