MODEL 1
REMARK VINA RESULT:      -7.4      0.000      0.000
REMARK  Name = 
REMARK  8 active torsions:
REMARK  status: ('A' for Active; 'I' for Inactive)
REMARK    1  A    between atoms: C_1  and  C_2
REMARK    2  A    between atoms: C_2  and  O_3
REMARK    3  A    between atoms: O_3  and  C_4
REMARK    4  A    between atoms: C_10  and  C_12
REMARK    5  A    between atoms: C_12  and  O_13
REMARK    6  A    between atoms: O_13  and  C_14
REMARK    7  A    between atoms: C_14  and  C_16
REMARK    8  A    between atoms: C_19  and  N_20
REMARK                            x       y       z     vdW  Elec       q    Type
REMARK                         _______ _______ _______ _____ _____    ______ ____
ROOT
ATOM      1  C   UNL     1       2.671   5.791  19.741  0.00  0.00    +0.000 C 
ENDROOT
BRANCH   1   8
ATOM      2  C   UNL     1      -0.260  11.365  20.892  0.00  0.00    +0.000 C 
ATOM      3  O   UNL     1      -0.514  12.318  20.165  0.00  0.00    +0.000 OA
ATOM      4  N   UNL     1       0.063  10.109  20.428  0.00  0.00    +0.000 N 
ATOM      5  C   UNL     1       0.201   9.882  18.991  0.00  0.00    +0.000 C 
ATOM      6  C   UNL     1       1.599   9.344  18.649  0.00  0.00    +0.000 C 
ATOM      7  N   UNL     1       1.937   8.180  19.483  0.00  0.00    +0.000 N 
ATOM      8  C   UNL     1       2.349   7.009  18.866  0.00  0.00    +0.000 C 
ATOM      9  O   UNL     1       2.464   6.932  17.639  0.00  0.00    +0.000 OA
ATOM     10  C   UNL     1       1.813   8.419  20.930  0.00  0.00    +0.000 C 
ATOM     11  C   UNL     1       0.420   8.973  21.285  0.00  0.00    +0.000 C 
BRANCH   2  12
ATOM     12  O   UNL     1      -0.181  11.448  22.246  0.00  0.00    +0.000 OA
BRANCH  12  14
ATOM     13  C   UNL     1      -2.384  11.863  23.071  0.00  0.00    +0.000 C 
ATOM     14  C   UNL     1      -1.004  12.458  22.842  0.00  0.00    +0.000 C 
ENDBRANCH  12  14
ENDBRANCH   2  12
ENDBRANCH   1   8
BRANCH   1  15
ATOM     15  O   UNL     1       4.081   5.552  19.805  0.00  0.00    +0.000 OA
BRANCH  15  16
ATOM     16  C   UNL     1       4.456   4.354  19.301  0.00  0.00    +0.000 C 
ATOM     17  O   UNL     1       4.173   3.260  19.767  0.00  0.00    +0.000 OA
BRANCH  16  18
ATOM     18  C   UNL     1       5.190   4.514  18.023  0.00  0.00    +0.000 A 
ATOM     19  C   UNL     1       4.553   4.003  16.876  0.00  0.00    +0.000 A 
ATOM     20  C   UNL     1       5.155   4.101  15.619  0.00  0.00    +0.000 A 
ATOM     21  C   UNL     1       6.410   4.710  15.507  0.00  0.00    +0.000 A 
ATOM     22  C   UNL     1       7.067   5.203  16.642  0.00  0.00    +0.000 A 
ATOM     23  C   UNL     1       6.462   5.094  17.902  0.00  0.00    +0.000 A 
ATOM     24 CL   UNL     1       7.401   5.625  19.253  0.00  0.00    +0.000 Cl
BRANCH  21  25
ATOM     25  N   UNL     1       7.054   4.823  14.191  0.00  0.00    +0.000 N 
ATOM     26  O   UNL     1       7.988   5.633  14.078  0.00  0.00    +0.000 OA
ATOM     27  O   UNL     1       6.626   4.108  13.275  0.00  0.00    +0.000 OA
ENDBRANCH  21  25
ENDBRANCH  16  18
ENDBRANCH  15  16
ENDBRANCH   1  15
TORSDOF 7
ENDMDL
MODEL 2
REMARK VINA RESULT:      -7.2      1.188      1.625
REMARK  Name = 
REMARK  8 active torsions:
REMARK  status: ('A' for Active; 'I' for Inactive)
REMARK    1  A    between atoms: C_1  and  C_2
REMARK    2  A    between atoms: C_2  and  O_3
REMARK    3  A    between atoms: O_3  and  C_4
REMARK    4  A    between atoms: C_10  and  C_12
REMARK    5  A    between atoms: C_12  and  O_13
REMARK    6  A    between atoms: O_13  and  C_14
REMARK    7  A    between atoms: C_14  and  C_16
REMARK    8  A    between atoms: C_19  and  N_20
REMARK                            x       y       z     vdW  Elec       q    Type
REMARK                         _______ _______ _______ _____ _____    ______ ____
ROOT
ATOM      1  C   UNL     1       2.480   5.819  19.692  0.00  0.00    +0.000 C 
ENDROOT
BRANCH   1   8
ATOM      2  C   UNL     1      -0.395  11.499  20.372  0.00  0.00    +0.000 C 
ATOM      3  O   UNL     1      -0.485  12.463  19.620  0.00  0.00    +0.000 OA
ATOM      4  N   UNL     1      -0.045  10.232  19.959  0.00  0.00    +0.000 N 
ATOM      5  C   UNL     1       0.331  10.003  18.565  0.00  0.00    +0.000 C 
ATOM      6  C   UNL     1       1.745   9.414  18.464  0.00  0.00    +0.000 C 
ATOM      7  N   UNL     1       1.891   8.236  19.333  0.00  0.00    +0.000 N 
ATOM      8  C   UNL     1       2.359   7.051  18.786  0.00  0.00    +0.000 C 
ATOM      9  O   UNL     1       2.681   6.973  17.596  0.00  0.00    +0.000 OA
ATOM     10  C   UNL     1       1.529   8.476  20.740  0.00  0.00    +0.000 C 
ATOM     11  C   UNL     1       0.117   9.082  20.854  0.00  0.00    +0.000 C 
BRANCH   2  12
ATOM     12  O   UNL     1      -0.548  11.576  21.720  0.00  0.00    +0.000 OA
BRANCH  12  14
ATOM     13  C   UNL     1      -2.348  11.785  23.275  0.00  0.00    +0.000 C 
ATOM     14  C   UNL     1      -1.571  12.474  22.166  0.00  0.00    +0.000 C 
ENDBRANCH  12  14
ENDBRANCH   2  12
ENDBRANCH   1   8
BRANCH   1  15
ATOM     15  O   UNL     1       3.850   5.498  19.957  0.00  0.00    +0.000 OA
BRANCH  15  16
ATOM     16  C   UNL     1       4.216   4.270  19.526  0.00  0.00    +0.000 C 
ATOM     17  O   UNL     1       3.992   3.213  20.098  0.00  0.00    +0.000 OA
BRANCH  16  18
ATOM     18  C   UNL     1       4.855   4.335  18.190  0.00  0.00    +0.000 A 
ATOM     19  C   UNL     1       6.156   4.872  18.152  0.00  0.00    +0.000 A 
ATOM     20  C   UNL     1       6.851   4.980  16.945  0.00  0.00    +0.000 A 
ATOM     21  C   UNL     1       6.238   4.551  15.762  0.00  0.00    +0.000 A 
ATOM     22  C   UNL     1       4.936   4.036  15.779  0.00  0.00    +0.000 A 
ATOM     23  C   UNL     1       4.239   3.939  16.993  0.00  0.00    +0.000 A 
ATOM     24 CL   UNL     1       2.600   3.400  16.895  0.00  0.00    +0.000 Cl
BRANCH  21  25
ATOM     25  N   UNL     1       6.959   4.655  14.486  0.00  0.00    +0.000 N 
ATOM     26  O   UNL     1       6.608   3.900  13.566  0.00  0.00    +0.000 OA
ATOM     27  O   UNL     1       7.874   5.486  14.404  0.00  0.00    +0.000 OA
ENDBRANCH  21  25
ENDBRANCH  16  18
ENDBRANCH  15  16
ENDBRANCH   1  15
TORSDOF 7
ENDMDL
MODEL 3
REMARK VINA RESULT:      -7.2      1.608      2.043
REMARK  Name = 
REMARK  8 active torsions:
REMARK  status: ('A' for Active; 'I' for Inactive)
REMARK    1  A    between atoms: C_1  and  C_2
REMARK    2  A    between atoms: C_2  and  O_3
REMARK    3  A    between atoms: O_3  and  C_4
REMARK    4  A    between atoms: C_10  and  C_12
REMARK    5  A    between atoms: C_12  and  O_13
REMARK    6  A    between atoms: O_13  and  C_14
REMARK    7  A    between atoms: C_14  and  C_16
REMARK    8  A    between atoms: C_19  and  N_20
REMARK                            x       y       z     vdW  Elec       q    Type
REMARK                         _______ _______ _______ _____ _____    ______ ____
ROOT
ATOM      1  C   UNL     1       1.935   5.670  20.637  0.00  0.00    +0.000 C 
ENDROOT
BRANCH   1   8
ATOM      2  C   UNL     1      -0.204  11.678  21.199  0.00  0.00    +0.000 C 
ATOM      3  O   UNL     1      -0.192  12.625  20.420  0.00  0.00    +0.000 OA
ATOM      4  N   UNL     1      -0.021  10.367  20.818  0.00  0.00    +0.000 N 
ATOM      5  C   UNL     1       0.291  10.055  19.425  0.00  0.00    +0.000 C 
ATOM      6  C   UNL     1       1.620   9.292  19.314  0.00  0.00    +0.000 C 
ATOM      7  N   UNL     1       1.640   8.130  20.216  0.00  0.00    +0.000 N 
ATOM      8  C   UNL     1       1.946   6.882  19.696  0.00  0.00    +0.000 C 
ATOM      9  O   UNL     1       2.228   6.731  18.503  0.00  0.00    +0.000 OA
ATOM     10  C   UNL     1       1.342   8.452  21.621  0.00  0.00    +0.000 C 
ATOM     11  C   UNL     1       0.018   9.231  21.745  0.00  0.00    +0.000 C 
BRANCH   2  12
ATOM     12  O   UNL     1      -0.315  11.811  22.546  0.00  0.00    +0.000 OA
BRANCH  12  14
ATOM     13  C   UNL     1      -2.575  11.946  23.306  0.00  0.00    +0.000 C 
ATOM     14  C   UNL     1      -1.317  12.736  22.986  0.00  0.00    +0.000 C 
ENDBRANCH  12  14
ENDBRANCH   2  12
ENDBRANCH   1   8
BRANCH   1  15
ATOM     15  O   UNL     1       1.992   4.441  19.906  0.00  0.00    +0.000 OA
BRANCH  15  16
ATOM     16  C   UNL     1       3.161   3.776  20.045  0.00  0.00    +0.000 C 
ATOM     17  O   UNL     1       3.392   2.896  20.861  0.00  0.00    +0.000 OA
BRANCH  16  18
ATOM     18  C   UNL     1       4.135   4.174  19.001  0.00  0.00    +0.000 A 
ATOM     19  C   UNL     1       5.259   4.897  19.447  0.00  0.00    +0.000 A 
ATOM     20  C   UNL     1       6.240   5.321  18.548  0.00  0.00    +0.000 A 
ATOM     21  C   UNL     1       6.095   5.025  17.188  0.00  0.00    +0.000 A 
ATOM     22  C   UNL     1       4.973   4.328  16.725  0.00  0.00    +0.000 A 
ATOM     23  C   UNL     1       3.986   3.912  17.631  0.00  0.00    +0.000 A 
ATOM     24 CL   UNL     1       2.586   3.162  16.950  0.00  0.00    +0.000 Cl
BRANCH  21  25
ATOM     25  N   UNL     1       7.121   5.463  16.231  0.00  0.00    +0.000 N 
ATOM     26  O   UNL     1       7.432   4.675  15.324  0.00  0.00    +0.000 OA
ATOM     27  O   UNL     1       7.617   6.587  16.388  0.00  0.00    +0.000 OA
ENDBRANCH  21  25
ENDBRANCH  16  18
ENDBRANCH  15  16
ENDBRANCH   1  15
TORSDOF 7
ENDMDL
MODEL 4
REMARK VINA RESULT:      -6.9      2.909      9.575
REMARK  Name = 
REMARK  8 active torsions:
REMARK  status: ('A' for Active; 'I' for Inactive)
REMARK    1  A    between atoms: C_1  and  C_2
REMARK    2  A    between atoms: C_2  and  O_3
REMARK    3  A    between atoms: O_3  and  C_4
REMARK    4  A    between atoms: C_10  and  C_12
REMARK    5  A    between atoms: C_12  and  O_13
REMARK    6  A    between atoms: O_13  and  C_14
REMARK    7  A    between atoms: C_14  and  C_16
REMARK    8  A    between atoms: C_19  and  N_20
REMARK                            x       y       z     vdW  Elec       q    Type
REMARK                         _______ _______ _______ _____ _____    ______ ____
ROOT
ATOM      1  C   UNL     1       1.724   7.148  18.668  0.00  0.00    +0.000 C 
ENDROOT
BRANCH   1   8
ATOM      2  C   UNL     1       7.217   4.805  16.362  0.00  0.00    +0.000 C 
ATOM      3  O   UNL     1       8.098   4.129  16.882  0.00  0.00    +0.000 OA
ATOM      4  N   UNL     1       5.947   4.939  16.876  0.00  0.00    +0.000 N 
ATOM      5  C   UNL     1       5.616   4.321  18.159  0.00  0.00    +0.000 C 
ATOM      6  C   UNL     1       5.124   5.370  19.167  0.00  0.00    +0.000 C 
ATOM      7  N   UNL     1       4.046   6.192  18.593  0.00  0.00    +0.000 N 
ATOM      8  C   UNL     1       2.853   6.314  19.287  0.00  0.00    +0.000 C 
ATOM      9  O   UNL     1       2.687   5.774  20.386  0.00  0.00    +0.000 OA
ATOM     10  C   UNL     1       4.391   6.826  17.310  0.00  0.00    +0.000 C 
ATOM     11  C   UNL     1       4.900   5.786  16.294  0.00  0.00    +0.000 C 
BRANCH   2  12
ATOM     12  O   UNL     1       7.409   5.576  15.260  0.00  0.00    +0.000 OA
BRANCH  12  14
ATOM     13  C   UNL     1       8.161   5.472  12.995  0.00  0.00    +0.000 C 
ATOM     14  C   UNL     1       7.175   4.917  14.009  0.00  0.00    +0.000 C 
ENDBRANCH  12  14
ENDBRANCH   2  12
ENDBRANCH   1   8
BRANCH   1  15
ATOM     15  O   UNL     1       1.691   8.470  19.214  0.00  0.00    +0.000 OA
BRANCH  15  16
ATOM     16  C   UNL     1       1.495   9.439  18.290  0.00  0.00    +0.000 C 
ATOM     17  O   UNL     1       2.237   9.696  17.353  0.00  0.00    +0.000 OA
BRANCH  16  18
ATOM     18  C   UNL     1       0.190  10.114  18.485  0.00  0.00    +0.000 A 
ATOM     19  C   UNL     1      -0.841   9.733  17.604  0.00  0.00    +0.000 A 
ATOM     20  C   UNL     1      -2.112  10.306  17.700  0.00  0.00    +0.000 A 
ATOM     21  C   UNL     1      -2.354  11.272  18.683  0.00  0.00    +0.000 A 
ATOM     22  C   UNL     1      -1.334  11.678  19.551  0.00  0.00    +0.000 A 
ATOM     23  C   UNL     1      -0.057  11.106  19.445  0.00  0.00    +0.000 A 
ATOM     24 CL   UNL     1       1.163  11.756  20.483  0.00  0.00    +0.000 Cl
BRANCH  21  25
ATOM     25  N   UNL     1      -3.687  11.880  18.797  0.00  0.00    +0.000 N 
ATOM     26  O   UNL     1      -4.428  11.828  17.803  0.00  0.00    +0.000 OA
ATOM     27  O   UNL     1      -3.991  12.409  19.875  0.00  0.00    +0.000 OA
ENDBRANCH  21  25
ENDBRANCH  16  18
ENDBRANCH  15  16
ENDBRANCH   1  15
TORSDOF 7
ENDMDL
MODEL 5
REMARK VINA RESULT:      -6.9      3.427      8.100
REMARK  Name = 
REMARK  8 active torsions:
REMARK  status: ('A' for Active; 'I' for Inactive)
REMARK    1  A    between atoms: C_1  and  C_2
REMARK    2  A    between atoms: C_2  and  O_3
REMARK    3  A    between atoms: O_3  and  C_4
REMARK    4  A    between atoms: C_10  and  C_12
REMARK    5  A    between atoms: C_12  and  O_13
REMARK    6  A    between atoms: O_13  and  C_14
REMARK    7  A    between atoms: C_14  and  C_16
REMARK    8  A    between atoms: C_19  and  N_20
REMARK                            x       y       z     vdW  Elec       q    Type
REMARK                         _______ _______ _______ _____ _____    ______ ____
ROOT
ATOM      1  C   UNL     1       3.354   1.468  18.631  0.00  0.00    +0.000 C 
ENDROOT
BRANCH   1   8
ATOM      2  C   UNL     1       7.163   5.666  15.656  0.00  0.00    +0.000 C 
ATOM      3  O   UNL     1       7.925   6.524  16.087  0.00  0.00    +0.000 OA
ATOM      4  N   UNL     1       6.678   4.620  16.410  0.00  0.00    +0.000 N 
ATOM      5  C   UNL     1       7.002   4.542  17.833  0.00  0.00    +0.000 C 
ATOM      6  C   UNL     1       5.727   4.523  18.689  0.00  0.00    +0.000 C 
ATOM      7  N   UNL     1       4.791   3.488  18.223  0.00  0.00    +0.000 N 
ATOM      8  C   UNL     1       4.306   2.561  19.132  0.00  0.00    +0.000 C 
ATOM      9  O   UNL     1       4.619   2.604  20.326  0.00  0.00    +0.000 OA
ATOM     10  C   UNL     1       4.454   3.581  16.792  0.00  0.00    +0.000 C 
ATOM     11  C   UNL     1       5.725   3.617  15.922  0.00  0.00    +0.000 C 
BRANCH   2  12
ATOM     12  O   UNL     1       6.634   5.686  14.405  0.00  0.00    +0.000 OA
BRANCH  12  14
ATOM     13  C   UNL     1       6.748   4.114  12.609  0.00  0.00    +0.000 C 
ATOM     14  C   UNL     1       7.496   5.195  13.371  0.00  0.00    +0.000 C 
ENDBRANCH  12  14
ENDBRANCH   2  12
ENDBRANCH   1   8
BRANCH   1  15
ATOM     15  O   UNL     1       2.125   1.469  19.365  0.00  0.00    +0.000 OA
BRANCH  15  16
ATOM     16  C   UNL     1       1.160   2.241  18.815  0.00  0.00    +0.000 C 
ATOM     17  O   UNL     1       0.165   1.838  18.232  0.00  0.00    +0.000 OA
BRANCH  16  18
ATOM     18  C   UNL     1       1.399   3.678  19.089  0.00  0.00    +0.000 A 
ATOM     19  C   UNL     1       1.503   4.515  17.961  0.00  0.00    +0.000 A 
ATOM     20  C   UNL     1       1.726   5.887  18.105  0.00  0.00    +0.000 A 
ATOM     21  C   UNL     1       1.852   6.428  19.390  0.00  0.00    +0.000 A 
ATOM     22  C   UNL     1       1.774   5.606  20.521  0.00  0.00    +0.000 A 
ATOM     23  C   UNL     1       1.558   4.228  20.370  0.00  0.00    +0.000 A 
ATOM     24 CL   UNL     1       1.594   3.284  21.818  0.00  0.00    +0.000 Cl
BRANCH  21  25
ATOM     25  N   UNL     1       2.083   7.870  19.556  0.00  0.00    +0.000 N 
ATOM     26  O   UNL     1       2.546   8.491  18.587  0.00  0.00    +0.000 OA
ATOM     27  O   UNL     1       1.806   8.377  20.652  0.00  0.00    +0.000 OA
ENDBRANCH  21  25
ENDBRANCH  16  18
ENDBRANCH  15  16
ENDBRANCH   1  15
TORSDOF 7
ENDMDL
MODEL 6
REMARK VINA RESULT:      -6.9      2.835      8.433
REMARK  Name = 
REMARK  8 active torsions:
REMARK  status: ('A' for Active; 'I' for Inactive)
REMARK    1  A    between atoms: C_1  and  C_2
REMARK    2  A    between atoms: C_2  and  O_3
REMARK    3  A    between atoms: O_3  and  C_4
REMARK    4  A    between atoms: C_10  and  C_12
REMARK    5  A    between atoms: C_12  and  O_13
REMARK    6  A    between atoms: O_13  and  C_14
REMARK    7  A    between atoms: C_14  and  C_16
REMARK    8  A    between atoms: C_19  and  N_20
REMARK                            x       y       z     vdW  Elec       q    Type
REMARK                         _______ _______ _______ _____ _____    ______ ____
ROOT
ATOM      1  C   UNL     1       4.098   3.072  19.540  0.00  0.00    +0.000 C 
ENDROOT
BRANCH   1   8
ATOM      2  C   UNL     1       6.968   4.744  14.068  0.00  0.00    +0.000 C 
ATOM      3  O   UNL     1       7.831   5.578  13.821  0.00  0.00    +0.000 OA
ATOM      4  N   UNL     1       6.702   4.264  15.331  0.00  0.00    +0.000 N 
ATOM      5  C   UNL     1       7.412   4.820  16.481  0.00  0.00    +0.000 C 
ATOM      6  C   UNL     1       6.430   5.398  17.510  0.00  0.00    +0.000 C 
ATOM      7  N   UNL     1       5.387   4.419  17.856  0.00  0.00    +0.000 N 
ATOM      8  C   UNL     1       5.166   4.116  19.190  0.00  0.00    +0.000 C 
ATOM      9  O   UNL     1       5.803   4.670  20.092  0.00  0.00    +0.000 OA
ATOM     10  C   UNL     1       4.663   3.875  16.695  0.00  0.00    +0.000 C 
ATOM     11  C   UNL     1       5.638   3.305  15.648  0.00  0.00    +0.000 C 
BRANCH   2  12
ATOM     12  O   UNL     1       6.108   4.250  13.139  0.00  0.00    +0.000 OA
BRANCH  12  14
ATOM     13  C   UNL     1       5.725   2.400  11.676  0.00  0.00    +0.000 C 
ATOM     14  C   UNL     1       6.716   3.471  12.101  0.00  0.00    +0.000 C 
ENDBRANCH  12  14
ENDBRANCH   2  12
ENDBRANCH   1   8
BRANCH   1  15
ATOM     15  O   UNL     1       3.347   3.460  20.695  0.00  0.00    +0.000 OA
BRANCH  15  16
ATOM     16  C   UNL     1       2.067   3.803  20.425  0.00  0.00    +0.000 C 
ATOM     17  O   UNL     1       1.076   3.141  20.696  0.00  0.00    +0.000 OA
BRANCH  16  18
ATOM     18  C   UNL     1       1.985   5.159  19.832  0.00  0.00    +0.000 A 
ATOM     19  C   UNL     1       2.092   6.235  20.734  0.00  0.00    +0.000 A 
ATOM     20  C   UNL     1       2.029   7.556  20.283  0.00  0.00    +0.000 A 
ATOM     21  C   UNL     1       1.853   7.804  18.917  0.00  0.00    +0.000 A 
ATOM     22  C   UNL     1       1.723   6.745  18.010  0.00  0.00    +0.000 A 
ATOM     23  C   UNL     1       1.777   5.421  18.470  0.00  0.00    +0.000 A 
ATOM     24 CL   UNL     1       1.490   4.188  17.293  0.00  0.00    +0.000 Cl
BRANCH  21  25
ATOM     25  N   UNL     1       1.789   9.189  18.428  0.00  0.00    +0.000 N 
ATOM     26  O   UNL     1       1.181  10.015  19.125  0.00  0.00    +0.000 OA
ATOM     27  O   UNL     1       2.341   9.447  17.349  0.00  0.00    +0.000 OA
ENDBRANCH  21  25
ENDBRANCH  16  18
ENDBRANCH  15  16
ENDBRANCH   1  15
TORSDOF 7
ENDMDL
MODEL 7
REMARK VINA RESULT:      -6.8      2.143      2.967
REMARK  Name = 
REMARK  8 active torsions:
REMARK  status: ('A' for Active; 'I' for Inactive)
REMARK    1  A    between atoms: C_1  and  C_2
REMARK    2  A    between atoms: C_2  and  O_3
REMARK    3  A    between atoms: O_3  and  C_4
REMARK    4  A    between atoms: C_10  and  C_12
REMARK    5  A    between atoms: C_12  and  O_13
REMARK    6  A    between atoms: O_13  and  C_14
REMARK    7  A    between atoms: C_14  and  C_16
REMARK    8  A    between atoms: C_19  and  N_20
REMARK                            x       y       z     vdW  Elec       q    Type
REMARK                         _______ _______ _______ _____ _____    ______ ____
ROOT
ATOM      1  C   UNL     1       2.403   7.748  18.668  0.00  0.00    +0.000 C 
ENDROOT
BRANCH   1   8
ATOM      2  C   UNL     1      -0.390  13.353  20.001  0.00  0.00    +0.000 C 
ATOM      3  O   UNL     1      -1.084  13.715  20.945  0.00  0.00    +0.000 OA
ATOM      4  N   UNL     1       0.415  12.236  20.023  0.00  0.00    +0.000 N 
ATOM      5  C   UNL     1       0.404  11.358  21.192  0.00  0.00    +0.000 C 
ATOM      6  C   UNL     1       0.019   9.923  20.803  0.00  0.00    +0.000 C 
ATOM      7  N   UNL     1       0.846   9.438  19.687  0.00  0.00    +0.000 N 
ATOM      8  C   UNL     1       1.518   8.233  19.824  0.00  0.00    +0.000 C 
ATOM      9  O   UNL     1       1.415   7.549  20.847  0.00  0.00    +0.000 OA
ATOM     10  C   UNL     1       0.840  10.316  18.505  0.00  0.00    +0.000 C 
ATOM     11  C   UNL     1       1.211  11.762  18.885  0.00  0.00    +0.000 C 
BRANCH   2  12
ATOM     12  O   UNL     1      -0.391  13.961  18.786  0.00  0.00    +0.000 OA
BRANCH  12  14
ATOM     13  C   UNL     1       1.346  15.598  18.868  0.00  0.00    +0.000 C 
ATOM     14  C   UNL     1      -0.156  15.374  18.813  0.00  0.00    +0.000 C 
ENDBRANCH  12  14
ENDBRANCH   2  12
ENDBRANCH   1   8
BRANCH   1  15
ATOM     15  O   UNL     1       2.322   6.328  18.509  0.00  0.00    +0.000 OA
BRANCH  15  16
ATOM     16  C   UNL     1       3.451   5.673  18.863  0.00  0.00    +0.000 C 
ATOM     17  O   UNL     1       3.744   5.310  19.993  0.00  0.00    +0.000 OA
BRANCH  16  18
ATOM     18  C   UNL     1       4.278   5.345  17.678  0.00  0.00    +0.000 A 
ATOM     19  C   UNL     1       4.969   6.421  17.089  0.00  0.00    +0.000 A 
ATOM     20  C   UNL     1       5.779   6.224  15.967  0.00  0.00    +0.000 A 
ATOM     21  C   UNL     1       5.896   4.939  15.426  0.00  0.00    +0.000 A 
ATOM     22  C   UNL     1       5.198   3.862  15.987  0.00  0.00    +0.000 A 
ATOM     23  C   UNL     1       4.379   4.067  17.107  0.00  0.00    +0.000 A 
ATOM     24 CL   UNL     1       3.470   2.702  17.654  0.00  0.00    +0.000 Cl
BRANCH  21  25
ATOM     25  N   UNL     1       6.747   4.716  14.249  0.00  0.00    +0.000 N 
ATOM     26  O   UNL     1       6.417   3.811  13.466  0.00  0.00    +0.000 OA
ATOM     27  O   UNL     1       7.742   5.440  14.109  0.00  0.00    +0.000 OA
ENDBRANCH  21  25
ENDBRANCH  16  18
ENDBRANCH  15  16
ENDBRANCH   1  15
TORSDOF 7
ENDMDL
MODEL 8
REMARK VINA RESULT:      -6.7      1.772      2.088
REMARK  Name = 
REMARK  8 active torsions:
REMARK  status: ('A' for Active; 'I' for Inactive)
REMARK    1  A    between atoms: C_1  and  C_2
REMARK    2  A    between atoms: C_2  and  O_3
REMARK    3  A    between atoms: O_3  and  C_4
REMARK    4  A    between atoms: C_10  and  C_12
REMARK    5  A    between atoms: C_12  and  O_13
REMARK    6  A    between atoms: O_13  and  C_14
REMARK    7  A    between atoms: C_14  and  C_16
REMARK    8  A    between atoms: C_19  and  N_20
REMARK                            x       y       z     vdW  Elec       q    Type
REMARK                         _______ _______ _______ _____ _____    ______ ____
ROOT
ATOM      1  C   UNL     1       2.022   7.493  19.815  0.00  0.00    +0.000 C 
ENDROOT
BRANCH   1   8
ATOM      2  C   UNL     1      -1.387  12.675  21.399  0.00  0.00    +0.000 C 
ATOM      3  O   UNL     1      -1.743  13.649  20.745  0.00  0.00    +0.000 OA
ATOM      4  N   UNL     1      -0.959  11.490  20.842  0.00  0.00    +0.000 N 
ATOM      5  C   UNL     1      -0.829  11.377  19.391  0.00  0.00    +0.000 C 
ATOM      6  C   UNL     1       0.605  10.998  18.993  0.00  0.00    +0.000 C 
ATOM      7  N   UNL     1       1.066   9.815  19.737  0.00  0.00    +0.000 N 
ATOM      8  C   UNL     1       1.572   8.733  19.034  0.00  0.00    +0.000 C 
ATOM      9  O   UNL     1       1.669   8.753  17.802  0.00  0.00    +0.000 OA
ATOM     10  C   UNL     1       0.949   9.940  21.200  0.00  0.00    +0.000 C 
ATOM     11  C   UNL     1      -0.482  10.336  21.612  0.00  0.00    +0.000 C 
BRANCH   2  12
ATOM     12  O   UNL     1      -1.289  12.671  22.754  0.00  0.00    +0.000 OA
BRANCH  12  14
ATOM     13  C   UNL     1      -2.566  14.161  24.115  0.00  0.00    +0.000 C 
ATOM     14  C   UNL     1      -1.259  13.966  23.365  0.00  0.00    +0.000 C 
ENDBRANCH  12  14
ENDBRANCH   2  12
ENDBRANCH   1   8
BRANCH   1  15
ATOM     15  O   UNL     1       3.153   6.869  19.198  0.00  0.00    +0.000 OA
BRANCH  15  16
ATOM     16  C   UNL     1       2.870   5.685  18.608  0.00  0.00    +0.000 C 
ATOM     17  O   UNL     1       1.890   4.990  18.831  0.00  0.00    +0.000 OA
BRANCH  16  18
ATOM     18  C   UNL     1       3.859   5.358  17.554  0.00  0.00    +0.000 A 
ATOM     19  C   UNL     1       4.373   6.450  16.828  0.00  0.00    +0.000 A 
ATOM     20  C   UNL     1       5.312   6.256  15.812  0.00  0.00    +0.000 A 
ATOM     21  C   UNL     1       5.739   4.957  15.514  0.00  0.00    +0.000 A 
ATOM     22  C   UNL     1       5.221   3.858  16.211  0.00  0.00    +0.000 A 
ATOM     23  C   UNL     1       4.271   4.058  17.224  0.00  0.00    +0.000 A 
ATOM     24 CL   UNL     1       3.606   2.634  17.944  0.00  0.00    +0.000 Cl
BRANCH  21  25
ATOM     25  N   UNL     1       6.729   4.738  14.451  0.00  0.00    +0.000 N 
ATOM     26  O   UNL     1       7.755   5.437  14.470  0.00  0.00    +0.000 OA
ATOM     27  O   UNL     1       6.481   3.874  13.598  0.00  0.00    +0.000 OA
ENDBRANCH  21  25
ENDBRANCH  16  18
ENDBRANCH  15  16
ENDBRANCH   1  15
TORSDOF 7
ENDMDL
MODEL 9
REMARK VINA RESULT:      -6.6      1.850      2.286
REMARK  Name = 
REMARK  8 active torsions:
REMARK  status: ('A' for Active; 'I' for Inactive)
REMARK    1  A    between atoms: C_1  and  C_2
REMARK    2  A    between atoms: C_2  and  O_3
REMARK    3  A    between atoms: O_3  and  C_4
REMARK    4  A    between atoms: C_10  and  C_12
REMARK    5  A    between atoms: C_12  and  O_13
REMARK    6  A    between atoms: O_13  and  C_14
REMARK    7  A    between atoms: C_14  and  C_16
REMARK    8  A    between atoms: C_19  and  N_20
REMARK                            x       y       z     vdW  Elec       q    Type
REMARK                         _______ _______ _______ _____ _____    ______ ____
ROOT
ATOM      1  C   UNL     1       2.458   6.831  20.071  0.00  0.00    +0.000 C 
ENDROOT
BRANCH   1   8
ATOM      2  C   UNL     1      -1.408  11.930  19.882  0.00  0.00    +0.000 C 
ATOM      3  O   UNL     1      -1.663  12.728  18.986  0.00  0.00    +0.000 OA
ATOM      4  N   UNL     1      -0.829  10.698  19.671  0.00  0.00    +0.000 N 
ATOM      5  C   UNL     1      -0.403  10.319  18.326  0.00  0.00    +0.000 C 
ATOM      6  C   UNL     1       1.096   9.986  18.294  0.00  0.00    +0.000 C 
ATOM      7  N   UNL     1       1.444   9.010  19.339  0.00  0.00    +0.000 N 
ATOM      8  C   UNL     1       2.125   7.857  18.981  0.00  0.00    +0.000 C 
ATOM      9  O   UNL     1       2.469   7.647  17.813  0.00  0.00    +0.000 OA
ATOM     10  C   UNL     1       1.029   9.405  20.695  0.00  0.00    +0.000 C 
ATOM     11  C   UNL     1      -0.471   9.756  20.737  0.00  0.00    +0.000 C 
BRANCH   2  12
ATOM     12  O   UNL     1      -1.586  12.195  21.202  0.00  0.00    +0.000 OA
BRANCH  12  14
ATOM     13  C   UNL     1      -1.221  13.524  23.153  0.00  0.00    +0.000 C 
ATOM     14  C   UNL     1      -0.780  13.258  21.724  0.00  0.00    +0.000 C 
ENDBRANCH  12  14
ENDBRANCH   2  12
ENDBRANCH   1   8
BRANCH   1  15
ATOM     15  O   UNL     1       1.836   5.569  19.807  0.00  0.00    +0.000 OA
BRANCH  15  16
ATOM     16  C   UNL     1       2.646   4.506  20.015  0.00  0.00    +0.000 C 
ATOM     17  O   UNL     1       2.474   3.625  20.844  0.00  0.00    +0.000 OA
BRANCH  16  18
ATOM     18  C   UNL     1       3.751   4.470  19.028  0.00  0.00    +0.000 A 
ATOM     19  C   UNL     1       4.992   4.968  19.471  0.00  0.00    +0.000 A 
ATOM     20  C   UNL     1       6.102   4.981  18.622  0.00  0.00    +0.000 A 
ATOM     21  C   UNL     1       5.971   4.495  17.316  0.00  0.00    +0.000 A 
ATOM     22  C   UNL     1       4.738   4.017  16.854  0.00  0.00    +0.000 A 
ATOM     23  C   UNL     1       3.625   4.015  17.707  0.00  0.00    +0.000 A 
ATOM     24 CL   UNL     1       2.124   3.516  17.008  0.00  0.00    +0.000 Cl
BRANCH  21  25
ATOM     25  N   UNL     1       7.131   4.499  16.415  0.00  0.00    +0.000 N 
ATOM     26  O   UNL     1       6.930   4.782  15.223  0.00  0.00    +0.000 OA
ATOM     27  O   UNL     1       8.238   4.216  16.895  0.00  0.00    +0.000 OA
ENDBRANCH  21  25
ENDBRANCH  16  18
ENDBRANCH  15  16
ENDBRANCH   1  15
TORSDOF 7
ENDMDL
