MODEL 1
REMARK VINA RESULT:      -8.0      0.000      0.000
REMARK  Name = 
REMARK  6 active torsions:
REMARK  status: ('A' for Active; 'I' for Inactive)
REMARK    1  A    between atoms: C_1  and  C_2
REMARK    2  A    between atoms: C_5  and  N_6
REMARK    3  A    between atoms: N_6  and  S_7
REMARK    4  A    between atoms: S_7  and  C_10
REMARK    5  A    between atoms: C_13  and  C_14
REMARK    6  A    between atoms: C_17  and  C_18
REMARK                            x       y       z     vdW  Elec       q    Type
REMARK                         _______ _______ _______ _____ _____    ______ ____
ROOT
ATOM      1  C   UNL     1       2.305   4.595  18.848  0.00  0.00    +0.000 A 
ATOM      2  C   UNL     1       2.048   4.658  20.218  0.00  0.00    +0.000 A 
ATOM      3  C   UNL     1       1.784   5.895  20.815  0.00  0.00    +0.000 A 
ATOM      4  C   UNL     1       1.778   7.075  20.054  0.00  0.00    +0.000 A 
ATOM      5  C   UNL     1       2.073   6.990  18.682  0.00  0.00    +0.000 A 
ATOM      6  C   UNL     1       2.343   5.758  18.078  0.00  0.00    +0.000 A 
ENDROOT
BRANCH   4   7
ATOM      7  C   UNL     1       1.456   8.350  20.682  0.00  0.00    +0.000 A 
ATOM      8  C   UNL     1       1.434   8.839  21.969  0.00  0.00    +0.000 A 
ATOM      9  N   UNL     1       1.024  10.149  21.978  0.00  0.00    +0.000 NA
ATOM     10  C   UNL     1       0.801  10.418  20.708  0.00  0.00    +0.000 A 
ATOM     11  O   UNL     1       1.044   9.367  19.862  0.00  0.00    +0.000 OA
BRANCH  10  12
ATOM     12  C   UNL     1       0.308  11.777  20.239  0.00  0.00    +0.000 C 
ATOM     13  C   UNL     1      -0.251  11.899  18.836  0.00  0.00    +0.000 C 
ATOM     14  C   UNL     1      -1.177  11.962  20.001  0.00  0.00    +0.000 C 
ENDBRANCH  10  12
ENDBRANCH   4   7
BRANCH   1  15
ATOM     15  S   UNL     1       2.605   3.017  18.086  0.00  0.00    +0.000 S 
ATOM     16  O   UNL     1       2.360   3.169  16.667  0.00  0.00    +0.000 OA
ATOM     17  O   UNL     1       1.928   1.995  18.854  0.00  0.00    +0.000 OA
BRANCH  15  18
ATOM     18  N   UNL     1       4.268   2.859  18.255  0.00  0.00    +0.000 N 
ATOM     19  H   UNL     1       4.571   2.110  18.874  0.00  0.00    +0.000 HD
BRANCH  18  24
ATOM     20  C   UNL     1       7.608   7.435  17.512  0.00  0.00    +0.000 C 
ATOM     21  C   UNL     1       6.737   6.227  17.686  0.00  0.00    +0.000 A 
ATOM     22  C   UNL     1       6.155   5.587  16.583  0.00  0.00    +0.000 A 
ATOM     23  C   UNL     1       5.342   4.464  16.764  0.00  0.00    +0.000 A 
ATOM     24  C   UNL     1       5.111   3.976  18.047  0.00  0.00    +0.000 A 
ATOM     25  C   UNL     1       5.675   4.610  19.152  0.00  0.00    +0.000 A 
ATOM     26  C   UNL     1       6.489   5.730  18.972  0.00  0.00    +0.000 A 
ENDBRANCH  18  24
ENDBRANCH  15  18
ENDBRANCH   1  15
TORSDOF 5
ENDMDL
MODEL 2
REMARK VINA RESULT:      -8.0      4.324      7.149
REMARK  Name = 
REMARK  6 active torsions:
REMARK  status: ('A' for Active; 'I' for Inactive)
REMARK    1  A    between atoms: C_1  and  C_2
REMARK    2  A    between atoms: C_5  and  N_6
REMARK    3  A    between atoms: N_6  and  S_7
REMARK    4  A    between atoms: S_7  and  C_10
REMARK    5  A    between atoms: C_13  and  C_14
REMARK    6  A    between atoms: C_17  and  C_18
REMARK                            x       y       z     vdW  Elec       q    Type
REMARK                         _______ _______ _______ _____ _____    ______ ____
ROOT
ATOM      1  C   UNL     1       7.350   6.381  17.666  0.00  0.00    +0.000 A 
ATOM      2  C   UNL     1       7.061   7.531  16.929  0.00  0.00    +0.000 A 
ATOM      3  C   UNL     1       7.584   8.762  17.337  0.00  0.00    +0.000 A 
ATOM      4  C   UNL     1       8.394   8.858  18.481  0.00  0.00    +0.000 A 
ATOM      5  C   UNL     1       8.643   7.692  19.225  0.00  0.00    +0.000 A 
ATOM      6  C   UNL     1       8.120   6.457  18.827  0.00  0.00    +0.000 A 
ENDROOT
BRANCH   4   7
ATOM      7  C   UNL     1       8.967  10.140  18.866  0.00  0.00    +0.000 A 
ATOM      8  C   UNL     1       9.368  10.729  20.046  0.00  0.00    +0.000 A 
ATOM      9  N   UNL     1       9.834  11.998  19.815  0.00  0.00    +0.000 NA
ATOM     10  C   UNL     1       9.697  12.153  18.513  0.00  0.00    +0.000 A 
ATOM     11  O   UNL     1       9.175  11.060  17.872  0.00  0.00    +0.000 OA
BRANCH  10  12
ATOM     12  C   UNL     1      10.080  13.440  17.802  0.00  0.00    +0.000 C 
ATOM     13  C   UNL     1      11.357  14.142  18.216  0.00  0.00    +0.000 C 
ATOM     14  C   UNL     1      11.304  13.431  16.908  0.00  0.00    +0.000 C 
ENDBRANCH  10  12
ENDBRANCH   4   7
BRANCH   1  15
ATOM     15  S   UNL     1       6.714   4.812  17.125  0.00  0.00    +0.000 S 
ATOM     16  O   UNL     1       7.825   4.058  16.585  0.00  0.00    +0.000 OA
ATOM     17  O   UNL     1       5.518   5.042  16.344  0.00  0.00    +0.000 OA
BRANCH  15  18
ATOM     18  N   UNL     1       6.318   4.077  18.582  0.00  0.00    +0.000 N 
ATOM     19  H   UNL     1       6.949   3.334  18.877  0.00  0.00    +0.000 HD
BRANCH  18  24
ATOM     20  C   UNL     1       0.941   4.145  20.513  0.00  0.00    +0.000 C 
ATOM     21  C   UNL     1       2.348   4.108  19.994  0.00  0.00    +0.000 A 
ATOM     22  C   UNL     1       2.951   2.900  19.618  0.00  0.00    +0.000 A 
ATOM     23  C   UNL     1       4.264   2.884  19.139  0.00  0.00    +0.000 A 
ATOM     24  C   UNL     1       4.978   4.074  19.034  0.00  0.00    +0.000 A 
ATOM     25  C   UNL     1       4.393   5.280  19.417  0.00  0.00    +0.000 A 
ATOM     26  C   UNL     1       3.081   5.297  19.891  0.00  0.00    +0.000 A 
ENDBRANCH  18  24
ENDBRANCH  15  18
ENDBRANCH   1  15
TORSDOF 5
ENDMDL
MODEL 3
REMARK VINA RESULT:      -7.9      2.804      7.542
REMARK  Name = 
REMARK  6 active torsions:
REMARK  status: ('A' for Active; 'I' for Inactive)
REMARK    1  A    between atoms: C_1  and  C_2
REMARK    2  A    between atoms: C_5  and  N_6
REMARK    3  A    between atoms: N_6  and  S_7
REMARK    4  A    between atoms: S_7  and  C_10
REMARK    5  A    between atoms: C_13  and  C_14
REMARK    6  A    between atoms: C_17  and  C_18
REMARK                            x       y       z     vdW  Elec       q    Type
REMARK                         _______ _______ _______ _____ _____    ______ ____
ROOT
ATOM      1  C   UNL     1       3.071   4.568  19.202  0.00  0.00    +0.000 A 
ATOM      2  C   UNL     1       4.417   4.886  19.387  0.00  0.00    +0.000 A 
ATOM      3  C   UNL     1       5.295   4.833  18.300  0.00  0.00    +0.000 A 
ATOM      4  C   UNL     1       4.840   4.461  17.024  0.00  0.00    +0.000 A 
ATOM      5  C   UNL     1       3.487   4.113  16.870  0.00  0.00    +0.000 A 
ATOM      6  C   UNL     1       2.603   4.157  17.953  0.00  0.00    +0.000 A 
ENDROOT
BRANCH   4   7
ATOM      7  C   UNL     1       5.757   4.456  15.893  0.00  0.00    +0.000 A 
ATOM      8  C   UNL     1       7.078   4.792  15.689  0.00  0.00    +0.000 A 
ATOM      9  N   UNL     1       7.427   4.595  14.377  0.00  0.00    +0.000 NA
ATOM     10  C   UNL     1       6.318   4.156  13.818  0.00  0.00    +0.000 A 
ATOM     11  O   UNL     1       5.260   4.047  14.683  0.00  0.00    +0.000 OA
BRANCH  10  12
ATOM     12  C   UNL     1       6.232   3.814  12.340  0.00  0.00    +0.000 C 
ATOM     13  C   UNL     1       6.068   2.361  11.942  0.00  0.00    +0.000 C 
ATOM     14  C   UNL     1       4.915   3.294  11.796  0.00  0.00    +0.000 C 
ENDBRANCH  10  12
ENDBRANCH   4   7
BRANCH   1  15
ATOM     15  S   UNL     1       1.950   4.669  20.578  0.00  0.00    +0.000 S 
ATOM     16  O   UNL     1       2.402   3.722  21.575  0.00  0.00    +0.000 OA
ATOM     17  O   UNL     1       0.594   4.631  20.074  0.00  0.00    +0.000 OA
BRANCH  15  18
ATOM     18  N   UNL     1       2.293   6.192  21.195  0.00  0.00    +0.000 N 
ATOM     19  H   UNL     1       2.499   6.219  22.191  0.00  0.00    +0.000 HD
BRANCH  18  24
ATOM     20  C   UNL     1       0.111  10.821  18.653  0.00  0.00    +0.000 C 
ATOM     21  C   UNL     1       0.703   9.608  19.307  0.00  0.00    +0.000 A 
ATOM     22  C   UNL     1       1.633   8.803  18.637  0.00  0.00    +0.000 A 
ATOM     23  C   UNL     1       2.172   7.674  19.261  0.00  0.00    +0.000 A 
ATOM     24  C   UNL     1       1.784   7.347  20.557  0.00  0.00    +0.000 A 
ATOM     25  C   UNL     1       0.850   8.133  21.229  0.00  0.00    +0.000 A 
ATOM     26  C   UNL     1       0.314   9.262  20.609  0.00  0.00    +0.000 A 
ENDBRANCH  18  24
ENDBRANCH  15  18
ENDBRANCH   1  15
TORSDOF 5
ENDMDL
MODEL 4
REMARK VINA RESULT:      -7.8      0.128      1.373
REMARK  Name = 
REMARK  6 active torsions:
REMARK  status: ('A' for Active; 'I' for Inactive)
REMARK    1  A    between atoms: C_1  and  C_2
REMARK    2  A    between atoms: C_5  and  N_6
REMARK    3  A    between atoms: N_6  and  S_7
REMARK    4  A    between atoms: S_7  and  C_10
REMARK    5  A    between atoms: C_13  and  C_14
REMARK    6  A    between atoms: C_17  and  C_18
REMARK                            x       y       z     vdW  Elec       q    Type
REMARK                         _______ _______ _______ _____ _____    ______ ____
ROOT
ATOM      1  C   UNL     1       2.300   4.518  18.862  0.00  0.00    +0.000 A 
ATOM      2  C   UNL     1       2.340   5.688  18.101  0.00  0.00    +0.000 A 
ATOM      3  C   UNL     1       2.053   6.915  18.706  0.00  0.00    +0.000 A 
ATOM      4  C   UNL     1       1.722   6.987  20.069  0.00  0.00    +0.000 A 
ATOM      5  C   UNL     1       1.655   5.792  20.806  0.00  0.00    +0.000 A 
ATOM      6  C   UNL     1       1.935   4.559  20.208  0.00  0.00    +0.000 A 
ENDROOT
BRANCH   4   7
ATOM      7  C   UNL     1       1.470   8.278  20.695  0.00  0.00    +0.000 A 
ATOM      8  C   UNL     1       1.473   8.770  21.982  0.00  0.00    +0.000 A 
ATOM      9  N   UNL     1       1.136  10.100  21.989  0.00  0.00    +0.000 NA
ATOM     10  C   UNL     1       0.930  10.379  20.718  0.00  0.00    +0.000 A 
ATOM     11  O   UNL     1       1.116   9.315  19.873  0.00  0.00    +0.000 OA
BRANCH  10  12
ATOM     12  C   UNL     1       0.514  11.762  20.246  0.00  0.00    +0.000 C 
ATOM     13  C   UNL     1      -0.172  11.891  18.901  0.00  0.00    +0.000 C 
ATOM     14  C   UNL     1      -0.966  12.075  20.148  0.00  0.00    +0.000 C 
ENDBRANCH  10  12
ENDBRANCH   4   7
BRANCH   1  15
ATOM     15  S   UNL     1       2.699   2.963  18.099  0.00  0.00    +0.000 S 
ATOM     16  O   UNL     1       2.476   3.110  16.676  0.00  0.00    +0.000 OA
ATOM     17  O   UNL     1       2.062   1.902  18.849  0.00  0.00    +0.000 OA
BRANCH  15  18
ATOM     18  N   UNL     1       4.364   2.893  18.302  0.00  0.00    +0.000 N 
ATOM     19  H   UNL     1       4.694   2.156  18.922  0.00  0.00    +0.000 HD
BRANCH  18  24
ATOM     20  C   UNL     1       7.613   7.520  17.474  0.00  0.00    +0.000 C 
ATOM     21  C   UNL     1       6.754   6.313  17.712  0.00  0.00    +0.000 A 
ATOM     22  C   UNL     1       6.503   5.846  19.009  0.00  0.00    +0.000 A 
ATOM     23  C   UNL     1       5.704   4.717  19.213  0.00  0.00    +0.000 A 
ATOM     24  C   UNL     1       5.151   4.054  18.121  0.00  0.00    +0.000 A 
ATOM     25  C   UNL     1       5.403   4.502  16.826  0.00  0.00    +0.000 A 
ATOM     26  C   UNL     1       6.198   5.631  16.622  0.00  0.00    +0.000 A 
ENDBRANCH  18  24
ENDBRANCH  15  18
ENDBRANCH   1  15
TORSDOF 5
ENDMDL
MODEL 5
REMARK VINA RESULT:      -7.8      2.920      8.624
REMARK  Name = 
REMARK  6 active torsions:
REMARK  status: ('A' for Active; 'I' for Inactive)
REMARK    1  A    between atoms: C_1  and  C_2
REMARK    2  A    between atoms: C_5  and  N_6
REMARK    3  A    between atoms: N_6  and  S_7
REMARK    4  A    between atoms: S_7  and  C_10
REMARK    5  A    between atoms: C_13  and  C_14
REMARK    6  A    between atoms: C_17  and  C_18
REMARK                            x       y       z     vdW  Elec       q    Type
REMARK                         _______ _______ _______ _____ _____    ______ ____
ROOT
ATOM      1  C   UNL     1       1.389   9.078  19.255  0.00  0.00    +0.000 A 
ATOM      2  C   UNL     1       1.578   8.073  20.204  0.00  0.00    +0.000 A 
ATOM      3  C   UNL     1       2.362   6.960  19.884  0.00  0.00    +0.000 A 
ATOM      4  C   UNL     1       2.960   6.839  18.619  0.00  0.00    +0.000 A 
ATOM      5  C   UNL     1       2.728   7.848  17.669  0.00  0.00    +0.000 A 
ATOM      6  C   UNL     1       1.940   8.962  17.978  0.00  0.00    +0.000 A 
ENDROOT
BRANCH   4   7
ATOM      7  C   UNL     1       3.811   5.696  18.318  0.00  0.00    +0.000 A 
ATOM      8  C   UNL     1       4.356   4.653  19.035  0.00  0.00    +0.000 A 
ATOM      9  N   UNL     1       5.114   3.853  18.218  0.00  0.00    +0.000 NA
ATOM     10  C   UNL     1       5.020   4.429  17.037  0.00  0.00    +0.000 A 
ATOM     11  O   UNL     1       4.242   5.557  17.025  0.00  0.00    +0.000 OA
BRANCH  10  12
ATOM     12  C   UNL     1       5.727   3.884  15.807  0.00  0.00    +0.000 C 
ATOM     13  C   UNL     1       5.612   4.653  14.506  0.00  0.00    +0.000 C 
ATOM     14  C   UNL     1       6.903   4.660  15.249  0.00  0.00    +0.000 C 
ENDBRANCH  10  12
ENDBRANCH   4   7
BRANCH   1  15
ATOM     15  S   UNL     1       0.421  10.509  19.675  0.00  0.00    +0.000 S 
ATOM     16  O   UNL     1       1.342  11.598  19.916  0.00  0.00    +0.000 OA
ATOM     17  O   UNL     1      -0.561  10.128  20.667  0.00  0.00    +0.000 OA
BRANCH  15  18
ATOM     18  N   UNL     1      -0.337  10.856  18.218  0.00  0.00    +0.000 N 
ATOM     19  H   UNL     1       0.212  11.411  17.566  0.00  0.00    +0.000 HD
BRANCH  18  24
ATOM     20  C   UNL     1      -6.047  11.013  18.048  0.00  0.00    +0.000 C 
ATOM     21  C   UNL     1      -4.548  10.959  18.073  0.00  0.00    +0.000 A 
ATOM     22  C   UNL     1      -3.851   9.887  17.501  0.00  0.00    +0.000 A 
ATOM     23  C   UNL     1      -2.454   9.851  17.537  0.00  0.00    +0.000 A 
ATOM     24  C   UNL     1      -1.749  10.888  18.143  0.00  0.00    +0.000 A 
ATOM     25  C   UNL     1      -2.432  11.953  18.727  0.00  0.00    +0.000 A 
ATOM     26  C   UNL     1      -3.827  11.991  18.688  0.00  0.00    +0.000 A 
ENDBRANCH  18  24
ENDBRANCH  15  18
ENDBRANCH   1  15
TORSDOF 5
ENDMDL
MODEL 6
REMARK VINA RESULT:      -7.8      2.937      8.675
REMARK  Name = 
REMARK  6 active torsions:
REMARK  status: ('A' for Active; 'I' for Inactive)
REMARK    1  A    between atoms: C_1  and  C_2
REMARK    2  A    between atoms: C_5  and  N_6
REMARK    3  A    between atoms: N_6  and  S_7
REMARK    4  A    between atoms: S_7  and  C_10
REMARK    5  A    between atoms: C_13  and  C_14
REMARK    6  A    between atoms: C_17  and  C_18
REMARK                            x       y       z     vdW  Elec       q    Type
REMARK                         _______ _______ _______ _____ _____    ______ ____
ROOT
ATOM      1  C   UNL     1       1.502   8.913  19.156  0.00  0.00    +0.000 A 
ATOM      2  C   UNL     1       1.695   7.878  20.073  0.00  0.00    +0.000 A 
ATOM      3  C   UNL     1       2.560   6.827  19.756  0.00  0.00    +0.000 A 
ATOM      4  C   UNL     1       3.236   6.796  18.525  0.00  0.00    +0.000 A 
ATOM      5  C   UNL     1       3.000   7.832  17.605  0.00  0.00    +0.000 A 
ATOM      6  C   UNL     1       2.132   8.885  17.911  0.00  0.00    +0.000 A 
ENDROOT
BRANCH   4   7
ATOM      7  C   UNL     1       4.169   5.717  18.228  0.00  0.00    +0.000 A 
ATOM      8  C   UNL     1       4.923   4.832  18.966  0.00  0.00    +0.000 A 
ATOM      9  N   UNL     1       5.655   4.018  18.139  0.00  0.00    +0.000 NA
ATOM     10  C   UNL     1       5.339   4.432  16.929  0.00  0.00    +0.000 A 
ATOM     11  O   UNL     1       4.438   5.465  16.908  0.00  0.00    +0.000 OA
BRANCH  10  12
ATOM     12  C   UNL     1       5.936   3.814  15.675  0.00  0.00    +0.000 C 
ATOM     13  C   UNL     1       5.516   4.364  14.327  0.00  0.00    +0.000 C 
ATOM     14  C   UNL     1       6.884   4.652  14.841  0.00  0.00    +0.000 C 
ENDBRANCH  10  12
ENDBRANCH   4   7
BRANCH   1  15
ATOM     15  S   UNL     1       0.429  10.266  19.576  0.00  0.00    +0.000 S 
ATOM     16  O   UNL     1       1.264  11.428  19.796  0.00  0.00    +0.000 OA
ATOM     17  O   UNL     1      -0.507   9.819  20.585  0.00  0.00    +0.000 OA
BRANCH  15  18
ATOM     18  N   UNL     1      -0.373  10.538  18.126  0.00  0.00    +0.000 N 
ATOM     19  H   UNL     1       0.194  10.954  17.390  0.00  0.00    +0.000 HD
BRANCH  18  24
ATOM     20  C   UNL     1      -6.038  11.260  17.946  0.00  0.00    +0.000 C 
ATOM     21  C   UNL     1      -4.550  11.081  18.013  0.00  0.00    +0.000 A 
ATOM     22  C   UNL     1      -3.743  11.979  18.725  0.00  0.00    +0.000 A 
ATOM     23  C   UNL     1      -2.358  11.799  18.775  0.00  0.00    +0.000 A 
ATOM     24  C   UNL     1      -1.775  10.721  18.115  0.00  0.00    +0.000 A 
ATOM     25  C   UNL     1      -2.566   9.829  17.394  0.00  0.00    +0.000 A 
ATOM     26  C   UNL     1      -3.949  10.005  17.347  0.00  0.00    +0.000 A 
ENDBRANCH  18  24
ENDBRANCH  15  18
ENDBRANCH   1  15
TORSDOF 5
ENDMDL
MODEL 7
REMARK VINA RESULT:      -7.7      0.501      1.267
REMARK  Name = 
REMARK  6 active torsions:
REMARK  status: ('A' for Active; 'I' for Inactive)
REMARK    1  A    between atoms: C_1  and  C_2
REMARK    2  A    between atoms: C_5  and  N_6
REMARK    3  A    between atoms: N_6  and  S_7
REMARK    4  A    between atoms: S_7  and  C_10
REMARK    5  A    between atoms: C_13  and  C_14
REMARK    6  A    between atoms: C_17  and  C_18
REMARK                            x       y       z     vdW  Elec       q    Type
REMARK                         _______ _______ _______ _____ _____    ______ ____
ROOT
ATOM      1  C   UNL     1       2.321   4.585  18.840  0.00  0.00    +0.000 A 
ATOM      2  C   UNL     1       2.359   5.754  18.078  0.00  0.00    +0.000 A 
ATOM      3  C   UNL     1       2.068   6.981  18.680  0.00  0.00    +0.000 A 
ATOM      4  C   UNL     1       1.734   7.054  20.043  0.00  0.00    +0.000 A 
ATOM      5  C   UNL     1       1.669   5.860  20.782  0.00  0.00    +0.000 A 
ATOM      6  C   UNL     1       1.953   4.627  20.186  0.00  0.00    +0.000 A 
ENDROOT
BRANCH   4   7
ATOM      7  C   UNL     1       1.477   8.345  20.666  0.00  0.00    +0.000 A 
ATOM      8  C   UNL     1       1.444   8.832  21.955  0.00  0.00    +0.000 A 
ATOM      9  N   UNL     1       1.123  10.166  21.956  0.00  0.00    +0.000 NA
ATOM     10  C   UNL     1       0.961  10.453  20.681  0.00  0.00    +0.000 A 
ATOM     11  O   UNL     1       1.162   9.390  19.838  0.00  0.00    +0.000 OA
BRANCH  10  12
ATOM     12  C   UNL     1       0.577  11.843  20.202  0.00  0.00    +0.000 C 
ATOM     13  C   UNL     1       1.154  13.043  20.926  0.00  0.00    +0.000 C 
ATOM     14  C   UNL     1       1.646  12.705  19.561  0.00  0.00    +0.000 C 
ENDBRANCH  10  12
ENDBRANCH   4   7
BRANCH   1  15
ATOM     15  S   UNL     1       2.726   3.030  18.080  0.00  0.00    +0.000 S 
ATOM     16  O   UNL     1       2.543   3.186  16.653  0.00  0.00    +0.000 OA
ATOM     17  O   UNL     1       2.058   1.972  18.807  0.00  0.00    +0.000 OA
BRANCH  15  18
ATOM     18  N   UNL     1       4.384   2.943  18.329  0.00  0.00    +0.000 N 
ATOM     19  H   UNL     1       4.684   2.243  19.004  0.00  0.00    +0.000 HD
BRANCH  18  24
ATOM     20  C   UNL     1       7.604   7.582  17.457  0.00  0.00    +0.000 C 
ATOM     21  C   UNL     1       6.764   6.356  17.665  0.00  0.00    +0.000 A 
ATOM     22  C   UNL     1       6.194   5.675  16.582  0.00  0.00    +0.000 A 
ATOM     23  C   UNL     1       5.411   4.537  16.794  0.00  0.00    +0.000 A 
ATOM     24  C   UNL     1       5.198   4.074  18.090  0.00  0.00    +0.000 A 
ATOM     25  C   UNL     1       5.750   4.750  19.176  0.00  0.00    +0.000 A 
ATOM     26  C   UNL     1       6.534   5.885  18.964  0.00  0.00    +0.000 A 
ENDBRANCH  18  24
ENDBRANCH  15  18
ENDBRANCH   1  15
TORSDOF 5
ENDMDL
MODEL 8
REMARK VINA RESULT:      -7.7      2.832      7.563
REMARK  Name = 
REMARK  6 active torsions:
REMARK  status: ('A' for Active; 'I' for Inactive)
REMARK    1  A    between atoms: C_1  and  C_2
REMARK    2  A    between atoms: C_5  and  N_6
REMARK    3  A    between atoms: N_6  and  S_7
REMARK    4  A    between atoms: S_7  and  C_10
REMARK    5  A    between atoms: C_13  and  C_14
REMARK    6  A    between atoms: C_17  and  C_18
REMARK                            x       y       z     vdW  Elec       q    Type
REMARK                         _______ _______ _______ _____ _____    ______ ____
ROOT
ATOM      1  C   UNL     1       3.068   4.223  19.207  0.00  0.00    +0.000 A 
ATOM      2  C   UNL     1       4.437   4.401  19.410  0.00  0.00    +0.000 A 
ATOM      3  C   UNL     1       5.304   4.404  18.313  0.00  0.00    +0.000 A 
ATOM      4  C   UNL     1       4.815   4.226  17.008  0.00  0.00    +0.000 A 
ATOM      5  C   UNL     1       3.436   4.016  16.832  0.00  0.00    +0.000 A 
ATOM      6  C   UNL     1       2.563   4.006  17.924  0.00  0.00    +0.000 A 
ENDROOT
BRANCH   4   7
ATOM      7  C   UNL     1       5.725   4.277  15.872  0.00  0.00    +0.000 A 
ATOM      8  C   UNL     1       7.047   4.614  15.678  0.00  0.00    +0.000 A 
ATOM      9  N   UNL     1       7.386   4.488  14.355  0.00  0.00    +0.000 NA
ATOM     10  C   UNL     1       6.269   4.089  13.780  0.00  0.00    +0.000 A 
ATOM     11  O   UNL     1       5.216   3.940  14.645  0.00  0.00    +0.000 OA
BRANCH  10  12
ATOM     12  C   UNL     1       6.171   3.831  12.285  0.00  0.00    +0.000 C 
ATOM     13  C   UNL     1       6.965   2.683  11.696  0.00  0.00    +0.000 C 
ATOM     14  C   UNL     1       5.485   2.563  11.817  0.00  0.00    +0.000 C 
ENDBRANCH  10  12
ENDBRANCH   4   7
BRANCH   1  15
ATOM     15  S   UNL     1       1.964   4.256  20.600  0.00  0.00    +0.000 S 
ATOM     16  O   UNL     1       2.445   3.281  21.555  0.00  0.00    +0.000 OA
ATOM     17  O   UNL     1       0.602   4.214  20.112  0.00  0.00    +0.000 OA
BRANCH  15  18
ATOM     18  N   UNL     1       2.291   5.761  21.268  0.00  0.00    +0.000 N 
ATOM     19  H   UNL     1       2.396   5.771  22.280  0.00  0.00    +0.000 HD
BRANCH  18  24
ATOM     20  C   UNL     1       0.778  10.540  18.524  0.00  0.00    +0.000 C 
ATOM     21  C   UNL     1       1.155   9.286  19.257  0.00  0.00    +0.000 A 
ATOM     22  C   UNL     1       0.676   9.028  20.548  0.00  0.00    +0.000 A 
ATOM     23  C   UNL     1       1.041   7.856  21.217  0.00  0.00    +0.000 A 
ATOM     24  C   UNL     1       1.884   6.938  20.597  0.00  0.00    +0.000 A 
ATOM     25  C   UNL     1       2.377   7.190  19.318  0.00  0.00    +0.000 A 
ATOM     26  C   UNL     1       2.010   8.358  18.648  0.00  0.00    +0.000 A 
ENDBRANCH  18  24
ENDBRANCH  15  18
ENDBRANCH   1  15
TORSDOF 5
ENDMDL
MODEL 9
REMARK VINA RESULT:      -7.7      2.821      7.556
REMARK  Name = 
REMARK  6 active torsions:
REMARK  status: ('A' for Active; 'I' for Inactive)
REMARK    1  A    between atoms: C_1  and  C_2
REMARK    2  A    between atoms: C_5  and  N_6
REMARK    3  A    between atoms: N_6  and  S_7
REMARK    4  A    between atoms: S_7  and  C_10
REMARK    5  A    between atoms: C_13  and  C_14
REMARK    6  A    between atoms: C_17  and  C_18
REMARK                            x       y       z     vdW  Elec       q    Type
REMARK                         _______ _______ _______ _____ _____    ______ ____
ROOT
ATOM      1  C   UNL     1       3.146   4.313  19.091  0.00  0.00    +0.000 A 
ATOM      2  C   UNL     1       2.663   4.040  17.810  0.00  0.00    +0.000 A 
ATOM      3  C   UNL     1       3.537   4.076  16.720  0.00  0.00    +0.000 A 
ATOM      4  C   UNL     1       4.896   4.386  16.896  0.00  0.00    +0.000 A 
ATOM      5  C   UNL     1       5.352   4.690  18.190  0.00  0.00    +0.000 A 
ATOM      6  C   UNL     1       4.483   4.662  19.286  0.00  0.00    +0.000 A 
ENDROOT
BRANCH   4   7
ATOM      7  C   UNL     1       5.803   4.375  15.757  0.00  0.00    +0.000 A 
ATOM      8  C   UNL     1       7.109   4.750  15.529  0.00  0.00    +0.000 A 
ATOM      9  N   UNL     1       7.454   4.521  14.221  0.00  0.00    +0.000 NA
ATOM     10  C   UNL     1       6.356   4.026  13.688  0.00  0.00    +0.000 A 
ATOM     11  O   UNL     1       5.310   3.909  14.566  0.00  0.00    +0.000 OA
BRANCH  10  12
ATOM     12  C   UNL     1       6.269   3.633  12.222  0.00  0.00    +0.000 C 
ATOM     13  C   UNL     1       5.814   2.229  11.876  0.00  0.00    +0.000 C 
ATOM     14  C   UNL     1       4.900   3.378  11.625  0.00  0.00    +0.000 C 
ENDBRANCH  10  12
ENDBRANCH   4   7
BRANCH   1  15
ATOM     15  S   UNL     1       2.039   4.232  20.480  0.00  0.00    +0.000 S 
ATOM     16  O   UNL     1       2.556   3.229  21.386  0.00  0.00    +0.000 OA
ATOM     17  O   UNL     1       0.681   4.162  19.986  0.00  0.00    +0.000 OA
BRANCH  15  18
ATOM     18  N   UNL     1       2.306   5.713  21.224  0.00  0.00    +0.000 N 
ATOM     19  H   UNL     1       2.395   5.678  22.237  0.00  0.00    +0.000 HD
BRANCH  18  24
ATOM     20  C   UNL     1       0.684  10.565  18.679  0.00  0.00    +0.000 C 
ATOM     21  C   UNL     1       1.091   9.291  19.360  0.00  0.00    +0.000 A 
ATOM     22  C   UNL     1       0.643   8.984  20.651  0.00  0.00    +0.000 A 
ATOM     23  C   UNL     1       1.035   7.795  21.272  0.00  0.00    +0.000 A 
ATOM     24  C   UNL     1       1.873   6.907  20.603  0.00  0.00    +0.000 A 
ATOM     25  C   UNL     1       2.335   7.207  19.323  0.00  0.00    +0.000 A 
ATOM     26  C   UNL     1       1.941   8.393  18.701  0.00  0.00    +0.000 A 
ENDBRANCH  18  24
ENDBRANCH  15  18
ENDBRANCH   1  15
TORSDOF 5
ENDMDL
