MODEL 1
REMARK VINA RESULT:      -7.8      0.000      0.000
REMARK  Name = 
REMARK  8 active torsions:
REMARK  status: ('A' for Active; 'I' for Inactive)
REMARK    1  A    between atoms: C_1  and  C_2
REMARK    2  A    between atoms: C_5  and  N_6
REMARK    3  A    between atoms: C_7  and  C_9
REMARK    4  A    between atoms: N_10  and  O_11
REMARK    5  A    between atoms: O_11  and  C_12
REMARK    6  A    between atoms: C_12  and  C_13
REMARK    7  A    between atoms: N_15  and  C_16
REMARK    8  A    between atoms: C_16  and  C_17
REMARK                            x       y       z     vdW  Elec       q    Type
REMARK                         _______ _______ _______ _____ _____    ______ ____
ROOT
ATOM      1  O   UNL     1       7.638   5.161  16.789  0.00  0.00    +0.000 OA
ENDROOT
BRANCH   1   3
ATOM      2  C   UNL     1       7.824   7.079  17.865  0.00  0.00    +0.000 C 
ATOM      3  N   UNL     1       7.701   6.561  16.688  0.00  0.00    +0.000 NA
BRANCH   2   5
ATOM      4  N   UNL     1       8.983   8.934  18.930  0.00  0.00    +0.000 N 
ATOM      5  C   UNL     1       8.025   8.564  17.999  0.00  0.00    +0.000 C 
ATOM      6  O   UNL     1       7.363   9.274  17.258  0.00  0.00    +0.000 OA
ATOM      7  H   UNL     1       9.465   8.197  19.429  0.00  0.00    +0.000 HD
BRANCH   4  12
ATOM      8  C   UNL     1      10.511  14.335  20.157  0.00  0.00    +0.000 C 
ATOM      9  C   UNL     1      10.093  12.931  19.841  0.00  0.00    +0.000 A 
ATOM     10  C   UNL     1       9.708  12.064  20.864  0.00  0.00    +0.000 A 
ATOM     11  C   UNL     1       9.330  10.747  20.576  0.00  0.00    +0.000 A 
ATOM     12  C   UNL     1       9.332  10.264  19.266  0.00  0.00    +0.000 A 
ATOM     13  C   UNL     1       9.713  11.136  18.238  0.00  0.00    +0.000 A 
ATOM     14  C   UNL     1      10.089  12.459  18.523  0.00  0.00    +0.000 A 
ENDBRANCH   4  12
ENDBRANCH   2   5
ENDBRANCH   1   3
BRANCH   1  15
ATOM     15  C   UNL     1       7.313   4.833  18.138  0.00  0.00    +0.000 C 
BRANCH  15  16
ATOM     16  C   UNL     1       5.872   4.356  18.285  0.00  0.00    +0.000 C 
ATOM     17  O   UNL     1       5.528   3.590  19.183  0.00  0.00    +0.000 OA
ATOM     18  N   UNL     1       4.984   4.911  17.390  0.00  0.00    +0.000 N 
ATOM     19  H   UNL     1       5.351   5.488  16.642  0.00  0.00    +0.000 HD
BRANCH  18  20
ATOM     20  C   UNL     1       3.571   4.611  17.411  0.00  0.00    +0.000 C 
BRANCH  20  21
ATOM     21  C   UNL     1       2.855   5.284  18.556  0.00  0.00    +0.000 A 
ATOM     22  C   UNL     1       2.242   4.479  19.534  0.00  0.00    +0.000 A 
ATOM     23  C   UNL     1       1.592   5.045  20.632  0.00  0.00    +0.000 A 
ATOM     24  C   UNL     1       1.536   6.429  20.768  0.00  0.00    +0.000 A 
ATOM     25  C   UNL     1       2.120   7.244  19.800  0.00  0.00    +0.000 A 
ATOM     26  C   UNL     1       2.769   6.677  18.697  0.00  0.00    +0.000 A 
ATOM     27 CL   UNL     1       3.450   7.757  17.532  0.00  0.00    +0.000 Cl
ENDBRANCH  20  21
ENDBRANCH  18  20
ENDBRANCH  15  16
ENDBRANCH   1  15
TORSDOF 7
ENDMDL
MODEL 2
REMARK VINA RESULT:      -7.7      1.514      1.916
REMARK  Name = 
REMARK  8 active torsions:
REMARK  status: ('A' for Active; 'I' for Inactive)
REMARK    1  A    between atoms: C_1  and  C_2
REMARK    2  A    between atoms: C_5  and  N_6
REMARK    3  A    between atoms: C_7  and  C_9
REMARK    4  A    between atoms: N_10  and  O_11
REMARK    5  A    between atoms: O_11  and  C_12
REMARK    6  A    between atoms: C_12  and  C_13
REMARK    7  A    between atoms: N_15  and  C_16
REMARK    8  A    between atoms: C_16  and  C_17
REMARK                            x       y       z     vdW  Elec       q    Type
REMARK                         _______ _______ _______ _____ _____    ______ ____
ROOT
ATOM      1  O   UNL     1       7.831   5.565  18.447  0.00  0.00    +0.000 OA
ENDROOT
BRANCH   1   3
ATOM      2  C   UNL     1       7.886   7.711  17.932  0.00  0.00    +0.000 C 
ATOM      3  N   UNL     1       8.338   6.835  18.767  0.00  0.00    +0.000 NA
BRANCH   2   5
ATOM      4  N   UNL     1       9.175   9.411  19.101  0.00  0.00    +0.000 N 
ATOM      5  C   UNL     1       8.203   9.166  18.143  0.00  0.00    +0.000 C 
ATOM      6  O   UNL     1       7.612   9.963  17.432  0.00  0.00    +0.000 OA
ATOM      7  H   UNL     1       9.589   8.613  19.567  0.00  0.00    +0.000 HD
BRANCH   4  12
ATOM      8  C   UNL     1      11.143  14.583  20.645  0.00  0.00    +0.000 C 
ATOM      9  C   UNL     1      10.611  13.241  20.242  0.00  0.00    +0.000 A 
ATOM     10  C   UNL     1       9.862  12.481  21.141  0.00  0.00    +0.000 A 
ATOM     11  C   UNL     1       9.375  11.221  20.774  0.00  0.00    +0.000 A 
ATOM     12  C   UNL     1       9.626  10.689  19.508  0.00  0.00    +0.000 A 
ATOM     13  C   UNL     1      10.372  11.454  18.603  0.00  0.00    +0.000 A 
ATOM     14  C   UNL     1      10.860  12.721  18.966  0.00  0.00    +0.000 A 
ENDBRANCH   4  12
ENDBRANCH   2   5
ENDBRANCH   1   3
BRANCH   1  15
ATOM     15  C   UNL     1       6.661   5.350  19.235  0.00  0.00    +0.000 C 
BRANCH  15  16
ATOM     16  C   UNL     1       5.434   5.056  18.377  0.00  0.00    +0.000 C 
ATOM     17  O   UNL     1       5.400   4.108  17.594  0.00  0.00    +0.000 OA
ATOM     18  N   UNL     1       4.355   5.879  18.609  0.00  0.00    +0.000 N 
ATOM     19  H   UNL     1       4.478   6.673  19.226  0.00  0.00    +0.000 HD
BRANCH  18  20
ATOM     20  C   UNL     1       3.094   5.718  17.923  0.00  0.00    +0.000 C 
BRANCH  20  21
ATOM     21  C   UNL     1       2.226   4.655  18.551  0.00  0.00    +0.000 A 
ATOM     22  C   UNL     1       2.042   3.441  17.863  0.00  0.00    +0.000 A 
ATOM     23  C   UNL     1       1.275   2.410  18.409  0.00  0.00    +0.000 A 
ATOM     24  C   UNL     1       0.672   2.576  19.651  0.00  0.00    +0.000 A 
ATOM     25  C   UNL     1       0.826   3.778  20.340  0.00  0.00    +0.000 A 
ATOM     26  C   UNL     1       1.592   4.814  19.792  0.00  0.00    +0.000 A 
ATOM     27 CL   UNL     1       1.717   6.279  20.701  0.00  0.00    +0.000 Cl
ENDBRANCH  20  21
ENDBRANCH  18  20
ENDBRANCH  15  16
ENDBRANCH   1  15
TORSDOF 7
ENDMDL
MODEL 3
REMARK VINA RESULT:      -7.6      1.719      2.259
REMARK  Name = 
REMARK  8 active torsions:
REMARK  status: ('A' for Active; 'I' for Inactive)
REMARK    1  A    between atoms: C_1  and  C_2
REMARK    2  A    between atoms: C_5  and  N_6
REMARK    3  A    between atoms: C_7  and  C_9
REMARK    4  A    between atoms: N_10  and  O_11
REMARK    5  A    between atoms: O_11  and  C_12
REMARK    6  A    between atoms: C_12  and  C_13
REMARK    7  A    between atoms: N_15  and  C_16
REMARK    8  A    between atoms: C_16  and  C_17
REMARK                            x       y       z     vdW  Elec       q    Type
REMARK                         _______ _______ _______ _____ _____    ______ ____
ROOT
ATOM      1  O   UNL     1       7.591   7.209  16.997  0.00  0.00    +0.000 OA
ENDROOT
BRANCH   1   3
ATOM      2  C   UNL     1       8.523   8.710  18.321  0.00  0.00    +0.000 C 
ATOM      3  N   UNL     1       7.796   8.573  17.262  0.00  0.00    +0.000 NA
BRANCH   2   5
ATOM      4  N   UNL     1       8.932  11.034  17.728  0.00  0.00    +0.000 N 
ATOM      5  C   UNL     1       8.970  10.084  18.737  0.00  0.00    +0.000 C 
ATOM      6  O   UNL     1       9.275  10.227  19.911  0.00  0.00    +0.000 OA
ATOM      7  H   UNL     1       8.609  10.738  16.815  0.00  0.00    +0.000 HD
BRANCH   4  12
ATOM      8  C   UNL     1      10.401  16.570  18.178  0.00  0.00    +0.000 C 
ATOM      9  C   UNL     1      10.026  15.122  18.079  0.00  0.00    +0.000 A 
ATOM     10  C   UNL     1      11.005  14.156  17.843  0.00  0.00    +0.000 A 
ATOM     11  C   UNL     1      10.659  12.804  17.735  0.00  0.00    +0.000 A 
ATOM     12  C   UNL     1       9.332  12.385  17.855  0.00  0.00    +0.000 A 
ATOM     13  C   UNL     1       8.350  13.354  18.097  0.00  0.00    +0.000 A 
ATOM     14  C   UNL     1       8.694  14.712  18.209  0.00  0.00    +0.000 A 
ENDBRANCH   4  12
ENDBRANCH   2   5
ENDBRANCH   1   3
BRANCH   1  15
ATOM     15  C   UNL     1       7.461   6.536  18.247  0.00  0.00    +0.000 C 
BRANCH  15  16
ATOM     16  C   UNL     1       6.462   5.385  18.181  0.00  0.00    +0.000 C 
ATOM     17  O   UNL     1       6.686   4.297  18.709  0.00  0.00    +0.000 OA
ATOM     18  N   UNL     1       5.270   5.688  17.561  0.00  0.00    +0.000 N 
ATOM     19  H   UNL     1       5.181   6.586  17.101  0.00  0.00    +0.000 HD
BRANCH  18  20
ATOM     20  C   UNL     1       4.189   4.736  17.450  0.00  0.00    +0.000 C 
BRANCH  20  21
ATOM     21  C   UNL     1       3.395   4.610  18.727  0.00  0.00    +0.000 A 
ATOM     22  C   UNL     1       3.462   3.402  19.446  0.00  0.00    +0.000 A 
ATOM     23  C   UNL     1       2.774   3.239  20.649  0.00  0.00    +0.000 A 
ATOM     24  C   UNL     1       1.999   4.279  21.153  0.00  0.00    +0.000 A 
ATOM     25  C   UNL     1       1.904   5.476  20.446  0.00  0.00    +0.000 A 
ATOM     26  C   UNL     1       2.591   5.639  19.237  0.00  0.00    +0.000 A 
ATOM     27 CL   UNL     1       2.404   7.147  18.412  0.00  0.00    +0.000 Cl
ENDBRANCH  20  21
ENDBRANCH  18  20
ENDBRANCH  15  16
ENDBRANCH   1  15
TORSDOF 7
ENDMDL
MODEL 4
REMARK VINA RESULT:      -7.5      1.455      2.126
REMARK  Name = 
REMARK  8 active torsions:
REMARK  status: ('A' for Active; 'I' for Inactive)
REMARK    1  A    between atoms: C_1  and  C_2
REMARK    2  A    between atoms: C_5  and  N_6
REMARK    3  A    between atoms: C_7  and  C_9
REMARK    4  A    between atoms: N_10  and  O_11
REMARK    5  A    between atoms: O_11  and  C_12
REMARK    6  A    between atoms: C_12  and  C_13
REMARK    7  A    between atoms: N_15  and  C_16
REMARK    8  A    between atoms: C_16  and  C_17
REMARK                            x       y       z     vdW  Elec       q    Type
REMARK                         _______ _______ _______ _____ _____    ______ ____
ROOT
ATOM      1  O   UNL     1       6.904   6.010  16.810  0.00  0.00    +0.000 OA
ENDROOT
BRANCH   1   3
ATOM      2  C   UNL     1       7.955   7.701  17.765  0.00  0.00    +0.000 C 
ATOM      3  N   UNL     1       6.906   7.389  17.079  0.00  0.00    +0.000 NA
BRANCH   2   5
ATOM      4  N   UNL     1       9.164   9.353  19.080  0.00  0.00    +0.000 N 
ATOM      5  C   UNL     1       8.231   9.147  18.075  0.00  0.00    +0.000 C 
ATOM      6  O   UNL     1       7.645   9.973  17.393  0.00  0.00    +0.000 OA
ATOM      7  H   UNL     1       9.580   8.537  19.511  0.00  0.00    +0.000 HD
BRANCH   4  12
ATOM      8  C   UNL     1      10.665  14.477  21.202  0.00  0.00    +0.000 C 
ATOM      9  C   UNL     1      10.292  13.134  20.651  0.00  0.00    +0.000 A 
ATOM     10  C   UNL     1      10.707  12.758  19.373  0.00  0.00    +0.000 A 
ATOM     11  C   UNL     1      10.350  11.511  18.847  0.00  0.00    +0.000 A 
ATOM     12  C   UNL     1       9.570  10.614  19.579  0.00  0.00    +0.000 A 
ATOM     13  C   UNL     1       9.158  10.988  20.864  0.00  0.00    +0.000 A 
ATOM     14  C   UNL     1       9.517  12.238  21.397  0.00  0.00    +0.000 A 
ENDBRANCH   4  12
ENDBRANCH   2   5
ENDBRANCH   1   3
BRANCH   1  15
ATOM     15  C   UNL     1       6.732   5.324  18.049  0.00  0.00    +0.000 C 
BRANCH  15  16
ATOM     16  C   UNL     1       5.331   5.512  18.622  0.00  0.00    +0.000 C 
ATOM     17  O   UNL     1       5.115   5.490  19.833  0.00  0.00    +0.000 OA
ATOM     18  N   UNL     1       4.356   5.787  17.690  0.00  0.00    +0.000 N 
ATOM     19  H   UNL     1       4.598   5.731  16.708  0.00  0.00    +0.000 HD
BRANCH  18  20
ATOM     20  C   UNL     1       2.981   6.041  18.056  0.00  0.00    +0.000 C 
BRANCH  20  21
ATOM     21  C   UNL     1       2.336   4.860  18.738  0.00  0.00    +0.000 A 
ATOM     22  C   UNL     1       1.814   5.033  20.033  0.00  0.00    +0.000 A 
ATOM     23  C   UNL     1       1.179   3.984  20.701  0.00  0.00    +0.000 A 
ATOM     24  C   UNL     1       1.061   2.740  20.089  0.00  0.00    +0.000 A 
ATOM     25  C   UNL     1       1.589   2.544  18.814  0.00  0.00    +0.000 A 
ATOM     26  C   UNL     1       2.229   3.594  18.145  0.00  0.00    +0.000 A 
ATOM     27 CL   UNL     1       2.874   3.262  16.576  0.00  0.00    +0.000 Cl
ENDBRANCH  20  21
ENDBRANCH  18  20
ENDBRANCH  15  16
ENDBRANCH   1  15
TORSDOF 7
ENDMDL
MODEL 5
REMARK VINA RESULT:      -7.5      2.349      3.247
REMARK  Name = 
REMARK  8 active torsions:
REMARK  status: ('A' for Active; 'I' for Inactive)
REMARK    1  A    between atoms: C_1  and  C_2
REMARK    2  A    between atoms: C_5  and  N_6
REMARK    3  A    between atoms: C_7  and  C_9
REMARK    4  A    between atoms: N_10  and  O_11
REMARK    5  A    between atoms: O_11  and  C_12
REMARK    6  A    between atoms: C_12  and  C_13
REMARK    7  A    between atoms: N_15  and  C_16
REMARK    8  A    between atoms: C_16  and  C_17
REMARK                            x       y       z     vdW  Elec       q    Type
REMARK                         _______ _______ _______ _____ _____    ______ ____
ROOT
ATOM      1  O   UNL     1       8.185   7.648  18.256  0.00  0.00    +0.000 OA
ENDROOT
BRANCH   1   3
ATOM      2  C   UNL     1       9.119   9.503  19.006  0.00  0.00    +0.000 C 
ATOM      3  N   UNL     1       8.222   9.051  18.193  0.00  0.00    +0.000 NA
BRANCH   2   5
ATOM      4  N   UNL     1      10.095  11.445  17.914  0.00  0.00    +0.000 N 
ATOM      5  C   UNL     1       9.418  10.977  19.029  0.00  0.00    +0.000 C 
ATOM      6  O   UNL     1       9.005  11.603  19.993  0.00  0.00    +0.000 OA
ATOM      7  H   UNL     1      10.324  10.779  17.187  0.00  0.00    +0.000 HD
BRANCH   4  12
ATOM      8  C   UNL     1      11.991  16.813  17.133  0.00  0.00    +0.000 C 
ATOM      9  C   UNL     1      11.485  15.414  17.320  0.00  0.00    +0.000 A 
ATOM     10  C   UNL     1      10.170  15.189  17.728  0.00  0.00    +0.000 A 
ATOM     11  C   UNL     1       9.696  13.886  17.918  0.00  0.00    +0.000 A 
ATOM     12  C   UNL     1      10.522  12.779  17.710  0.00  0.00    +0.000 A 
ATOM     13  C   UNL     1      11.840  13.004  17.295  0.00  0.00    +0.000 A 
ATOM     14  C   UNL     1      12.318  14.311  17.100  0.00  0.00    +0.000 A 
ENDBRANCH   4  12
ENDBRANCH   2   5
ENDBRANCH   1   3
BRANCH   1  15
ATOM     15  C   UNL     1       7.302   7.187  17.235  0.00  0.00    +0.000 C 
BRANCH  15  16
ATOM     16  C   UNL     1       6.916   5.724  17.424  0.00  0.00    +0.000 C 
ATOM     17  O   UNL     1       7.582   4.808  16.945  0.00  0.00    +0.000 OA
ATOM     18  N   UNL     1       5.821   5.514  18.233  0.00  0.00    +0.000 N 
ATOM     19  H   UNL     1       5.290   6.319  18.544  0.00  0.00    +0.000 HD
BRANCH  18  20
ATOM     20  C   UNL     1       5.341   4.192  18.562  0.00  0.00    +0.000 C 
BRANCH  20  21
ATOM     21  C   UNL     1       3.932   4.206  19.101  0.00  0.00    +0.000 A 
ATOM     22  C   UNL     1       3.449   5.388  19.694  0.00  0.00    +0.000 A 
ATOM     23  C   UNL     1       2.143   5.469  20.182  0.00  0.00    +0.000 A 
ATOM     24  C   UNL     1       1.298   4.368  20.094  0.00  0.00    +0.000 A 
ATOM     25  C   UNL     1       1.764   3.182  19.528  0.00  0.00    +0.000 A 
ATOM     26  C   UNL     1       3.074   3.098  19.041  0.00  0.00    +0.000 A 
ATOM     27 CL   UNL     1       3.581   1.586  18.373  0.00  0.00    +0.000 Cl
ENDBRANCH  20  21
ENDBRANCH  18  20
ENDBRANCH  15  16
ENDBRANCH   1  15
TORSDOF 7
ENDMDL
MODEL 6
REMARK VINA RESULT:      -7.4      4.720      6.246
REMARK  Name = 
REMARK  8 active torsions:
REMARK  status: ('A' for Active; 'I' for Inactive)
REMARK    1  A    between atoms: C_1  and  C_2
REMARK    2  A    between atoms: C_5  and  N_6
REMARK    3  A    between atoms: C_7  and  C_9
REMARK    4  A    between atoms: N_10  and  O_11
REMARK    5  A    between atoms: O_11  and  C_12
REMARK    6  A    between atoms: C_12  and  C_13
REMARK    7  A    between atoms: N_15  and  C_16
REMARK    8  A    between atoms: C_16  and  C_17
REMARK                            x       y       z     vdW  Elec       q    Type
REMARK                         _______ _______ _______ _____ _____    ______ ____
ROOT
ATOM      1  O   UNL     1       4.903   6.280  16.750  0.00  0.00    +0.000 OA
ENDROOT
BRANCH   1   3
ATOM      2  C   UNL     1       3.108   7.432  17.322  0.00  0.00    +0.000 C 
ATOM      3  N   UNL     1       4.386   7.352  17.497  0.00  0.00    +0.000 NA
BRANCH   2   5
ATOM      4  N   UNL     1       1.957   8.019  19.383  0.00  0.00    +0.000 N 
ATOM      5  C   UNL     1       2.317   8.438  18.111  0.00  0.00    +0.000 C 
ATOM      6  O   UNL     1       2.113   9.516  17.574  0.00  0.00    +0.000 OA
ATOM      7  H   UNL     1       2.252   7.096  19.676  0.00  0.00    +0.000 HD
BRANCH   4  12
ATOM      8  C   UNL     1      -1.185  11.172  23.016  0.00  0.00    +0.000 C 
ATOM      9  C   UNL     1      -0.376  10.333  22.073  0.00  0.00    +0.000 A 
ATOM     10  C   UNL     1       0.545   9.409  22.566  0.00  0.00    +0.000 A 
ATOM     11  C   UNL     1       1.313   8.632  21.691  0.00  0.00    +0.000 A 
ATOM     12  C   UNL     1       1.185   8.763  20.306  0.00  0.00    +0.000 A 
ATOM     13  C   UNL     1       0.257   9.688  19.811  0.00  0.00    +0.000 A 
ATOM     14  C   UNL     1      -0.519  10.466  20.687  0.00  0.00    +0.000 A 
ENDBRANCH   4  12
ENDBRANCH   2   5
ENDBRANCH   1   3
BRANCH   1  15
ATOM     15  C   UNL     1       6.069   5.803  17.420  0.00  0.00    +0.000 C 
BRANCH  15  16
ATOM     16  C   UNL     1       5.726   4.897  18.599  0.00  0.00    +0.000 C 
ATOM     17  O   UNL     1       5.849   5.272  19.764  0.00  0.00    +0.000 OA
ATOM     18  N   UNL     1       5.197   3.673  18.254  0.00  0.00    +0.000 N 
ATOM     19  H   UNL     1       5.180   3.414  17.275  0.00  0.00    +0.000 HD
BRANCH  18  20
ATOM     20  C   UNL     1       4.770   2.707  19.240  0.00  0.00    +0.000 C 
BRANCH  20  21
ATOM     21  C   UNL     1       3.332   2.899  19.653  0.00  0.00    +0.000 A 
ATOM     22  C   UNL     1       3.004   2.798  21.019  0.00  0.00    +0.000 A 
ATOM     23  C   UNL     1       1.696   2.997  21.463  0.00  0.00    +0.000 A 
ATOM     24  C   UNL     1       0.689   3.293  20.550  0.00  0.00    +0.000 A 
ATOM     25  C   UNL     1       0.990   3.378  19.192  0.00  0.00    +0.000 A 
ATOM     26  C   UNL     1       2.301   3.175  18.744  0.00  0.00    +0.000 A 
ATOM     27 CL   UNL     1       2.587   3.279  17.042  0.00  0.00    +0.000 Cl
ENDBRANCH  20  21
ENDBRANCH  18  20
ENDBRANCH  15  16
ENDBRANCH   1  15
TORSDOF 7
ENDMDL
MODEL 7
REMARK VINA RESULT:      -7.4      4.575      6.326
REMARK  Name = 
REMARK  8 active torsions:
REMARK  status: ('A' for Active; 'I' for Inactive)
REMARK    1  A    between atoms: C_1  and  C_2
REMARK    2  A    between atoms: C_5  and  N_6
REMARK    3  A    between atoms: C_7  and  C_9
REMARK    4  A    between atoms: N_10  and  O_11
REMARK    5  A    between atoms: O_11  and  C_12
REMARK    6  A    between atoms: C_12  and  C_13
REMARK    7  A    between atoms: N_15  and  C_16
REMARK    8  A    between atoms: C_16  and  C_17
REMARK                            x       y       z     vdW  Elec       q    Type
REMARK                         _______ _______ _______ _____ _____    ______ ____
ROOT
ATOM      1  O   UNL     1       4.835   6.595  16.642  0.00  0.00    +0.000 OA
ENDROOT
BRANCH   1   3
ATOM      2  C   UNL     1       2.999   7.237  17.687  0.00  0.00    +0.000 C 
ATOM      3  N   UNL     1       4.160   7.642  17.292  0.00  0.00    +0.000 NA
BRANCH   2   5
ATOM      4  N   UNL     1       1.548   9.187  17.795  0.00  0.00    +0.000 N 
ATOM      5  C   UNL     1       2.137   8.155  18.509  0.00  0.00    +0.000 C 
ATOM      6  O   UNL     1       2.017   7.876  19.692  0.00  0.00    +0.000 OA
ATOM      7  H   UNL     1       1.733   9.238  16.802  0.00  0.00    +0.000 HD
BRANCH   4  12
ATOM      8  C   UNL     1      -1.669  13.336  20.130  0.00  0.00    +0.000 C 
ATOM      9  C   UNL     1      -0.835  12.260  19.502  0.00  0.00    +0.000 A 
ATOM     10  C   UNL     1      -1.444  11.147  18.920  0.00  0.00    +0.000 A 
ATOM     11  C   UNL     1      -0.670  10.132  18.345  0.00  0.00    +0.000 A 
ATOM     12  C   UNL     1       0.724  10.200  18.342  0.00  0.00    +0.000 A 
ATOM     13  C   UNL     1       1.336  11.319  18.922  0.00  0.00    +0.000 A 
ATOM     14  C   UNL     1       0.562  12.341  19.496  0.00  0.00    +0.000 A 
ENDBRANCH   4  12
ENDBRANCH   2   5
ENDBRANCH   1   3
BRANCH   1  15
ATOM     15  C   UNL     1       5.888   6.156  17.499  0.00  0.00    +0.000 C 
BRANCH  15  16
ATOM     16  C   UNL     1       5.603   4.787  18.109  0.00  0.00    +0.000 C 
ATOM     17  O   UNL     1       6.263   4.342  19.046  0.00  0.00    +0.000 OA
ATOM     18  N   UNL     1       4.507   4.137  17.585  0.00  0.00    +0.000 N 
ATOM     19  H   UNL     1       4.049   4.540  16.777  0.00  0.00    +0.000 HD
BRANCH  18  20
ATOM     20  C   UNL     1       4.060   2.853  18.074  0.00  0.00    +0.000 C 
BRANCH  20  21
ATOM     21  C   UNL     1       3.066   2.978  19.202  0.00  0.00    +0.000 A 
ATOM     22  C   UNL     1       3.426   2.494  20.474  0.00  0.00    +0.000 A 
ATOM     23  C   UNL     1       2.560   2.611  21.563  0.00  0.00    +0.000 A 
ATOM     24  C   UNL     1       1.314   3.208  21.399  0.00  0.00    +0.000 A 
ATOM     25  C   UNL     1       0.931   3.676  20.143  0.00  0.00    +0.000 A 
ATOM     26  C   UNL     1       1.798   3.557  19.050  0.00  0.00    +0.000 A 
ATOM     27 CL   UNL     1       1.240   4.145  17.523  0.00  0.00    +0.000 Cl
ENDBRANCH  20  21
ENDBRANCH  18  20
ENDBRANCH  15  16
ENDBRANCH   1  15
TORSDOF 7
ENDMDL
MODEL 8
REMARK VINA RESULT:      -7.4      4.701      6.513
REMARK  Name = 
REMARK  8 active torsions:
REMARK  status: ('A' for Active; 'I' for Inactive)
REMARK    1  A    between atoms: C_1  and  C_2
REMARK    2  A    between atoms: C_5  and  N_6
REMARK    3  A    between atoms: C_7  and  C_9
REMARK    4  A    between atoms: N_10  and  O_11
REMARK    5  A    between atoms: O_11  and  C_12
REMARK    6  A    between atoms: C_12  and  C_13
REMARK    7  A    between atoms: N_15  and  C_16
REMARK    8  A    between atoms: C_16  and  C_17
REMARK                            x       y       z     vdW  Elec       q    Type
REMARK                         _______ _______ _______ _____ _____    ______ ____
ROOT
ATOM      1  O   UNL     1       4.999   6.579  16.652  0.00  0.00    +0.000 OA
ENDROOT
BRANCH   1   3
ATOM      2  C   UNL     1       3.099   7.199  17.588  0.00  0.00    +0.000 C 
ATOM      3  N   UNL     1       4.323   7.562  17.393  0.00  0.00    +0.000 NA
BRANCH   2   5
ATOM      4  N   UNL     1       1.562   9.074  17.793  0.00  0.00    +0.000 N 
ATOM      5  C   UNL     1       2.208   8.043  18.458  0.00  0.00    +0.000 C 
ATOM      6  O   UNL     1       2.118   7.713  19.630  0.00  0.00    +0.000 OA
ATOM      7  H   UNL     1       1.730   9.172  16.800  0.00  0.00    +0.000 HD
BRANCH   4  12
ATOM      8  C   UNL     1      -2.040  12.924  20.076  0.00  0.00    +0.000 C 
ATOM      9  C   UNL     1      -1.098  11.911  19.499  0.00  0.00    +0.000 A 
ATOM     10  C   UNL     1       0.265  11.973  19.786  0.00  0.00    +0.000 A 
ATOM     11  C   UNL     1       1.152  11.038  19.238  0.00  0.00    +0.000 A 
ATOM     12  C   UNL     1       0.701  10.025  18.390  0.00  0.00    +0.000 A 
ATOM     13  C   UNL     1      -0.669   9.959  18.106  0.00  0.00    +0.000 A 
ATOM     14  C   UNL     1      -1.562  10.893  18.656  0.00  0.00    +0.000 A 
ENDBRANCH   4  12
ENDBRANCH   2   5
ENDBRANCH   1   3
BRANCH   1  15
ATOM     15  C   UNL     1       6.025   6.035  17.481  0.00  0.00    +0.000 C 
BRANCH  15  16
ATOM     16  C   UNL     1       5.647   4.668  18.043  0.00  0.00    +0.000 C 
ATOM     17  O   UNL     1       6.281   4.142  18.955  0.00  0.00    +0.000 OA
ATOM     18  N   UNL     1       4.504   4.117  17.507  0.00  0.00    +0.000 N 
ATOM     19  H   UNL     1       4.068   4.582  16.719  0.00  0.00    +0.000 HD
BRANCH  18  20
ATOM     20  C   UNL     1       3.969   2.851  17.953  0.00  0.00    +0.000 C 
BRANCH  20  21
ATOM     21  C   UNL     1       3.058   2.997  19.147  0.00  0.00    +0.000 A 
ATOM     22  C   UNL     1       1.825   3.654  18.978  0.00  0.00    +0.000 A 
ATOM     23  C   UNL     1       0.928   3.790  20.039  0.00  0.00    +0.000 A 
ATOM     24  C   UNL     1       1.251   3.279  21.292  0.00  0.00    +0.000 A 
ATOM     25  C   UNL     1       2.476   2.642  21.485  0.00  0.00    +0.000 A 
ATOM     26  C   UNL     1       3.377   2.507  20.422  0.00  0.00    +0.000 A 
ATOM     27 CL   UNL     1       4.883   1.722  20.749  0.00  0.00    +0.000 Cl
ENDBRANCH  20  21
ENDBRANCH  18  20
ENDBRANCH  15  16
ENDBRANCH   1  15
TORSDOF 7
ENDMDL
MODEL 9
REMARK VINA RESULT:      -7.3      1.789      2.581
REMARK  Name = 
REMARK  8 active torsions:
REMARK  status: ('A' for Active; 'I' for Inactive)
REMARK    1  A    between atoms: C_1  and  C_2
REMARK    2  A    between atoms: C_5  and  N_6
REMARK    3  A    between atoms: C_7  and  C_9
REMARK    4  A    between atoms: N_10  and  O_11
REMARK    5  A    between atoms: O_11  and  C_12
REMARK    6  A    between atoms: C_12  and  C_13
REMARK    7  A    between atoms: N_15  and  C_16
REMARK    8  A    between atoms: C_16  and  C_17
REMARK                            x       y       z     vdW  Elec       q    Type
REMARK                         _______ _______ _______ _____ _____    ______ ____
ROOT
ATOM      1  O   UNL     1       7.409   7.039  16.943  0.00  0.00    +0.000 OA
ENDROOT
BRANCH   1   3
ATOM      2  C   UNL     1       8.209   9.013  17.525  0.00  0.00    +0.000 C 
ATOM      3  N   UNL     1       8.131   7.778  17.895  0.00  0.00    +0.000 NA
BRANCH   2   5
ATOM      4  N   UNL     1       8.799  11.328  17.986  0.00  0.00    +0.000 N 
ATOM      5  C   UNL     1       8.842  10.021  18.445  0.00  0.00    +0.000 C 
ATOM      6  O   UNL     1       9.283   9.595  19.501  0.00  0.00    +0.000 OA
ATOM      7  H   UNL     1       8.352  11.500  17.094  0.00  0.00    +0.000 HD
BRANCH   4  12
ATOM      8  C   UNL     1      11.173  15.782  20.731  0.00  0.00    +0.000 C 
ATOM      9  C   UNL     1      10.550  14.632  19.998  0.00  0.00    +0.000 A 
ATOM     10  C   UNL     1       9.172  14.597  19.784  0.00  0.00    +0.000 A 
ATOM     11  C   UNL     1       8.583  13.519  19.113  0.00  0.00    +0.000 A 
ATOM     12  C   UNL     1       9.352  12.451  18.646  0.00  0.00    +0.000 A 
ATOM     13  C   UNL     1      10.736  12.488  18.857  0.00  0.00    +0.000 A 
ATOM     14  C   UNL     1      11.331  13.570  19.527  0.00  0.00    +0.000 A 
ENDBRANCH   4  12
ENDBRANCH   2   5
ENDBRANCH   1   3
BRANCH   1  15
ATOM     15  C   UNL     1       7.254   5.713  17.444  0.00  0.00    +0.000 C 
BRANCH  15  16
ATOM     16  C   UNL     1       6.110   5.607  18.448  0.00  0.00    +0.000 C 
ATOM     17  O   UNL     1       6.298   5.265  19.614  0.00  0.00    +0.000 OA
ATOM     18  N   UNL     1       4.880   6.000  17.968  0.00  0.00    +0.000 N 
ATOM     19  H   UNL     1       4.793   6.213  16.982  0.00  0.00    +0.000 HD
BRANCH  18  20
ATOM     20  C   UNL     1       3.693   6.011  18.792  0.00  0.00    +0.000 C 
BRANCH  20  21
ATOM     21  C   UNL     1       2.902   4.731  18.684  0.00  0.00    +0.000 A 
ATOM     22  C   UNL     1       3.239   3.814  17.671  0.00  0.00    +0.000 A 
ATOM     23  C   UNL     1       2.563   2.599  17.543  0.00  0.00    +0.000 A 
ATOM     24  C   UNL     1       1.531   2.282  18.421  0.00  0.00    +0.000 A 
ATOM     25  C   UNL     1       1.170   3.186  19.419  0.00  0.00    +0.000 A 
ATOM     26  C   UNL     1       1.845   4.406  19.546  0.00  0.00    +0.000 A 
ATOM     27 CL   UNL     1       1.323   5.479  20.797  0.00  0.00    +0.000 Cl
ENDBRANCH  20  21
ENDBRANCH  18  20
ENDBRANCH  15  16
ENDBRANCH   1  15
TORSDOF 7
ENDMDL
