MODEL 1
REMARK VINA RESULT:      -8.1      0.000      0.000
REMARK  Name = 
REMARK  15 active torsions:
REMARK  status: ('A' for Active; 'I' for Inactive)
REMARK    1  A    between atoms: C_1  and  C_2
REMARK    2  A    between atoms: C_2  and  C_3
REMARK    3  A    between atoms: C_2  and  C_4
REMARK    4  A    between atoms: C_4  and  C_5
REMARK    5  A    between atoms: C_8  and  C_9
REMARK    6  A    between atoms: C_12  and  S_13
REMARK    7  A    between atoms: S_13  and  C_16
REMARK    8  A    between atoms: C_16  and  C_17
REMARK    9  A    between atoms: C_17  and  C_18
REMARK   10  A    between atoms: C_17  and  C_19
REMARK   11  A    between atoms: C_17  and  C_20
REMARK   12  A    between atoms: N_22  and  C_23
REMARK   13  A    between atoms: C_23  and  C_24
REMARK   14  A    between atoms: C_23  and  C_26
REMARK   15  A    between atoms: C_26  and  C_27
REMARK                            x       y       z     vdW  Elec       q    Type
REMARK                         _______ _______ _______ _____ _____    ______ ____
ROOT
ATOM      1  S   UNL     1       0.312   9.642  21.297  0.00  0.00    +0.000 S 
ATOM      2  O   UNL     1      -0.584   8.805  22.072  0.00  0.00    +0.000 OA
ATOM      3  O   UNL     1       1.323  10.446  21.957  0.00  0.00    +0.000 OA
ENDROOT
BRANCH   1   7
ATOM      4  C   UNL     1       2.737   6.939  18.579  0.00  0.00    +0.000 A 
ATOM      5  C   UNL     1       2.283   8.200  18.145  0.00  0.00    +0.000 A 
ATOM      6  C   UNL     1       1.546   9.024  18.975  0.00  0.00    +0.000 A 
ATOM      7  C   UNL     1       1.199   8.559  20.235  0.00  0.00    +0.000 A 
ATOM      8  C   UNL     1       1.610   7.309  20.698  0.00  0.00    +0.000 A 
ATOM      9  C   UNL     1       2.383   6.504  19.867  0.00  0.00    +0.000 A 
BRANCH   4  13
ATOM     10  C   UNL     1       5.224   4.634  15.956  0.00  0.00    +0.000 A 
ATOM     11  C   UNL     1       5.399   6.015  16.070  0.00  0.00    +0.000 A 
ATOM     12  C   UNL     1       4.603   6.747  16.945  0.00  0.00    +0.000 A 
ATOM     13  C   UNL     1       3.597   6.129  17.708  0.00  0.00    +0.000 A 
ATOM     14  C   UNL     1       3.448   4.740  17.602  0.00  0.00    +0.000 A 
ATOM     15  C   UNL     1       4.255   4.000  16.740  0.00  0.00    +0.000 A 
BRANCH  10  16
ATOM     16  C   UNL     1       6.050   3.832  14.986  0.00  0.00    +0.000 C 
BRANCH  16  18
ATOM     17  C   UNL     1       7.515   4.963  13.246  0.00  0.00    +0.000 C 
ATOM     18  C   UNL     1       6.117   4.429  13.569  0.00  0.00    +0.000 C 
ATOM     19  C   UNL     1       5.721   3.371  12.538  0.00  0.00    +0.000 C 
ENDBRANCH  16  18
ENDBRANCH  10  16
ENDBRANCH   4  13
ENDBRANCH   1   7
BRANCH   1  20
ATOM     20  C   UNL     1      -0.664  10.686  20.174  0.00  0.00    +0.000 C 
BRANCH  20  21
ATOM     21  C   UNL     1      -0.959  12.088  20.782  0.00  0.00    +0.000 C 
ATOM     22  C   UNL     1      -1.142  11.910  22.304  0.00  0.00    +0.000 C 
ATOM     23  C   UNL     1       0.199  13.032  20.388  0.00  0.00    +0.000 C 
BRANCH  21  24
ATOM     24  C   UNL     1      -2.276  12.714  20.240  0.00  0.00    +0.000 C 
ATOM     25  O   UNL     1      -2.567  13.891  20.416  0.00  0.00    +0.000 OA
ATOM     26  N   UNL     1      -3.064  11.848  19.492  0.00  0.00    +0.000 N 
ATOM     27  H   UNL     1      -2.849  10.859  19.527  0.00  0.00    +0.000 HD
BRANCH  26  28
ATOM     28  C   UNL     1      -4.333  12.208  18.804  0.00  0.00    +0.000 C 
BRANCH  28  29
ATOM     29  C   UNL     1      -5.526  11.848  19.631  0.00  0.00    +0.000 C 
ATOM     30  N   UNL     1      -6.444  11.626  20.296  0.00  0.00    +0.000 NA
ENDBRANCH  28  29
BRANCH  28  31
ATOM     31  C   UNL     1      -4.395  11.449  17.461  0.00  0.00    +0.000 C 
BRANCH  31  32
ATOM     32  C   UNL     1      -3.075  10.793  17.128  0.00  0.00    +0.000 C 
ATOM     33  N   UNL     1      -2.267  11.474  16.266  0.00  0.00    +0.000 N 
ATOM     34  O   UNL     1      -2.742   9.698  17.561  0.00  0.00    +0.000 OA
ATOM     35  H   UNL     1      -2.555  12.272  15.717  0.00  0.00    +0.000 HD
ATOM     36  H   UNL     1      -1.389  11.030  16.016  0.00  0.00    +0.000 HD
ENDBRANCH  31  32
ENDBRANCH  28  31
ENDBRANCH  26  28
ENDBRANCH  21  24
ENDBRANCH  20  21
ENDBRANCH   1  20
TORSDOF 11
ENDMDL
MODEL 2
REMARK VINA RESULT:      -7.5      2.438      3.676
REMARK  Name = 
REMARK  15 active torsions:
REMARK  status: ('A' for Active; 'I' for Inactive)
REMARK    1  A    between atoms: C_1  and  C_2
REMARK    2  A    between atoms: C_2  and  C_3
REMARK    3  A    between atoms: C_2  and  C_4
REMARK    4  A    between atoms: C_4  and  C_5
REMARK    5  A    between atoms: C_8  and  C_9
REMARK    6  A    between atoms: C_12  and  S_13
REMARK    7  A    between atoms: S_13  and  C_16
REMARK    8  A    between atoms: C_16  and  C_17
REMARK    9  A    between atoms: C_17  and  C_18
REMARK   10  A    between atoms: C_17  and  C_19
REMARK   11  A    between atoms: C_17  and  C_20
REMARK   12  A    between atoms: N_22  and  C_23
REMARK   13  A    between atoms: C_23  and  C_24
REMARK   14  A    between atoms: C_23  and  C_26
REMARK   15  A    between atoms: C_26  and  C_27
REMARK                            x       y       z     vdW  Elec       q    Type
REMARK                         _______ _______ _______ _____ _____    ______ ____
ROOT
ATOM      1  S   UNL     1       0.619   9.364  21.442  0.00  0.00    +0.000 S 
ATOM      2  O   UNL     1      -0.766   8.933  21.416  0.00  0.00    +0.000 OA
ATOM      3  O   UNL     1       1.396   9.267  22.663  0.00  0.00    +0.000 OA
ENDROOT
BRANCH   1   7
ATOM      4  C   UNL     1       2.940   6.879  18.440  0.00  0.00    +0.000 A 
ATOM      5  C   UNL     1       2.460   8.163  18.115  0.00  0.00    +0.000 A 
ATOM      6  C   UNL     1       1.754   8.921  19.032  0.00  0.00    +0.000 A 
ATOM      7  C   UNL     1       1.466   8.366  20.271  0.00  0.00    +0.000 A 
ATOM      8  C   UNL     1       1.904   7.090  20.626  0.00  0.00    +0.000 A 
ATOM      9  C   UNL     1       2.645   6.352  19.709  0.00  0.00    +0.000 A 
BRANCH   4  13
ATOM     10  C   UNL     1       5.393   4.665  15.710  0.00  0.00    +0.000 A 
ATOM     11  C   UNL     1       4.530   4.004  16.586  0.00  0.00    +0.000 A 
ATOM     12  C   UNL     1       3.720   4.735  17.449  0.00  0.00    +0.000 A 
ATOM     13  C   UNL     1       3.766   6.139  17.478  0.00  0.00    +0.000 A 
ATOM     14  C   UNL     1       4.618   6.792  16.577  0.00  0.00    +0.000 A 
ATOM     15  C   UNL     1       5.419   6.063  15.699  0.00  0.00    +0.000 A 
BRANCH  10  16
ATOM     16  C   UNL     1       6.305   3.889  14.798  0.00  0.00    +0.000 C 
BRANCH  16  18
ATOM     17  C   UNL     1       7.669   4.973  12.948  0.00  0.00    +0.000 C 
ATOM     18  C   UNL     1       6.312   4.382  13.341  0.00  0.00    +0.000 C 
ATOM     19  C   UNL     1       5.962   3.230  12.398  0.00  0.00    +0.000 C 
ENDBRANCH  16  18
ENDBRANCH  10  16
ENDBRANCH   4  13
ENDBRANCH   1   7
BRANCH   1  20
ATOM     20  C   UNL     1       0.735  11.051  20.776  0.00  0.00    +0.000 C 
BRANCH  20  21
ATOM     21  C   UNL     1      -0.437  11.956  21.256  0.00  0.00    +0.000 C 
ATOM     22  C   UNL     1      -1.573  11.841  20.218  0.00  0.00    +0.000 C 
ATOM     23  C   UNL     1      -0.831  11.508  22.681  0.00  0.00    +0.000 C 
BRANCH  21  24
ATOM     24  C   UNL     1      -0.044  13.459  21.331  0.00  0.00    +0.000 C 
ATOM     25  O   UNL     1      -0.259  14.147  22.322  0.00  0.00    +0.000 OA
ATOM     26  N   UNL     1       0.622  13.940  20.211  0.00  0.00    +0.000 N 
ATOM     27  H   UNL     1       0.617  13.372  19.374  0.00  0.00    +0.000 HD
BRANCH  26  28
ATOM     28  C   UNL     1       1.166  15.316  20.052  0.00  0.00    +0.000 C 
BRANCH  28  29
ATOM     29  C   UNL     1       0.415  16.087  19.014  0.00  0.00    +0.000 C 
ATOM     30  N   UNL     1      -0.217  16.656  18.232  0.00  0.00    +0.000 NA
ENDBRANCH  28  29
BRANCH  28  31
ATOM     31  C   UNL     1       2.649  15.211  19.638  0.00  0.00    +0.000 C 
BRANCH  31  32
ATOM     32  C   UNL     1       2.815  14.466  18.333  0.00  0.00    +0.000 C 
ATOM     33  N   UNL     1       3.389  15.163  17.312  0.00  0.00    +0.000 N 
ATOM     34  O   UNL     1       2.429  13.317  18.164  0.00  0.00    +0.000 OA
ATOM     35  H   UNL     1       3.544  16.162  17.314  0.00  0.00    +0.000 HD
ATOM     36  H   UNL     1       3.482  14.680  16.425  0.00  0.00    +0.000 HD
ENDBRANCH  31  32
ENDBRANCH  28  31
ENDBRANCH  26  28
ENDBRANCH  21  24
ENDBRANCH  20  21
ENDBRANCH   1  20
TORSDOF 11
ENDMDL
MODEL 3
REMARK VINA RESULT:      -7.5      1.618      2.464
REMARK  Name = 
REMARK  15 active torsions:
REMARK  status: ('A' for Active; 'I' for Inactive)
REMARK    1  A    between atoms: C_1  and  C_2
REMARK    2  A    between atoms: C_2  and  C_3
REMARK    3  A    between atoms: C_2  and  C_4
REMARK    4  A    between atoms: C_4  and  C_5
REMARK    5  A    between atoms: C_8  and  C_9
REMARK    6  A    between atoms: C_12  and  S_13
REMARK    7  A    between atoms: S_13  and  C_16
REMARK    8  A    between atoms: C_16  and  C_17
REMARK    9  A    between atoms: C_17  and  C_18
REMARK   10  A    between atoms: C_17  and  C_19
REMARK   11  A    between atoms: C_17  and  C_20
REMARK   12  A    between atoms: N_22  and  C_23
REMARK   13  A    between atoms: C_23  and  C_24
REMARK   14  A    between atoms: C_23  and  C_26
REMARK   15  A    between atoms: C_26  and  C_27
REMARK                            x       y       z     vdW  Elec       q    Type
REMARK                         _______ _______ _______ _____ _____    ______ ____
ROOT
ATOM      1  S   UNL     1       0.222   9.462  20.965  0.00  0.00    +0.000 S 
ATOM      2  O   UNL     1      -0.625   8.472  21.603  0.00  0.00    +0.000 OA
ATOM      3  O   UNL     1       1.049  10.347  21.763  0.00  0.00    +0.000 OA
ENDROOT
BRANCH   1   7
ATOM      4  C   UNL     1       2.995   7.043  18.313  0.00  0.00    +0.000 A 
ATOM      5  C   UNL     1       2.659   6.611  19.611  0.00  0.00    +0.000 A 
ATOM      6  C   UNL     1       1.812   7.348  20.418  0.00  0.00    +0.000 A 
ATOM      7  C   UNL     1       1.343   8.567  19.950  0.00  0.00    +0.000 A 
ATOM      8  C   UNL     1       1.667   9.042  18.679  0.00  0.00    +0.000 A 
ATOM      9  C   UNL     1       2.489   8.274  17.862  0.00  0.00    +0.000 A 
BRANCH   4  13
ATOM     10  C   UNL     1       5.366   4.606  15.701  0.00  0.00    +0.000 A 
ATOM     11  C   UNL     1       5.455   5.999  15.650  0.00  0.00    +0.000 A 
ATOM     12  C   UNL     1       4.700   6.777  16.521  0.00  0.00    +0.000 A 
ATOM     13  C   UNL     1       3.819   6.191  17.446  0.00  0.00    +0.000 A 
ATOM     14  C   UNL     1       3.757   4.792  17.505  0.00  0.00    +0.000 A 
ATOM     15  C   UNL     1       4.524   4.009  16.645  0.00  0.00    +0.000 A 
BRANCH  10  16
ATOM     16  C   UNL     1       6.146   3.750  14.740  0.00  0.00    +0.000 C 
BRANCH  16  18
ATOM     17  C   UNL     1       7.593   4.863  12.973  0.00  0.00    +0.000 C 
ATOM     18  C   UNL     1       6.207   4.304  13.306  0.00  0.00    +0.000 C 
ATOM     19  C   UNL     1       5.843   3.206  12.305  0.00  0.00    +0.000 C 
ENDBRANCH  16  18
ENDBRANCH  10  16
ENDBRANCH   4  13
ENDBRANCH   1   7
BRANCH   1  20
ATOM     20  C   UNL     1      -0.772  10.439  19.799  0.00  0.00    +0.000 C 
BRANCH  20  21
ATOM     21  C   UNL     1      -0.561  11.970  19.984  0.00  0.00    +0.000 C 
ATOM     22  C   UNL     1       0.947  12.210  20.211  0.00  0.00    +0.000 C 
ATOM     23  C   UNL     1      -1.138  12.684  18.742  0.00  0.00    +0.000 C 
BRANCH  21  24
ATOM     24  C   UNL     1      -1.300  12.533  21.232  0.00  0.00    +0.000 C 
ATOM     25  O   UNL     1      -0.731  12.734  22.298  0.00  0.00    +0.000 OA
ATOM     26  N   UNL     1      -2.638  12.843  21.021  0.00  0.00    +0.000 N 
ATOM     27  H   UNL     1      -3.079  12.500  20.178  0.00  0.00    +0.000 HD
BRANCH  26  28
ATOM     28  C   UNL     1      -3.551  13.457  22.023  0.00  0.00    +0.000 C 
BRANCH  28  29
ATOM     29  C   UNL     1      -3.725  12.576  23.219  0.00  0.00    +0.000 C 
ATOM     30  N   UNL     1      -3.810  11.924  24.169  0.00  0.00    +0.000 NA
ENDBRANCH  28  29
BRANCH  28  31
ATOM     31  C   UNL     1      -4.924  13.689  21.356  0.00  0.00    +0.000 C 
BRANCH  31  32
ATOM     32  C   UNL     1      -5.367  12.487  20.554  0.00  0.00    +0.000 C 
ATOM     33  N   UNL     1      -6.352  11.725  21.108  0.00  0.00    +0.000 N 
ATOM     34  O   UNL     1      -4.862  12.172  19.484  0.00  0.00    +0.000 OA
ATOM     35  H   UNL     1      -6.669  11.803  22.064  0.00  0.00    +0.000 HD
ATOM     36  H   UNL     1      -6.639  10.902  20.589  0.00  0.00    +0.000 HD
ENDBRANCH  31  32
ENDBRANCH  28  31
ENDBRANCH  26  28
ENDBRANCH  21  24
ENDBRANCH  20  21
ENDBRANCH   1  20
TORSDOF 11
ENDMDL
MODEL 4
REMARK VINA RESULT:      -7.5      4.757     10.624
REMARK  Name = 
REMARK  15 active torsions:
REMARK  status: ('A' for Active; 'I' for Inactive)
REMARK    1  A    between atoms: C_1  and  C_2
REMARK    2  A    between atoms: C_2  and  C_3
REMARK    3  A    between atoms: C_2  and  C_4
REMARK    4  A    between atoms: C_4  and  C_5
REMARK    5  A    between atoms: C_8  and  C_9
REMARK    6  A    between atoms: C_12  and  S_13
REMARK    7  A    between atoms: S_13  and  C_16
REMARK    8  A    between atoms: C_16  and  C_17
REMARK    9  A    between atoms: C_17  and  C_18
REMARK   10  A    between atoms: C_17  and  C_19
REMARK   11  A    between atoms: C_17  and  C_20
REMARK   12  A    between atoms: N_22  and  C_23
REMARK   13  A    between atoms: C_23  and  C_24
REMARK   14  A    between atoms: C_23  and  C_26
REMARK   15  A    between atoms: C_26  and  C_27
REMARK                            x       y       z     vdW  Elec       q    Type
REMARK                         _______ _______ _______ _____ _____    ______ ____
ROOT
ATOM      1  S   UNL     1       3.433   6.502  18.577  0.00  0.00    +0.000 S 
ATOM      2  O   UNL     1       4.113   7.171  17.483  0.00  0.00    +0.000 OA
ATOM      3  O   UNL     1       4.176   6.050  19.738  0.00  0.00    +0.000 OA
ENDROOT
BRANCH   1   7
ATOM      4  C   UNL     1       0.506   9.524  20.270  0.00  0.00    +0.000 A 
ATOM      5  C   UNL     1       0.899   8.391  21.008  0.00  0.00    +0.000 A 
ATOM      6  C   UNL     1       1.794   7.471  20.492  0.00  0.00    +0.000 A 
ATOM      7  C   UNL     1       2.254   7.648  19.195  0.00  0.00    +0.000 A 
ATOM      8  C   UNL     1       1.874   8.745  18.422  0.00  0.00    +0.000 A 
ATOM      9  C   UNL     1       1.003   9.683  18.966  0.00  0.00    +0.000 A 
BRANCH   4  13
ATOM     10  C   UNL     1      -2.095  12.389  22.115  0.00  0.00    +0.000 A 
ATOM     11  C   UNL     1      -1.275  11.570  22.893  0.00  0.00    +0.000 A 
ATOM     12  C   UNL     1      -0.416  10.663  22.281  0.00  0.00    +0.000 A 
ATOM     13  C   UNL     1      -0.370  10.531  20.883  0.00  0.00    +0.000 A 
ATOM     14  C   UNL     1      -1.180  11.376  20.112  0.00  0.00    +0.000 A 
ATOM     15  C   UNL     1      -2.030  12.298  20.721  0.00  0.00    +0.000 A 
BRANCH  10  16
ATOM     16  C   UNL     1      -3.059  13.348  22.762  0.00  0.00    +0.000 C 
BRANCH  16  18
ATOM     17  C   UNL     1      -1.820  14.729  24.498  0.00  0.00    +0.000 C 
ATOM     18  C   UNL     1      -2.453  14.720  23.104  0.00  0.00    +0.000 C 
ATOM     19  C   UNL     1      -1.400  15.100  22.061  0.00  0.00    +0.000 C 
ENDBRANCH  16  18
ENDBRANCH  10  16
ENDBRANCH   4  13
ENDBRANCH   1   7
BRANCH   1  20
ATOM     20  C   UNL     1       2.439   5.132  17.917  0.00  0.00    +0.000 C 
BRANCH  20  21
ATOM     21  C   UNL     1       2.930   3.747  18.430  0.00  0.00    +0.000 C 
ATOM     22  C   UNL     1       2.350   3.540  19.846  0.00  0.00    +0.000 C 
ATOM     23  C   UNL     1       2.496   2.677  17.403  0.00  0.00    +0.000 C 
BRANCH  21  24
ATOM     24  C   UNL     1       4.478   3.668  18.560  0.00  0.00    +0.000 C 
ATOM     25  O   UNL     1       5.032   3.052  19.463  0.00  0.00    +0.000 OA
ATOM     26  N   UNL     1       5.178   4.300  17.539  0.00  0.00    +0.000 N 
ATOM     27  H   UNL     1       4.667   4.923  16.927  0.00  0.00    +0.000 HD
BRANCH  26  28
ATOM     28  C   UNL     1       6.658   4.316  17.387  0.00  0.00    +0.000 C 
BRANCH  28  29
ATOM     29  C   UNL     1       7.317   5.054  18.507  0.00  0.00    +0.000 C 
ATOM     30  N   UNL     1       7.840   5.570  19.399  0.00  0.00    +0.000 NA
ENDBRANCH  28  29
BRANCH  28  31
ATOM     31  C   UNL     1       7.005   5.003  16.048  0.00  0.00    +0.000 C 
BRANCH  31  32
ATOM     32  C   UNL     1       5.777   5.211  15.192  0.00  0.00    +0.000 C 
ATOM     33  N   UNL     1       5.351   6.500  15.057  0.00  0.00    +0.000 N 
ATOM     34  O   UNL     1       5.159   4.293  14.669  0.00  0.00    +0.000 OA
ATOM     35  H   UNL     1       5.682   7.275  15.614  0.00  0.00    +0.000 HD
ATOM     36  H   UNL     1       4.513   6.648  14.505  0.00  0.00    +0.000 HD
ENDBRANCH  31  32
ENDBRANCH  28  31
ENDBRANCH  26  28
ENDBRANCH  21  24
ENDBRANCH  20  21
ENDBRANCH   1  20
TORSDOF 11
ENDMDL
MODEL 5
REMARK VINA RESULT:      -7.5      4.807     10.723
REMARK  Name = 
REMARK  15 active torsions:
REMARK  status: ('A' for Active; 'I' for Inactive)
REMARK    1  A    between atoms: C_1  and  C_2
REMARK    2  A    between atoms: C_2  and  C_3
REMARK    3  A    between atoms: C_2  and  C_4
REMARK    4  A    between atoms: C_4  and  C_5
REMARK    5  A    between atoms: C_8  and  C_9
REMARK    6  A    between atoms: C_12  and  S_13
REMARK    7  A    between atoms: S_13  and  C_16
REMARK    8  A    between atoms: C_16  and  C_17
REMARK    9  A    between atoms: C_17  and  C_18
REMARK   10  A    between atoms: C_17  and  C_19
REMARK   11  A    between atoms: C_17  and  C_20
REMARK   12  A    between atoms: N_22  and  C_23
REMARK   13  A    between atoms: C_23  and  C_24
REMARK   14  A    between atoms: C_23  and  C_26
REMARK   15  A    between atoms: C_26  and  C_27
REMARK                            x       y       z     vdW  Elec       q    Type
REMARK                         _______ _______ _______ _____ _____    ______ ____
ROOT
ATOM      1  S   UNL     1       3.121   6.207  18.842  0.00  0.00    +0.000 S 
ATOM      2  O   UNL     1       3.167   6.530  17.429  0.00  0.00    +0.000 OA
ATOM      3  O   UNL     1       4.343   6.138  19.621  0.00  0.00    +0.000 OA
ENDROOT
BRANCH   1   7
ATOM      4  C   UNL     1       0.499   9.405  20.704  0.00  0.00    +0.000 A 
ATOM      5  C   UNL     1       1.054   9.567  19.420  0.00  0.00    +0.000 A 
ATOM      6  C   UNL     1       1.851   8.591  18.852  0.00  0.00    +0.000 A 
ATOM      7  C   UNL     1       2.155   7.462  19.601  0.00  0.00    +0.000 A 
ATOM      8  C   UNL     1       1.644   7.271  20.885  0.00  0.00    +0.000 A 
ATOM      9  C   UNL     1       0.813   8.244  21.431  0.00  0.00    +0.000 A 
BRANCH   4  13
ATOM     10  C   UNL     1      -2.126  12.434  22.226  0.00  0.00    +0.000 A 
ATOM     11  C   UNL     1      -1.827  12.371  20.864  0.00  0.00    +0.000 A 
ATOM     12  C   UNL     1      -0.995  11.368  20.379  0.00  0.00    +0.000 A 
ATOM     13  C   UNL     1      -0.420  10.417  21.240  0.00  0.00    +0.000 A 
ATOM     14  C   UNL     1      -0.746  10.476  22.602  0.00  0.00    +0.000 A 
ATOM     15  C   UNL     1      -1.593  11.470  23.089  0.00  0.00    +0.000 A 
BRANCH  10  16
ATOM     16  C   UNL     1      -2.992  13.537  22.773  0.00  0.00    +0.000 C 
BRANCH  16  18
ATOM     17  C   UNL     1      -1.201  15.005  23.819  0.00  0.00    +0.000 C 
ATOM     18  C   UNL     1      -2.462  14.173  24.070  0.00  0.00    +0.000 C 
ATOM     19  C   UNL     1      -3.542  15.056  24.698  0.00  0.00    +0.000 C 
ENDBRANCH  16  18
ENDBRANCH  10  16
ENDBRANCH   4  13
ENDBRANCH   1   7
BRANCH   1  20
ATOM     20  C   UNL     1       2.159   4.683  19.078  0.00  0.00    +0.000 C 
BRANCH  20  21
ATOM     21  C   UNL     1       2.891   3.432  18.511  0.00  0.00    +0.000 C 
ATOM     22  C   UNL     1       2.352   2.195  19.263  0.00  0.00    +0.000 C 
ATOM     23  C   UNL     1       2.662   3.396  16.984  0.00  0.00    +0.000 C 
BRANCH  21  24
ATOM     24  C   UNL     1       4.427   3.472  18.752  0.00  0.00    +0.000 C 
ATOM     25  O   UNL     1       4.953   2.963  19.735  0.00  0.00    +0.000 OA
ATOM     26  N   UNL     1       5.157   4.078  17.737  0.00  0.00    +0.000 N 
ATOM     27  H   UNL     1       4.652   4.617  17.045  0.00  0.00    +0.000 HD
BRANCH  26  28
ATOM     28  C   UNL     1       6.640   4.188  17.685  0.00  0.00    +0.000 C 
BRANCH  28  29
ATOM     29  C   UNL     1       7.175   4.946  18.856  0.00  0.00    +0.000 C 
ATOM     30  N   UNL     1       7.558   5.494  19.800  0.00  0.00    +0.000 NA
ENDBRANCH  28  29
BRANCH  28  31
ATOM     31  C   UNL     1       7.031   4.918  16.382  0.00  0.00    +0.000 C 
BRANCH  31  32
ATOM     32  C   UNL     1       6.375   6.275  16.282  0.00  0.00    +0.000 C 
ATOM     33  N   UNL     1       5.309   6.366  15.437  0.00  0.00    +0.000 N 
ATOM     34  O   UNL     1       6.779   7.261  16.884  0.00  0.00    +0.000 OA
ATOM     35  H   UNL     1       5.048   5.660  14.763  0.00  0.00    +0.000 HD
ATOM     36  H   UNL     1       4.876   7.279  15.343  0.00  0.00    +0.000 HD
ENDBRANCH  31  32
ENDBRANCH  28  31
ENDBRANCH  26  28
ENDBRANCH  21  24
ENDBRANCH  20  21
ENDBRANCH   1  20
TORSDOF 11
ENDMDL
MODEL 6
REMARK VINA RESULT:      -7.5      4.867     10.931
REMARK  Name = 
REMARK  15 active torsions:
REMARK  status: ('A' for Active; 'I' for Inactive)
REMARK    1  A    between atoms: C_1  and  C_2
REMARK    2  A    between atoms: C_2  and  C_3
REMARK    3  A    between atoms: C_2  and  C_4
REMARK    4  A    between atoms: C_4  and  C_5
REMARK    5  A    between atoms: C_8  and  C_9
REMARK    6  A    between atoms: C_12  and  S_13
REMARK    7  A    between atoms: S_13  and  C_16
REMARK    8  A    between atoms: C_16  and  C_17
REMARK    9  A    between atoms: C_17  and  C_18
REMARK   10  A    between atoms: C_17  and  C_19
REMARK   11  A    between atoms: C_17  and  C_20
REMARK   12  A    between atoms: N_22  and  C_23
REMARK   13  A    between atoms: C_23  and  C_24
REMARK   14  A    between atoms: C_23  and  C_26
REMARK   15  A    between atoms: C_26  and  C_27
REMARK                            x       y       z     vdW  Elec       q    Type
REMARK                         _______ _______ _______ _____ _____    ______ ____
ROOT
ATOM      1  S   UNL     1       2.970   6.675  18.598  0.00  0.00    +0.000 S 
ATOM      2  O   UNL     1       3.516   7.309  17.413  0.00  0.00    +0.000 OA
ATOM      3  O   UNL     1       3.844   6.261  19.679  0.00  0.00    +0.000 OA
ENDROOT
BRANCH   1   7
ATOM      4  C   UNL     1       0.248   9.748  20.528  0.00  0.00    +0.000 A 
ATOM      5  C   UNL     1       0.705   8.622  21.240  0.00  0.00    +0.000 A 
ATOM      6  C   UNL     1       1.536   7.687  20.652  0.00  0.00    +0.000 A 
ATOM      7  C   UNL     1       1.867   7.841  19.313  0.00  0.00    +0.000 A 
ATOM      8  C   UNL     1       1.420   8.930  18.564  0.00  0.00    +0.000 A 
ATOM      9  C   UNL     1       0.615   9.884  19.178  0.00  0.00    +0.000 A 
BRANCH   4  13
ATOM     10  C   UNL     1      -2.042  12.808  22.469  0.00  0.00    +0.000 A 
ATOM     11  C   UNL     1      -1.924  12.784  21.078  0.00  0.00    +0.000 A 
ATOM     12  C   UNL     1      -1.200  11.770  20.459  0.00  0.00    +0.000 A 
ATOM     13  C   UNL     1      -0.555  10.771  21.209  0.00  0.00    +0.000 A 
ATOM     14  C   UNL     1      -0.701  10.793  22.602  0.00  0.00    +0.000 A 
ATOM     15  C   UNL     1      -1.440  11.798  23.225  0.00  0.00    +0.000 A 
BRANCH  10  16
ATOM     16  C   UNL     1      -2.788  13.920  23.157  0.00  0.00    +0.000 C 
BRANCH  16  18
ATOM     17  C   UNL     1      -5.202  13.394  23.749  0.00  0.00    +0.000 C 
ATOM     18  C   UNL     1      -4.261  14.049  22.734  0.00  0.00    +0.000 C 
ATOM     19  C   UNL     1      -4.631  15.525  22.571  0.00  0.00    +0.000 C 
ENDBRANCH  16  18
ENDBRANCH  10  16
ENDBRANCH   4  13
ENDBRANCH   1   7
BRANCH   1  20
ATOM     20  C   UNL     1       1.910   5.286  18.101  0.00  0.00    +0.000 C 
BRANCH  20  21
ATOM     21  C   UNL     1       2.403   3.931  18.687  0.00  0.00    +0.000 C 
ATOM     22  C   UNL     1       2.482   4.085  20.221  0.00  0.00    +0.000 C 
ATOM     23  C   UNL     1       1.436   2.825  18.209  0.00  0.00    +0.000 C 
BRANCH  21  24
ATOM     24  C   UNL     1       3.829   3.547  18.198  0.00  0.00    +0.000 C 
ATOM     25  O   UNL     1       4.418   2.552  18.604  0.00  0.00    +0.000 OA
ATOM     26  N   UNL     1       4.353   4.387  17.224  0.00  0.00    +0.000 N 
ATOM     27  H   UNL     1       3.890   5.271  17.059  0.00  0.00    +0.000 HD
BRANCH  26  28
ATOM     28  C   UNL     1       5.662   4.207  16.540  0.00  0.00    +0.000 C 
BRANCH  28  29
ATOM     29  C   UNL     1       6.806   4.485  17.462  0.00  0.00    +0.000 C 
ATOM     30  N   UNL     1       7.649   4.723  18.216  0.00  0.00    +0.000 NA
ENDBRANCH  28  29
BRANCH  28  31
ATOM     31  C   UNL     1       5.726   5.179  15.341  0.00  0.00    +0.000 C 
BRANCH  31  32
ATOM     32  C   UNL     1       6.748   4.741  14.318  0.00  0.00    +0.000 C 
ATOM     33  N   UNL     1       6.483   3.572  13.668  0.00  0.00    +0.000 N 
ATOM     34  O   UNL     1       7.780   5.359  14.094  0.00  0.00    +0.000 OA
ATOM     35  H   UNL     1       5.767   2.913  13.940  0.00  0.00    +0.000 HD
ATOM     36  H   UNL     1       7.176   3.256  12.997  0.00  0.00    +0.000 HD
ENDBRANCH  31  32
ENDBRANCH  28  31
ENDBRANCH  26  28
ENDBRANCH  21  24
ENDBRANCH  20  21
ENDBRANCH   1  20
TORSDOF 11
ENDMDL
MODEL 7
REMARK VINA RESULT:      -7.4      1.466      2.241
REMARK  Name = 
REMARK  15 active torsions:
REMARK  status: ('A' for Active; 'I' for Inactive)
REMARK    1  A    between atoms: C_1  and  C_2
REMARK    2  A    between atoms: C_2  and  C_3
REMARK    3  A    between atoms: C_2  and  C_4
REMARK    4  A    between atoms: C_4  and  C_5
REMARK    5  A    between atoms: C_8  and  C_9
REMARK    6  A    between atoms: C_12  and  S_13
REMARK    7  A    between atoms: S_13  and  C_16
REMARK    8  A    between atoms: C_16  and  C_17
REMARK    9  A    between atoms: C_17  and  C_18
REMARK   10  A    between atoms: C_17  and  C_19
REMARK   11  A    between atoms: C_17  and  C_20
REMARK   12  A    between atoms: N_22  and  C_23
REMARK   13  A    between atoms: C_23  and  C_24
REMARK   14  A    between atoms: C_23  and  C_26
REMARK   15  A    between atoms: C_26  and  C_27
REMARK                            x       y       z     vdW  Elec       q    Type
REMARK                         _______ _______ _______ _____ _____    ______ ____
ROOT
ATOM      1  S   UNL     1      -0.555  11.241  21.665  0.00  0.00    +0.000 S 
ATOM      2  O   UNL     1      -1.108  10.477  22.768  0.00  0.00    +0.000 OA
ATOM      3  O   UNL     1       0.290  12.392  21.919  0.00  0.00    +0.000 OA
ENDROOT
BRANCH   1   7
ATOM      4  C   UNL     1       1.891   8.251  19.288  0.00  0.00    +0.000 A 
ATOM      5  C   UNL     1       1.626   8.059  20.658  0.00  0.00    +0.000 A 
ATOM      6  C   UNL     1       0.878   8.969  21.381  0.00  0.00    +0.000 A 
ATOM      7  C   UNL     1       0.442  10.124  20.747  0.00  0.00    +0.000 A 
ATOM      8  C   UNL     1       0.699  10.364  19.397  0.00  0.00    +0.000 A 
ATOM      9  C   UNL     1       1.420   9.423  18.670  0.00  0.00    +0.000 A 
BRANCH   4  13
ATOM     10  C   UNL     1       3.999   5.190  17.152  0.00  0.00    +0.000 A 
ATOM     11  C   UNL     1       2.941   4.863  18.002  0.00  0.00    +0.000 A 
ATOM     12  C   UNL     1       2.248   5.869  18.669  0.00  0.00    +0.000 A 
ATOM     13  C   UNL     1       2.606   7.220  18.526  0.00  0.00    +0.000 A 
ATOM     14  C   UNL     1       3.653   7.537  17.651  0.00  0.00    +0.000 A 
ATOM     15  C   UNL     1       4.339   6.534  16.968  0.00  0.00    +0.000 A 
BRANCH  10  16
ATOM     16  C   UNL     1       4.785   4.113  16.453  0.00  0.00    +0.000 C 
BRANCH  16  18
ATOM     17  C   UNL     1       7.296   4.499  16.444  0.00  0.00    +0.000 C 
ATOM     18  C   UNL     1       5.992   4.629  15.652  0.00  0.00    +0.000 C 
ATOM     19  C   UNL     1       6.113   3.859  14.336  0.00  0.00    +0.000 C 
ENDBRANCH  16  18
ENDBRANCH  10  16
ENDBRANCH   4  13
ENDBRANCH   1   7
BRANCH   1  20
ATOM     20  C   UNL     1      -1.894  11.703  20.527  0.00  0.00    +0.000 C 
BRANCH  20  21
ATOM     21  C   UNL     1      -2.675  12.958  21.015  0.00  0.00    +0.000 C 
ATOM     22  C   UNL     1      -2.844  12.839  22.545  0.00  0.00    +0.000 C 
ATOM     23  C   UNL     1      -1.896  14.212  20.558  0.00  0.00    +0.000 C 
BRANCH  21  24
ATOM     24  C   UNL     1      -4.104  13.050  20.409  0.00  0.00    +0.000 C 
ATOM     25  O   UNL     1      -4.914  13.901  20.758  0.00  0.00    +0.000 OA
ATOM     26  N   UNL     1      -4.367  12.130  19.401  0.00  0.00    +0.000 N 
ATOM     27  H   UNL     1      -3.723  11.359  19.282  0.00  0.00    +0.000 HD
BRANCH  26  28
ATOM     28  C   UNL     1      -5.626  12.048  18.612  0.00  0.00    +0.000 C 
BRANCH  28  29
ATOM     29  C   UNL     1      -6.293  10.720  18.780  0.00  0.00    +0.000 C 
ATOM     30  N   UNL     1      -6.810   9.704  18.972  0.00  0.00    +0.000 NA
ENDBRANCH  28  29
BRANCH  28  31
ATOM     31  C   UNL     1      -5.284  12.261  17.122  0.00  0.00    +0.000 C 
BRANCH  31  32
ATOM     32  C   UNL     1      -4.162  11.355  16.669  0.00  0.00    +0.000 C 
ATOM     33  N   UNL     1      -4.427  10.565  15.590  0.00  0.00    +0.000 N 
ATOM     34  O   UNL     1      -3.083  11.286  17.242  0.00  0.00    +0.000 OA
ATOM     35  H   UNL     1      -5.346  10.419  15.197  0.00  0.00    +0.000 HD
ATOM     36  H   UNL     1      -3.689   9.935  15.294  0.00  0.00    +0.000 HD
ENDBRANCH  31  32
ENDBRANCH  28  31
ENDBRANCH  26  28
ENDBRANCH  21  24
ENDBRANCH  20  21
ENDBRANCH   1  20
TORSDOF 11
ENDMDL
MODEL 8
REMARK VINA RESULT:      -7.3      4.728     10.609
REMARK  Name = 
REMARK  15 active torsions:
REMARK  status: ('A' for Active; 'I' for Inactive)
REMARK    1  A    between atoms: C_1  and  C_2
REMARK    2  A    between atoms: C_2  and  C_3
REMARK    3  A    between atoms: C_2  and  C_4
REMARK    4  A    between atoms: C_4  and  C_5
REMARK    5  A    between atoms: C_8  and  C_9
REMARK    6  A    between atoms: C_12  and  S_13
REMARK    7  A    between atoms: S_13  and  C_16
REMARK    8  A    between atoms: C_16  and  C_17
REMARK    9  A    between atoms: C_17  and  C_18
REMARK   10  A    between atoms: C_17  and  C_19
REMARK   11  A    between atoms: C_17  and  C_20
REMARK   12  A    between atoms: N_22  and  C_23
REMARK   13  A    between atoms: C_23  and  C_24
REMARK   14  A    between atoms: C_23  and  C_26
REMARK   15  A    between atoms: C_26  and  C_27
REMARK                            x       y       z     vdW  Elec       q    Type
REMARK                         _______ _______ _______ _____ _____    ______ ____
ROOT
ATOM      1  S   UNL     1       3.329   6.346  18.668  0.00  0.00    +0.000 S 
ATOM      2  O   UNL     1       4.170   6.870  17.608  0.00  0.00    +0.000 OA
ATOM      3  O   UNL     1       3.911   5.922  19.927  0.00  0.00    +0.000 OA
ENDROOT
BRANCH   1   7
ATOM      4  C   UNL     1       0.552   9.742  19.819  0.00  0.00    +0.000 A 
ATOM      5  C   UNL     1       0.939   8.762  20.754  0.00  0.00    +0.000 A 
ATOM      6  C   UNL     1       1.788   7.728  20.403  0.00  0.00    +0.000 A 
ATOM      7  C   UNL     1       2.206   7.631  19.083  0.00  0.00    +0.000 A 
ATOM      8  C   UNL     1       1.829   8.568  18.120  0.00  0.00    +0.000 A 
ATOM      9  C   UNL     1       1.006   9.625  18.495  0.00  0.00    +0.000 A 
BRANCH   4  13
ATOM     10  C   UNL     1      -1.838  13.108  20.978  0.00  0.00    +0.000 A 
ATOM     11  C   UNL     1      -2.114  12.412  19.800  0.00  0.00    +0.000 A 
ATOM     12  C   UNL     1      -1.348  11.305  19.449  0.00  0.00    +0.000 A 
ATOM     13  C   UNL     1      -0.273  10.879  20.247  0.00  0.00    +0.000 A 
ATOM     14  C   UNL     1      -0.020  11.571  21.439  0.00  0.00    +0.000 A 
ATOM     15  C   UNL     1      -0.796  12.670  21.803  0.00  0.00    +0.000 A 
BRANCH  10  16
ATOM     16  C   UNL     1      -2.632  14.330  21.353  0.00  0.00    +0.000 C 
BRANCH  16  18
ATOM     17  C   UNL     1      -4.003  12.707  22.744  0.00  0.00    +0.000 C 
ATOM     18  C   UNL     1      -3.518  14.152  22.597  0.00  0.00    +0.000 C 
ATOM     19  C   UNL     1      -2.747  14.565  23.851  0.00  0.00    +0.000 C 
ENDBRANCH  16  18
ENDBRANCH  10  16
ENDBRANCH   4  13
ENDBRANCH   1   7
BRANCH   1  20
ATOM     20  C   UNL     1       2.281   5.019  18.001  0.00  0.00    +0.000 C 
BRANCH  20  21
ATOM     21  C   UNL     1       2.861   3.606  18.298  0.00  0.00    +0.000 C 
ATOM     22  C   UNL     1       2.211   3.097  19.602  0.00  0.00    +0.000 C 
ATOM     23  C   UNL     1       2.595   2.713  17.065  0.00  0.00    +0.000 C 
BRANCH  21  24
ATOM     24  C   UNL     1       4.398   3.624  18.537  0.00  0.00    +0.000 C 
ATOM     25  O   UNL     1       4.918   3.104  19.518  0.00  0.00    +0.000 OA
ATOM     26  N   UNL     1       5.135   4.224  17.524  0.00  0.00    +0.000 N 
ATOM     27  H   UNL     1       4.638   4.774  16.836  0.00  0.00    +0.000 HD
BRANCH  26  28
ATOM     28  C   UNL     1       6.620   4.314  17.471  0.00  0.00    +0.000 C 
BRANCH  28  29
ATOM     29  C   UNL     1       7.162   5.112  18.614  0.00  0.00    +0.000 C 
ATOM     30  N   UNL     1       7.639   5.708  19.481  0.00  0.00    +0.000 NA
ENDBRANCH  28  29
BRANCH  28  31
ATOM     31  C   UNL     1       7.022   4.988  16.141  0.00  0.00    +0.000 C 
BRANCH  31  32
ATOM     32  C   UNL     1       5.832   5.186  15.232  0.00  0.00    +0.000 C 
ATOM     33  N   UNL     1       5.389   6.468  15.094  0.00  0.00    +0.000 N 
ATOM     34  O   UNL     1       5.256   4.264  14.670  0.00  0.00    +0.000 OA
ATOM     35  H   UNL     1       5.679   7.242  15.675  0.00  0.00    +0.000 HD
ATOM     36  H   UNL     1       4.575   6.609  14.505  0.00  0.00    +0.000 HD
ENDBRANCH  31  32
ENDBRANCH  28  31
ENDBRANCH  26  28
ENDBRANCH  21  24
ENDBRANCH  20  21
ENDBRANCH   1  20
TORSDOF 11
ENDMDL
MODEL 9
REMARK VINA RESULT:      -7.2      4.801     10.666
REMARK  Name = 
REMARK  15 active torsions:
REMARK  status: ('A' for Active; 'I' for Inactive)
REMARK    1  A    between atoms: C_1  and  C_2
REMARK    2  A    between atoms: C_2  and  C_3
REMARK    3  A    between atoms: C_2  and  C_4
REMARK    4  A    between atoms: C_4  and  C_5
REMARK    5  A    between atoms: C_8  and  C_9
REMARK    6  A    between atoms: C_12  and  S_13
REMARK    7  A    between atoms: S_13  and  C_16
REMARK    8  A    between atoms: C_16  and  C_17
REMARK    9  A    between atoms: C_17  and  C_18
REMARK   10  A    between atoms: C_17  and  C_19
REMARK   11  A    between atoms: C_17  and  C_20
REMARK   12  A    between atoms: N_22  and  C_23
REMARK   13  A    between atoms: C_23  and  C_24
REMARK   14  A    between atoms: C_23  and  C_26
REMARK   15  A    between atoms: C_26  and  C_27
REMARK                            x       y       z     vdW  Elec       q    Type
REMARK                         _______ _______ _______ _____ _____    ______ ____
ROOT
ATOM      1  S   UNL     1       3.006   6.505  18.673  0.00  0.00    +0.000 S 
ATOM      2  O   UNL     1       3.475   7.086  17.429  0.00  0.00    +0.000 OA
ATOM      3  O   UNL     1       3.951   6.017  19.660  0.00  0.00    +0.000 OA
ENDROOT
BRANCH   1   7
ATOM      4  C   UNL     1       0.510   9.712  20.689  0.00  0.00    +0.000 A 
ATOM      5  C   UNL     1       0.962   9.859  19.363  0.00  0.00    +0.000 A 
ATOM      6  C   UNL     1       1.720   8.879  18.749  0.00  0.00    +0.000 A 
ATOM      7  C   UNL     1       2.091   7.765  19.488  0.00  0.00    +0.000 A 
ATOM      8  C   UNL     1       1.683   7.589  20.810  0.00  0.00    +0.000 A 
ATOM      9  C   UNL     1       0.889   8.563  21.405  0.00  0.00    +0.000 A 
BRANCH   4  13
ATOM     10  C   UNL     1      -2.138  12.596  22.434  0.00  0.00    +0.000 A 
ATOM     11  C   UNL     1      -1.752  11.461  23.150  0.00  0.00    +0.000 A 
ATOM     12  C   UNL     1      -0.872  10.546  22.582  0.00  0.00    +0.000 A 
ATOM     13  C   UNL     1      -0.373  10.725  21.280  0.00  0.00    +0.000 A 
ATOM     14  C   UNL     1      -0.748  11.880  20.581  0.00  0.00    +0.000 A 
ATOM     15  C   UNL     1      -1.617  12.808  21.153  0.00  0.00    +0.000 A 
BRANCH  10  16
ATOM     16  C   UNL     1      -3.120  13.576  23.018  0.00  0.00    +0.000 C 
BRANCH  16  18
ATOM     17  C   UNL     1      -4.072  14.926  21.087  0.00  0.00    +0.000 C 
ATOM     18  C   UNL     1      -4.350  13.842  22.132  0.00  0.00    +0.000 C 
ATOM     19  C   UNL     1      -4.777  12.551  21.431  0.00  0.00    +0.000 C 
ENDBRANCH  16  18
ENDBRANCH  10  16
ENDBRANCH   4  13
ENDBRANCH   1   7
BRANCH   1  20
ATOM     20  C   UNL     1       1.781   5.213  18.308  0.00  0.00    +0.000 C 
BRANCH  20  21
ATOM     21  C   UNL     1       2.230   3.814  18.821  0.00  0.00    +0.000 C 
ATOM     22  C   UNL     1       2.419   3.915  20.350  0.00  0.00    +0.000 C 
ATOM     23  C   UNL     1       1.169   2.782  18.380  0.00  0.00    +0.000 C 
BRANCH  21  24
ATOM     24  C   UNL     1       3.595   3.364  18.227  0.00  0.00    +0.000 C 
ATOM     25  O   UNL     1       4.085   2.266  18.462  0.00  0.00    +0.000 OA
ATOM     26  N   UNL     1       4.182   4.282  17.364  0.00  0.00    +0.000 N 
ATOM     27  H   UNL     1       3.811   5.223  17.347  0.00  0.00    +0.000 HD
BRANCH  26  28
ATOM     28  C   UNL     1       5.448   4.074  16.611  0.00  0.00    +0.000 C 
BRANCH  28  29
ATOM     29  C   UNL     1       6.645   4.375  17.455  0.00  0.00    +0.000 C 
ATOM     30  N   UNL     1       7.546   4.571  18.151  0.00  0.00    +0.000 NA
ENDBRANCH  28  29
BRANCH  28  31
ATOM     31  C   UNL     1       5.444   5.006  15.380  0.00  0.00    +0.000 C 
BRANCH  31  32
ATOM     32  C   UNL     1       6.481   4.593  14.361  0.00  0.00    +0.000 C 
ATOM     33  N   UNL     1       7.567   5.409  14.245  0.00  0.00    +0.000 N 
ATOM     34  O   UNL     1       6.360   3.610  13.642  0.00  0.00    +0.000 OA
ATOM     35  H   UNL     1       7.638   6.331  14.651  0.00  0.00    +0.000 HD
ATOM     36  H   UNL     1       8.257   5.154  13.546  0.00  0.00    +0.000 HD
ENDBRANCH  31  32
ENDBRANCH  28  31
ENDBRANCH  26  28
ENDBRANCH  21  24
ENDBRANCH  20  21
ENDBRANCH   1  20
TORSDOF 11
ENDMDL
