MODEL 1
REMARK VINA RESULT:      -8.0      0.000      0.000
REMARK  Name = 
REMARK  5 active torsions:
REMARK  status: ('A' for Active; 'I' for Inactive)
REMARK    1  A    between atoms: C_1  and  C_2
REMARK    2  A    between atoms: C_7  and  N_8
REMARK    3  A    between atoms: N_8  and  C_9
REMARK    4  A    between atoms: N_18  and  C_19
REMARK    5  A    between atoms: C_24  and  C_25
REMARK                            x       y       z     vdW  Elec       q    Type
REMARK                         _______ _______ _______ _____ _____    ______ ____
ROOT
ATOM      1  C   UNL     1       3.339   6.013  19.259  0.00  0.00    +0.000 C 
ATOM      2  C   UNL     1       3.193   4.604  19.807  0.00  0.00    +0.000 A 
ATOM      3  C   UNL     1       4.146   3.680  20.229  0.00  0.00    +0.000 A 
ATOM      4  C   UNL     1       3.762   2.335  20.346  0.00  0.00    +0.000 A 
ATOM      5  C   UNL     1       2.444   1.934  20.083  0.00  0.00    +0.000 A 
ATOM      6  C   UNL     1       1.550   2.827  19.502  0.00  0.00    +0.000 A 
ATOM      7  C   UNL     1       2.019   4.105  19.263  0.00  0.00    +0.000 A 
ATOM      8  C   UNL     1       1.913   4.844  17.954  0.00  0.00    +0.000 C 
ATOM      9  O   UNL     1       1.116   4.530  17.083  0.00  0.00    +0.000 OA
ATOM     10  N   UNL     1       3.047   5.717  17.874  0.00  0.00    +0.000 N 
ENDROOT
BRANCH  10  11
ATOM     11  C   UNL     1       4.222   5.239  17.055  0.00  0.00    +0.000 A 
ATOM     12  C   UNL     1       4.231   3.884  16.623  0.00  0.00    +0.000 A 
ATOM     13  C   UNL     1       5.312   3.317  15.919  0.00  0.00    +0.000 A 
ATOM     14  C   UNL     1       6.405   4.086  15.578  0.00  0.00    +0.000 A 
ATOM     15  C   UNL     1       6.435   5.410  15.994  0.00  0.00    +0.000 A 
ATOM     16  C   UNL     1       5.386   5.998  16.744  0.00  0.00    +0.000 A 
ATOM     17  C   UNL     1       5.702   7.392  17.209  0.00  0.00    +0.000 C 
ENDBRANCH  10  11
BRANCH   1  18
ATOM     18  N   UNL     1       2.319   6.887  19.941  0.00  0.00    +0.000 N 
ATOM     19  H   UNL     1       1.525   6.299  20.182  0.00  0.00    +0.000 HD
BRANCH  18  26
ATOM     20  C   UNL     1       0.421   8.512  21.770  0.00  0.00    +0.000 C 
ATOM     21  C   UNL     1       1.025   8.978  20.485  0.00  0.00    +0.000 A 
ATOM     22  C   UNL     1       0.540  10.230  20.014  0.00  0.00    +0.000 A 
ATOM     23  C   UNL     1       0.790  10.692  18.733  0.00  0.00    +0.000 A 
ATOM     24  C   UNL     1       1.544   9.895  17.884  0.00  0.00    +0.000 A 
ATOM     25  C   UNL     1       2.062   8.672  18.353  0.00  0.00    +0.000 A 
ATOM     26  C   UNL     1       1.833   8.167  19.652  0.00  0.00    +0.000 A 
ENDBRANCH  18  26
ENDBRANCH   1  18
TORSDOF 3
ENDMDL
MODEL 2
REMARK VINA RESULT:      -7.9      1.976      6.059
REMARK  Name = 
REMARK  5 active torsions:
REMARK  status: ('A' for Active; 'I' for Inactive)
REMARK    1  A    between atoms: C_1  and  C_2
REMARK    2  A    between atoms: C_7  and  N_8
REMARK    3  A    between atoms: N_8  and  C_9
REMARK    4  A    between atoms: N_18  and  C_19
REMARK    5  A    between atoms: C_24  and  C_25
REMARK                            x       y       z     vdW  Elec       q    Type
REMARK                         _______ _______ _______ _____ _____    ______ ____
ROOT
ATOM      1  C   UNL     1       3.977   4.457  16.661  0.00  0.00    +0.000 C 
ATOM      2  C   UNL     1       3.104   3.462  17.406  0.00  0.00    +0.000 A 
ATOM      3  C   UNL     1       1.719   3.354  17.511  0.00  0.00    +0.000 A 
ATOM      4  C   UNL     1       1.190   2.567  18.546  0.00  0.00    +0.000 A 
ATOM      5  C   UNL     1       2.031   1.875  19.429  0.00  0.00    +0.000 A 
ATOM      6  C   UNL     1       3.400   2.123  19.422  0.00  0.00    +0.000 A 
ATOM      7  C   UNL     1       3.862   3.024  18.482  0.00  0.00    +0.000 A 
ATOM      8  C   UNL     1       4.756   4.202  18.766  0.00  0.00    +0.000 C 
ATOM      9  O   UNL     1       5.431   4.287  19.781  0.00  0.00    +0.000 OA
ATOM     10  N   UNL     1       4.431   5.215  17.806  0.00  0.00    +0.000 N 
ENDROOT
BRANCH  10  11
ATOM     11  C   UNL     1       3.502   6.316  18.261  0.00  0.00    +0.000 A 
ATOM     12  C   UNL     1       3.415   7.491  17.466  0.00  0.00    +0.000 A 
ATOM     13  C   UNL     1       2.638   8.606  17.838  0.00  0.00    +0.000 A 
ATOM     14  C   UNL     1       1.883   8.578  18.991  0.00  0.00    +0.000 A 
ATOM     15  C   UNL     1       1.953   7.451  19.798  0.00  0.00    +0.000 A 
ATOM     16  C   UNL     1       2.761   6.332  19.477  0.00  0.00    +0.000 A 
ATOM     17  C   UNL     1       2.794   5.296  20.566  0.00  0.00    +0.000 C 
ENDBRANCH  10  11
BRANCH   1  18
ATOM     18  N   UNL     1       5.060   3.689  15.949  0.00  0.00    +0.000 N 
ATOM     19  H   UNL     1       5.616   3.218  16.658  0.00  0.00    +0.000 HD
BRANCH  18  26
ATOM     20  C   UNL     1       7.292   5.830  16.080  0.00  0.00    +0.000 C 
ATOM     21  C   UNL     1       6.988   4.939  14.920  0.00  0.00    +0.000 A 
ATOM     22  C   UNL     1       7.713   5.235  13.732  0.00  0.00    +0.000 A 
ATOM     23  C   UNL     1       7.382   4.690  12.502  0.00  0.00    +0.000 A 
ATOM     24  C   UNL     1       6.301   3.823  12.440  0.00  0.00    +0.000 A 
ATOM     25  C   UNL     1       5.602   3.492  13.616  0.00  0.00    +0.000 A 
ATOM     26  C   UNL     1       5.910   4.024  14.889  0.00  0.00    +0.000 A 
ENDBRANCH  18  26
ENDBRANCH   1  18
TORSDOF 3
ENDMDL
MODEL 3
REMARK VINA RESULT:      -7.7      2.819      7.043
REMARK  Name = 
REMARK  5 active torsions:
REMARK  status: ('A' for Active; 'I' for Inactive)
REMARK    1  A    between atoms: C_1  and  C_2
REMARK    2  A    between atoms: C_7  and  N_8
REMARK    3  A    between atoms: N_8  and  C_9
REMARK    4  A    between atoms: N_18  and  C_19
REMARK    5  A    between atoms: C_24  and  C_25
REMARK                            x       y       z     vdW  Elec       q    Type
REMARK                         _______ _______ _______ _____ _____    ______ ____
ROOT
ATOM      1  C   UNL     1       5.063   4.588  16.184  0.00  0.00    +0.000 C 
ATOM      2  C   UNL     1       6.247   5.161  16.945  0.00  0.00    +0.000 A 
ATOM      3  C   UNL     1       7.052   4.611  17.940  0.00  0.00    +0.000 A 
ATOM      4  C   UNL     1       7.836   5.478  18.715  0.00  0.00    +0.000 A 
ATOM      5  C   UNL     1       7.841   6.860  18.473  0.00  0.00    +0.000 A 
ATOM      6  C   UNL     1       6.912   7.414  17.599  0.00  0.00    +0.000 A 
ATOM      7  C   UNL     1       6.054   6.534  16.967  0.00  0.00    +0.000 A 
ATOM      8  C   UNL     1       4.554   6.665  16.911  0.00  0.00    +0.000 C 
ATOM      9  O   UNL     1       3.977   7.721  17.121  0.00  0.00    +0.000 OA
ATOM     10  N   UNL     1       4.021   5.337  16.850  0.00  0.00    +0.000 N 
ENDROOT
BRANCH  10  11
ATOM     11  C   UNL     1       3.523   4.739  18.145  0.00  0.00    +0.000 A 
ATOM     12  C   UNL     1       3.302   5.613  19.245  0.00  0.00    +0.000 A 
ATOM     13  C   UNL     1       2.911   5.151  20.517  0.00  0.00    +0.000 A 
ATOM     14  C   UNL     1       2.682   3.808  20.733  0.00  0.00    +0.000 A 
ATOM     15  C   UNL     1       2.900   2.925  19.685  0.00  0.00    +0.000 A 
ATOM     16  C   UNL     1       3.338   3.351  18.406  0.00  0.00    +0.000 A 
ATOM     17  C   UNL     1       3.649   2.211  17.478  0.00  0.00    +0.000 C 
ENDBRANCH  10  11
BRANCH   1  18
ATOM     18  N   UNL     1       5.240   4.921  14.726  0.00  0.00    +0.000 N 
ATOM     19  H   UNL     1       4.390   5.385  14.414  0.00  0.00    +0.000 HD
BRANCH  18  26
ATOM     20  C   UNL     1       7.996   5.404  13.401  0.00  0.00    +0.000 C 
ATOM     21  C   UNL     1       7.027   4.321  13.056  0.00  0.00    +0.000 A 
ATOM     22  C   UNL     1       7.369   3.555  11.907  0.00  0.00    +0.000 A 
ATOM     23  C   UNL     1       6.477   2.690  11.294  0.00  0.00    +0.000 A 
ATOM     24  C   UNL     1       5.203   2.576  11.832  0.00  0.00    +0.000 A 
ATOM     25  C   UNL     1       4.866   3.299  12.992  0.00  0.00    +0.000 A 
ATOM     26  C   UNL     1       5.748   4.187  13.648  0.00  0.00    +0.000 A 
ENDBRANCH  18  26
ENDBRANCH   1  18
TORSDOF 3
ENDMDL
MODEL 4
REMARK VINA RESULT:      -7.7      2.422      6.888
REMARK  Name = 
REMARK  5 active torsions:
REMARK  status: ('A' for Active; 'I' for Inactive)
REMARK    1  A    between atoms: C_1  and  C_2
REMARK    2  A    between atoms: C_7  and  N_8
REMARK    3  A    between atoms: N_8  and  C_9
REMARK    4  A    between atoms: N_18  and  C_19
REMARK    5  A    between atoms: C_24  and  C_25
REMARK                            x       y       z     vdW  Elec       q    Type
REMARK                         _______ _______ _______ _____ _____    ______ ____
ROOT
ATOM      1  C   UNL     1       5.011   4.513  16.297  0.00  0.00    +0.000 C 
ATOM      2  C   UNL     1       6.229   5.123  16.970  0.00  0.00    +0.000 A 
ATOM      3  C   UNL     1       7.121   4.597  17.902  0.00  0.00    +0.000 A 
ATOM      4  C   UNL     1       7.933   5.489  18.620  0.00  0.00    +0.000 A 
ATOM      5  C   UNL     1       7.878   6.870  18.381  0.00  0.00    +0.000 A 
ATOM      6  C   UNL     1       6.871   7.395  17.578  0.00  0.00    +0.000 A 
ATOM      7  C   UNL     1       5.996   6.489  17.009  0.00  0.00    +0.000 A 
ATOM      8  C   UNL     1       4.493   6.573  17.063  0.00  0.00    +0.000 C 
ATOM      9  O   UNL     1       3.901   7.612  17.317  0.00  0.00    +0.000 OA
ATOM     10  N   UNL     1       3.998   5.229  17.038  0.00  0.00    +0.000 N 
ENDROOT
BRANCH  10  11
ATOM     11  C   UNL     1       3.615   4.617  18.365  0.00  0.00    +0.000 A 
ATOM     12  C   UNL     1       3.871   3.233  18.563  0.00  0.00    +0.000 A 
ATOM     13  C   UNL     1       3.487   2.547  19.732  0.00  0.00    +0.000 A 
ATOM     14  C   UNL     1       2.872   3.220  20.767  0.00  0.00    +0.000 A 
ATOM     15  C   UNL     1       2.594   4.569  20.603  0.00  0.00    +0.000 A 
ATOM     16  C   UNL     1       2.926   5.279  19.421  0.00  0.00    +0.000 A 
ATOM     17  C   UNL     1       2.398   6.686  19.409  0.00  0.00    +0.000 C 
ENDBRANCH  10  11
BRANCH   1  18
ATOM     18  N   UNL     1       5.070   4.851  14.830  0.00  0.00    +0.000 N 
ATOM     19  H   UNL     1       4.146   5.173  14.554  0.00  0.00    +0.000 HD
BRANCH  18  26
ATOM     20  C   UNL     1       7.891   5.426  13.690  0.00  0.00    +0.000 C 
ATOM     21  C   UNL     1       6.947   4.367  13.222  0.00  0.00    +0.000 A 
ATOM     22  C   UNL     1       7.354   3.679  12.044  0.00  0.00    +0.000 A 
ATOM     23  C   UNL     1       6.500   2.857  11.329  0.00  0.00    +0.000 A 
ATOM     24  C   UNL     1       5.199   2.704  11.788  0.00  0.00    +0.000 A 
ATOM     25  C   UNL     1       4.798   3.348  12.974  0.00  0.00    +0.000 A 
ATOM     26  C   UNL     1       5.639   4.192  13.734  0.00  0.00    +0.000 A 
ENDBRANCH  18  26
ENDBRANCH   1  18
TORSDOF 3
ENDMDL
MODEL 5
REMARK VINA RESULT:      -7.6      2.023      5.974
REMARK  Name = 
REMARK  5 active torsions:
REMARK  status: ('A' for Active; 'I' for Inactive)
REMARK    1  A    between atoms: C_1  and  C_2
REMARK    2  A    between atoms: C_7  and  N_8
REMARK    3  A    between atoms: N_8  and  C_9
REMARK    4  A    between atoms: N_18  and  C_19
REMARK    5  A    between atoms: C_24  and  C_25
REMARK                            x       y       z     vdW  Elec       q    Type
REMARK                         _______ _______ _______ _____ _____    ______ ____
ROOT
ATOM      1  C   UNL     1       4.100   4.336  16.822  0.00  0.00    +0.000 C 
ATOM      2  C   UNL     1       3.184   3.318  17.478  0.00  0.00    +0.000 A 
ATOM      3  C   UNL     1       1.794   3.252  17.560  0.00  0.00    +0.000 A 
ATOM      4  C   UNL     1       1.225   2.407  18.526  0.00  0.00    +0.000 A 
ATOM      5  C   UNL     1       2.029   1.620  19.362  0.00  0.00    +0.000 A 
ATOM      6  C   UNL     1       3.406   1.820  19.390  0.00  0.00    +0.000 A 
ATOM      7  C   UNL     1       3.911   2.773  18.526  0.00  0.00    +0.000 A 
ATOM      8  C   UNL     1       4.841   3.894  18.909  0.00  0.00    +0.000 C 
ATOM      9  O   UNL     1       5.505   3.877  19.935  0.00  0.00    +0.000 OA
ATOM     10  N   UNL     1       4.564   4.988  18.027  0.00  0.00    +0.000 N 
ENDROOT
BRANCH  10  11
ATOM     11  C   UNL     1       3.667   6.083  18.554  0.00  0.00    +0.000 A 
ATOM     12  C   UNL     1       2.972   5.850  19.772  0.00  0.00    +0.000 A 
ATOM     13  C   UNL     1       2.055   6.773  20.313  0.00  0.00    +0.000 A 
ATOM     14  C   UNL     1       1.827   7.981  19.687  0.00  0.00    +0.000 A 
ATOM     15  C   UNL     1       2.479   8.236  18.489  0.00  0.00    +0.000 A 
ATOM     16  C   UNL     1       3.372   7.310  17.895  0.00  0.00    +0.000 A 
ATOM     17  C   UNL     1       3.843   7.735  16.532  0.00  0.00    +0.000 C 
ENDBRANCH  10  11
BRANCH   1  18
ATOM     18  N   UNL     1       5.165   3.587  16.065  0.00  0.00    +0.000 N 
ATOM     19  H   UNL     1       5.754   3.119  16.750  0.00  0.00    +0.000 HD
BRANCH  18  26
ATOM     20  C   UNL     1       7.304   5.825  16.099  0.00  0.00    +0.000 C 
ATOM     21  C   UNL     1       7.009   4.901  14.963  0.00  0.00    +0.000 A 
ATOM     22  C   UNL     1       7.687   5.207  13.750  0.00  0.00    +0.000 A 
ATOM     23  C   UNL     1       7.348   4.626  12.539  0.00  0.00    +0.000 A 
ATOM     24  C   UNL     1       6.305   3.712  12.521  0.00  0.00    +0.000 A 
ATOM     25  C   UNL     1       5.653   3.372  13.722  0.00  0.00    +0.000 A 
ATOM     26  C   UNL     1       5.971   3.939  14.977  0.00  0.00    +0.000 A 
ENDBRANCH  18  26
ENDBRANCH   1  18
TORSDOF 3
ENDMDL
MODEL 6
REMARK VINA RESULT:      -7.5      2.750      7.028
REMARK  Name = 
REMARK  5 active torsions:
REMARK  status: ('A' for Active; 'I' for Inactive)
REMARK    1  A    between atoms: C_1  and  C_2
REMARK    2  A    between atoms: C_7  and  N_8
REMARK    3  A    between atoms: N_8  and  C_9
REMARK    4  A    between atoms: N_18  and  C_19
REMARK    5  A    between atoms: C_24  and  C_25
REMARK                            x       y       z     vdW  Elec       q    Type
REMARK                         _______ _______ _______ _____ _____    ______ ____
ROOT
ATOM      1  C   UNL     1       5.953   4.030  16.418  0.00  0.00    +0.000 C 
ATOM      2  C   UNL     1       6.852   4.897  17.283  0.00  0.00    +0.000 A 
ATOM      3  C   UNL     1       7.151   4.839  18.642  0.00  0.00    +0.000 A 
ATOM      4  C   UNL     1       7.722   5.970  19.246  0.00  0.00    +0.000 A 
ATOM      5  C   UNL     1       8.020   7.117  18.496  0.00  0.00    +0.000 A 
ATOM      6  C   UNL     1       7.565   7.227  17.186  0.00  0.00    +0.000 A 
ATOM      7  C   UNL     1       6.872   6.144  16.678  0.00  0.00    +0.000 A 
ATOM      8  C   UNL     1       5.532   6.208  15.992  0.00  0.00    +0.000 C 
ATOM      9  O   UNL     1       5.083   7.241  15.519  0.00  0.00    +0.000 OA
ATOM     10  N   UNL     1       4.864   4.970  16.264  0.00  0.00    +0.000 N 
ENDROOT
BRANCH  10  11
ATOM     11  C   UNL     1       3.849   4.970  17.381  0.00  0.00    +0.000 A 
ATOM     12  C   UNL     1       3.599   6.195  18.059  0.00  0.00    +0.000 A 
ATOM     13  C   UNL     1       2.728   6.290  19.163  0.00  0.00    +0.000 A 
ATOM     14  C   UNL     1       2.039   5.181  19.607  0.00  0.00    +0.000 A 
ATOM     15  C   UNL     1       2.268   3.966  18.977  0.00  0.00    +0.000 A 
ATOM     16  C   UNL     1       3.172   3.827  17.894  0.00  0.00    +0.000 A 
ATOM     17  C   UNL     1       3.370   2.399  17.470  0.00  0.00    +0.000 C 
ENDBRANCH  10  11
BRANCH   1  18
ATOM     18  N   UNL     1       6.693   3.714  15.145  0.00  0.00    +0.000 N 
ATOM     19  H   UNL     1       7.615   4.138  15.214  0.00  0.00    +0.000 HD
BRANCH  18  26
ATOM     20  C   UNL     1       8.159   5.289  12.919  0.00  0.00    +0.000 C 
ATOM     21  C   UNL     1       6.983   4.387  12.736  0.00  0.00    +0.000 A 
ATOM     22  C   UNL     1       6.419   4.395  11.429  0.00  0.00    +0.000 A 
ATOM     23  C   UNL     1       5.188   3.827  11.144  0.00  0.00    +0.000 A 
ATOM     24  C   UNL     1       4.488   3.228  12.182  0.00  0.00    +0.000 A 
ATOM     25  C   UNL     1       5.055   3.179  13.470  0.00  0.00    +0.000 A 
ATOM     26  C   UNL     1       6.307   3.743  13.800  0.00  0.00    +0.000 A 
ENDBRANCH  18  26
ENDBRANCH   1  18
TORSDOF 3
ENDMDL
MODEL 7
REMARK VINA RESULT:      -7.4      1.700      4.029
REMARK  Name = 
REMARK  5 active torsions:
REMARK  status: ('A' for Active; 'I' for Inactive)
REMARK    1  A    between atoms: C_1  and  C_2
REMARK    2  A    between atoms: C_7  and  N_8
REMARK    3  A    between atoms: N_8  and  C_9
REMARK    4  A    between atoms: N_18  and  C_19
REMARK    5  A    between atoms: C_24  and  C_25
REMARK                            x       y       z     vdW  Elec       q    Type
REMARK                         _______ _______ _______ _____ _____    ______ ____
ROOT
ATOM      1  C   UNL     1       3.504   6.090  17.713  0.00  0.00    +0.000 C 
ATOM      2  C   UNL     1       4.646   5.800  16.755  0.00  0.00    +0.000 A 
ATOM      3  C   UNL     1       4.727   4.951  15.653  0.00  0.00    +0.000 A 
ATOM      4  C   UNL     1       5.999   4.607  15.171  0.00  0.00    +0.000 A 
ATOM      5  C   UNL     1       7.160   5.133  15.756  0.00  0.00    +0.000 A 
ATOM      6  C   UNL     1       7.076   5.838  16.952  0.00  0.00    +0.000 A 
ATOM      7  C   UNL     1       5.810   6.024  17.474  0.00  0.00    +0.000 A 
ATOM      8  C   UNL     1       5.396   5.720  18.890  0.00  0.00    +0.000 C 
ATOM      9  O   UNL     1       6.201   5.601  19.801  0.00  0.00    +0.000 OA
ATOM     10  N   UNL     1       4.010   5.356  18.851  0.00  0.00    +0.000 N 
ENDROOT
BRANCH  10  11
ATOM     11  C   UNL     1       3.691   3.880  18.861  0.00  0.00    +0.000 A 
ATOM     12  C   UNL     1       4.685   2.982  19.336  0.00  0.00    +0.000 A 
ATOM     13  C   UNL     1       4.518   1.583  19.319  0.00  0.00    +0.000 A 
ATOM     14  C   UNL     1       3.340   1.025  18.870  0.00  0.00    +0.000 A 
ATOM     15  C   UNL     1       2.352   1.871  18.386  0.00  0.00    +0.000 A 
ATOM     16  C   UNL     1       2.506   3.280  18.347  0.00  0.00    +0.000 A 
ATOM     17  C   UNL     1       1.373   3.978  17.649  0.00  0.00    +0.000 C 
ENDBRANCH  10  11
BRANCH   1  18
ATOM     18  N   UNL     1       3.429   7.581  17.913  0.00  0.00    +0.000 N 
ATOM     19  H   UNL     1       4.345   7.894  18.224  0.00  0.00    +0.000 HD
BRANCH  18  26
ATOM     20  C   UNL     1       1.933   6.925  20.543  0.00  0.00    +0.000 C 
ATOM     21  C   UNL     1       1.812   8.184  19.747  0.00  0.00    +0.000 A 
ATOM     22  C   UNL     1       0.794   9.076  20.187  0.00  0.00    +0.000 A 
ATOM     23  C   UNL     1       0.371  10.155  19.430  0.00  0.00    +0.000 A 
ATOM     24  C   UNL     1       0.971  10.366  18.197  0.00  0.00    +0.000 A 
ATOM     25  C   UNL     1       2.006   9.513  17.769  0.00  0.00    +0.000 A 
ATOM     26  C   UNL     1       2.469   8.404  18.513  0.00  0.00    +0.000 A 
ENDBRANCH  18  26
ENDBRANCH   1  18
TORSDOF 3
ENDMDL
MODEL 8
REMARK VINA RESULT:      -7.4      0.541      1.476
REMARK  Name = 
REMARK  5 active torsions:
REMARK  status: ('A' for Active; 'I' for Inactive)
REMARK    1  A    between atoms: C_1  and  C_2
REMARK    2  A    between atoms: C_7  and  N_8
REMARK    3  A    between atoms: N_8  and  C_9
REMARK    4  A    between atoms: N_18  and  C_19
REMARK    5  A    between atoms: C_24  and  C_25
REMARK                            x       y       z     vdW  Elec       q    Type
REMARK                         _______ _______ _______ _____ _____    ______ ____
ROOT
ATOM      1  C   UNL     1       3.009   6.172  19.513  0.00  0.00    +0.000 C 
ATOM      2  C   UNL     1       2.777   4.783  20.083  0.00  0.00    +0.000 A 
ATOM      3  C   UNL     1       3.664   3.848  20.611  0.00  0.00    +0.000 A 
ATOM      4  C   UNL     1       3.234   2.517  20.730  0.00  0.00    +0.000 A 
ATOM      5  C   UNL     1       1.934   2.143  20.362  0.00  0.00    +0.000 A 
ATOM      6  C   UNL     1       1.119   3.041  19.681  0.00  0.00    +0.000 A 
ATOM      7  C   UNL     1       1.642   4.300  19.450  0.00  0.00    +0.000 A 
ATOM      8  C   UNL     1       1.672   5.003  18.118  0.00  0.00    +0.000 C 
ATOM      9  O   UNL     1       0.946   4.684  17.189  0.00  0.00    +0.000 OA
ATOM     10  N   UNL     1       2.832   5.844  18.116  0.00  0.00    +0.000 N 
ENDROOT
BRANCH  10  11
ATOM     11  C   UNL     1       4.060   5.313  17.416  0.00  0.00    +0.000 A 
ATOM     12  C   UNL     1       5.117   6.221  17.136  0.00  0.00    +0.000 A 
ATOM     13  C   UNL     1       6.274   5.847  16.423  0.00  0.00    +0.000 A 
ATOM     14  C   UNL     1       6.443   4.546  15.999  0.00  0.00    +0.000 A 
ATOM     15  C   UNL     1       5.425   3.635  16.244  0.00  0.00    +0.000 A 
ATOM     16  C   UNL     1       4.230   3.989  16.918  0.00  0.00    +0.000 A 
ATOM     17  C   UNL     1       3.213   2.883  16.938  0.00  0.00    +0.000 C 
ENDBRANCH  10  11
BRANCH   1  18
ATOM     18  N   UNL     1       1.959   7.091  20.079  0.00  0.00    +0.000 N 
ATOM     19  H   UNL     1       1.103   6.552  20.179  0.00  0.00    +0.000 HD
BRANCH  18  26
ATOM     20  C   UNL     1       0.111   8.863  21.820  0.00  0.00    +0.000 C 
ATOM     21  C   UNL     1       0.822   9.283  20.575  0.00  0.00    +0.000 A 
ATOM     22  C   UNL     1       0.473  10.575  20.093  0.00  0.00    +0.000 A 
ATOM     23  C   UNL     1       0.832  11.022  18.832  0.00  0.00    +0.000 A 
ATOM     24  C   UNL     1       1.560  10.167  18.016  0.00  0.00    +0.000 A 
ATOM     25  C   UNL     1       1.944   8.902  18.498  0.00  0.00    +0.000 A 
ATOM     26  C   UNL     1       1.601   8.411  19.778  0.00  0.00    +0.000 A 
ENDBRANCH  18  26
ENDBRANCH   1  18
TORSDOF 3
ENDMDL
MODEL 9
REMARK VINA RESULT:      -7.3      0.615      1.462
REMARK  Name = 
REMARK  5 active torsions:
REMARK  status: ('A' for Active; 'I' for Inactive)
REMARK    1  A    between atoms: C_1  and  C_2
REMARK    2  A    between atoms: C_7  and  N_8
REMARK    3  A    between atoms: N_8  and  C_9
REMARK    4  A    between atoms: N_18  and  C_19
REMARK    5  A    between atoms: C_24  and  C_25
REMARK                            x       y       z     vdW  Elec       q    Type
REMARK                         _______ _______ _______ _____ _____    ______ ____
ROOT
ATOM      1  C   UNL     1       3.250   5.846  19.357  0.00  0.00    +0.000 C 
ATOM      2  C   UNL     1       3.295   4.387  19.775  0.00  0.00    +0.000 A 
ATOM      3  C   UNL     1       4.366   3.559  20.103  0.00  0.00    +0.000 A 
ATOM      4  C   UNL     1       4.158   2.170  20.100  0.00  0.00    +0.000 A 
ATOM      5  C   UNL     1       2.897   1.629  19.812  0.00  0.00    +0.000 A 
ATOM      6  C   UNL     1       1.885   2.449  19.322  0.00  0.00    +0.000 A 
ATOM      7  C   UNL     1       2.183   3.793  19.197  0.00  0.00    +0.000 A 
ATOM      8  C   UNL     1       1.959   4.626  17.962  0.00  0.00    +0.000 C 
ATOM      9  O   UNL     1       1.191   4.291  17.073  0.00  0.00    +0.000 OA
ATOM     10  N   UNL     1       2.971   5.640  17.953  0.00  0.00    +0.000 N 
ENDROOT
BRANCH  10  11
ATOM     11  C   UNL     1       4.181   5.392  17.084  0.00  0.00    +0.000 A 
ATOM     12  C   UNL     1       4.298   4.128  16.445  0.00  0.00    +0.000 A 
ATOM     13  C   UNL     1       5.421   3.766  15.674  0.00  0.00    +0.000 A 
ATOM     14  C   UNL     1       6.449   4.663  15.473  0.00  0.00    +0.000 A 
ATOM     15  C   UNL     1       6.373   5.903  16.092  0.00  0.00    +0.000 A 
ATOM     16  C   UNL     1       5.280   6.281  16.912  0.00  0.00    +0.000 A 
ATOM     17  C   UNL     1       5.483   7.604  17.594  0.00  0.00    +0.000 C 
ENDBRANCH  10  11
BRANCH   1  18
ATOM     18  N   UNL     1       2.141   6.518  20.124  0.00  0.00    +0.000 N 
ATOM     19  H   UNL     1       1.331   5.905  20.090  0.00  0.00    +0.000 HD
BRANCH  18  26
ATOM     20  C   UNL     1       2.139   8.435  17.693  0.00  0.00    +0.000 C 
ATOM     21  C   UNL     1       1.589   8.728  19.050  0.00  0.00    +0.000 A 
ATOM     22  C   UNL     1       1.172  10.074  19.250  0.00  0.00    +0.000 A 
ATOM     23  C   UNL     1       0.879  10.586  20.503  0.00  0.00    +0.000 A 
ATOM     24  C   UNL     1       1.002   9.744  21.599  0.00  0.00    +0.000 A 
ATOM     25  C   UNL     1       1.375   8.399  21.409  0.00  0.00    +0.000 A 
ATOM     26  C   UNL     1       1.678   7.839  20.147  0.00  0.00    +0.000 A 
ENDBRANCH  18  26
ENDBRANCH   1  18
TORSDOF 3
ENDMDL
