MODEL 1
REMARK VINA RESULT:      -6.9      0.000      0.000
REMARK  Name = 
REMARK  8 active torsions:
REMARK  status: ('A' for Active; 'I' for Inactive)
REMARK    1  A    between atoms: C_1  and  C_2
REMARK    2  A    between atoms: C_2  and  C_3
REMARK    3  A    between atoms: C_2  and  C_4
REMARK    4  A    between atoms: C_2  and  O_5
REMARK    5  A    between atoms: O_5  and  C_6
REMARK    6  A    between atoms: C_9  and  C_10
REMARK    7  A    between atoms: C_18  and  C_19
REMARK    8  A    between atoms: C_19  and  C_21
REMARK                            x       y       z     vdW  Elec       q    Type
REMARK                         _______ _______ _______ _____ _____    ______ ____
ROOT
ATOM      1  C   UNL     1      -1.395  12.559  18.564  0.00  0.00    +0.000 C 
ATOM      2  O   UNL     1      -0.696  13.169  17.756  0.00  0.00    +0.000 OA
ATOM      3  N   UNL     1      -1.101  12.637  19.902  0.00  0.00    +0.000 N 
ATOM      4  C   UNL     1      -1.735  11.949  21.018  0.00  0.00    +0.000 C 
ATOM      5  S   UNL     1      -2.081  13.344  22.164  0.00  0.00    +0.000 S 
ATOM      6  C   UNL     1      -0.579  14.246  21.693  0.00  0.00    +0.000 C 
ATOM      7  C   UNL     1      -0.247  13.782  20.277  0.00  0.00    +0.000 C 
ENDROOT
BRANCH   4   8
ATOM      8  C   UNL     1      -0.847  10.880  21.652  0.00  0.00    +0.000 A 
ATOM      9  C   UNL     1      -0.143   9.947  20.876  0.00  0.00    +0.000 A 
ATOM     10  C   UNL     1       0.699   9.010  21.476  0.00  0.00    +0.000 A 
ATOM     11  C   UNL     1       0.790   8.996  22.853  0.00  0.00    +0.000 A 
ATOM     12  N   UNL     1       0.094   9.827  23.652  0.00  0.00    +0.000 NA
ATOM     13  C   UNL     1      -0.701  10.739  23.036  0.00  0.00    +0.000 A 
ENDBRANCH   4   8
BRANCH   7  14
ATOM     14  C   UNL     1       1.261  13.464  20.122  0.00  0.00    +0.000 C 
ATOM     15  O   UNL     1       1.781  12.581  20.807  0.00  0.00    +0.000 OA
BRANCH  14  16
ATOM     16  C   UNL     1       2.077  14.232  19.167  0.00  0.00    +0.000 A 
ATOM     17  C   UNL     1       3.245  13.816  18.550  0.00  0.00    +0.000 A 
ATOM     18  N   UNL     1       3.640  14.775  17.658  0.00  0.00    +0.000 N 
ATOM     19  C   UNL     1       2.760  15.826  17.672  0.00  0.00    +0.000 A 
ATOM     20  C   UNL     1       2.732  16.980  16.881  0.00  0.00    +0.000 A 
ATOM     21  C   UNL     1       1.739  17.923  17.148  0.00  0.00    +0.000 A 
ATOM     22  C   UNL     1       0.834  17.734  18.190  0.00  0.00    +0.000 A 
ATOM     23  C   UNL     1       0.865  16.561  18.957  0.00  0.00    +0.000 A 
ATOM     24  C   UNL     1       1.824  15.563  18.674  0.00  0.00    +0.000 A 
ATOM     25  H   UNL     1       4.460  14.721  17.069  0.00  0.00    +0.000 HD
ENDBRANCH  14  16
ENDBRANCH   7  14
BRANCH   1  26
ATOM     26  O   UNL     1      -2.522  11.871  18.207  0.00  0.00    +0.000 OA
BRANCH  26  28
ATOM     27  C   UNL     1      -0.888  10.094  17.611  0.00  0.00    +0.000 C 
ATOM     28  C   UNL     1      -2.296  10.677  17.377  0.00  0.00    +0.000 C 
ATOM     29  C   UNL     1      -2.571  10.974  15.886  0.00  0.00    +0.000 C 
ATOM     30  C   UNL     1      -3.296   9.582  17.792  0.00  0.00    +0.000 C 
ENDBRANCH  26  28
ENDBRANCH   1  26
TORSDOF 5
ENDMDL
MODEL 2
REMARK VINA RESULT:      -6.8      3.008      5.688
REMARK  Name = 
REMARK  8 active torsions:
REMARK  status: ('A' for Active; 'I' for Inactive)
REMARK    1  A    between atoms: C_1  and  C_2
REMARK    2  A    between atoms: C_2  and  C_3
REMARK    3  A    between atoms: C_2  and  C_4
REMARK    4  A    between atoms: C_2  and  O_5
REMARK    5  A    between atoms: O_5  and  C_6
REMARK    6  A    between atoms: C_9  and  C_10
REMARK    7  A    between atoms: C_18  and  C_19
REMARK    8  A    between atoms: C_19  and  C_21
REMARK                            x       y       z     vdW  Elec       q    Type
REMARK                         _______ _______ _______ _____ _____    ______ ____
ROOT
ATOM      1  C   UNL     1      -1.300  10.844  17.655  0.00  0.00    +0.000 C 
ATOM      2  O   UNL     1      -0.928   9.674  17.583  0.00  0.00    +0.000 OA
ATOM      3  N   UNL     1      -0.776  11.657  18.628  0.00  0.00    +0.000 N 
ATOM      4  C   UNL     1      -1.118  13.037  18.946  0.00  0.00    +0.000 C 
ATOM      5  S   UNL     1       0.539  13.832  18.973  0.00  0.00    +0.000 S 
ATOM      6  C   UNL     1       1.355  12.358  19.647  0.00  0.00    +0.000 C 
ATOM      7  C   UNL     1       0.490  11.176  19.216  0.00  0.00    +0.000 C 
ENDROOT
BRANCH   4   8
ATOM      8  C   UNL     1      -1.859  13.186  20.274  0.00  0.00    +0.000 A 
ATOM      9  C   UNL     1      -3.135  12.640  20.474  0.00  0.00    +0.000 A 
ATOM     10  C   UNL     1      -3.771  12.748  21.712  0.00  0.00    +0.000 A 
ATOM     11  C   UNL     1      -3.133  13.441  22.720  0.00  0.00    +0.000 A 
ATOM     12  N   UNL     1      -1.934  14.036  22.568  0.00  0.00    +0.000 NA
ATOM     13  C   UNL     1      -1.333  13.896  21.359  0.00  0.00    +0.000 A 
ENDBRANCH   4   8
BRANCH   7  14
ATOM     14  C   UNL     1       0.254  10.188  20.385  0.00  0.00    +0.000 C 
ATOM     15  O   UNL     1      -0.558  10.461  21.272  0.00  0.00    +0.000 OA
BRANCH  14  16
ATOM     16  C   UNL     1       1.016   8.930  20.446  0.00  0.00    +0.000 A 
ATOM     17  C   UNL     1       1.047   8.028  21.496  0.00  0.00    +0.000 A 
ATOM     18  N   UNL     1       1.788   6.940  21.124  0.00  0.00    +0.000 N 
ATOM     19  C   UNL     1       2.257   7.102  19.846  0.00  0.00    +0.000 A 
ATOM     20  C   UNL     1       2.989   6.220  19.043  0.00  0.00    +0.000 A 
ATOM     21  C   UNL     1       3.384   6.669  17.782  0.00  0.00    +0.000 A 
ATOM     22  C   UNL     1       3.088   7.963  17.359  0.00  0.00    +0.000 A 
ATOM     23  C   UNL     1       2.335   8.823  18.168  0.00  0.00    +0.000 A 
ATOM     24  C   UNL     1       1.874   8.378  19.427  0.00  0.00    +0.000 A 
ATOM     25  H   UNL     1       1.966   6.130  21.702  0.00  0.00    +0.000 HD
ENDBRANCH  14  16
ENDBRANCH   7  14
BRANCH   1  26
ATOM     26  O   UNL     1      -2.148  11.415  16.747  0.00  0.00    +0.000 OA
BRANCH  26  28
ATOM     27  C   UNL     1      -3.668   9.679  17.676  0.00  0.00    +0.000 C 
ATOM     28  C   UNL     1      -3.436  10.725  16.567  0.00  0.00    +0.000 C 
ATOM     29  C   UNL     1      -3.551  10.119  15.151  0.00  0.00    +0.000 C 
ATOM     30  C   UNL     1      -4.576  11.753  16.692  0.00  0.00    +0.000 C 
ENDBRANCH  26  28
ENDBRANCH   1  26
TORSDOF 5
ENDMDL
MODEL 3
REMARK VINA RESULT:      -6.8      7.083      9.349
REMARK  Name = 
REMARK  8 active torsions:
REMARK  status: ('A' for Active; 'I' for Inactive)
REMARK    1  A    between atoms: C_1  and  C_2
REMARK    2  A    between atoms: C_2  and  C_3
REMARK    3  A    between atoms: C_2  and  C_4
REMARK    4  A    between atoms: C_2  and  O_5
REMARK    5  A    between atoms: O_5  and  C_6
REMARK    6  A    between atoms: C_9  and  C_10
REMARK    7  A    between atoms: C_18  and  C_19
REMARK    8  A    between atoms: C_19  and  C_21
REMARK                            x       y       z     vdW  Elec       q    Type
REMARK                         _______ _______ _______ _____ _____    ______ ____
ROOT
ATOM      1  C   UNL     1       2.301   4.283  17.735  0.00  0.00    +0.000 C 
ATOM      2  O   UNL     1       1.399   5.105  17.881  0.00  0.00    +0.000 OA
ATOM      3  N   UNL     1       3.606   4.685  17.864  0.00  0.00    +0.000 N 
ATOM      4  C   UNL     1       4.824   3.912  17.664  0.00  0.00    +0.000 C 
ATOM      5  S   UNL     1       5.744   4.259  19.216  0.00  0.00    +0.000 S 
ATOM      6  C   UNL     1       5.119   5.959  19.334  0.00  0.00    +0.000 C 
ATOM      7  C   UNL     1       3.788   5.960  18.586  0.00  0.00    +0.000 C 
ENDROOT
BRANCH   4   8
ATOM      8  C   UNL     1       5.605   4.327  16.417  0.00  0.00    +0.000 A 
ATOM      9  C   UNL     1       5.113   4.094  15.124  0.00  0.00    +0.000 A 
ATOM     10  C   UNL     1       5.823   4.526  14.003  0.00  0.00    +0.000 A 
ATOM     11  C   UNL     1       7.039   5.149  14.195  0.00  0.00    +0.000 A 
ATOM     12  N   UNL     1       7.589   5.346  15.408  0.00  0.00    +0.000 NA
ATOM     13  C   UNL     1       6.864   4.933  16.480  0.00  0.00    +0.000 A 
ENDBRANCH   4   8
BRANCH   7  14
ATOM     14  C   UNL     1       3.663   7.187  17.648  0.00  0.00    +0.000 C 
ATOM     15  O   UNL     1       4.337   7.248  16.617  0.00  0.00    +0.000 OA
BRANCH  14  16
ATOM     16  C   UNL     1       2.753   8.289  18.001  0.00  0.00    +0.000 A 
ATOM     17  C   UNL     1       2.479   9.414  17.241  0.00  0.00    +0.000 A 
ATOM     18  N   UNL     1       1.507  10.145  17.867  0.00  0.00    +0.000 N 
ATOM     19  C   UNL     1       1.130   9.530  19.034  0.00  0.00    +0.000 A 
ATOM     20  C   UNL     1       0.130   9.881  19.948  0.00  0.00    +0.000 A 
ATOM     21  C   UNL     1      -0.004   9.095  21.093  0.00  0.00    +0.000 A 
ATOM     22  C   UNL     1       0.854   8.023  21.329  0.00  0.00    +0.000 A 
ATOM     23  C   UNL     1       1.834   7.674  20.391  0.00  0.00    +0.000 A 
ATOM     24  C   UNL     1       1.958   8.417  19.197  0.00  0.00    +0.000 A 
ATOM     25  H   UNL     1       1.117  11.011  17.524  0.00  0.00    +0.000 HD
ENDBRANCH  14  16
ENDBRANCH   7  14
BRANCH   1  26
ATOM     26  O   UNL     1       2.070   2.949  17.541  0.00  0.00    +0.000 OA
BRANCH  26  28
ATOM     27  C   UNL     1       2.039   3.007  20.028  0.00  0.00    +0.000 C 
ATOM     28  C   UNL     1       2.063   2.126  18.762  0.00  0.00    +0.000 C 
ATOM     29  C   UNL     1       3.236   1.121  18.765  0.00  0.00    +0.000 C 
ATOM     30  C   UNL     1       0.773   1.285  18.792  0.00  0.00    +0.000 C 
ENDBRANCH  26  28
ENDBRANCH   1  26
TORSDOF 5
ENDMDL
MODEL 4
REMARK VINA RESULT:      -6.7      2.787      6.743
REMARK  Name = 
REMARK  8 active torsions:
REMARK  status: ('A' for Active; 'I' for Inactive)
REMARK    1  A    between atoms: C_1  and  C_2
REMARK    2  A    between atoms: C_2  and  C_3
REMARK    3  A    between atoms: C_2  and  C_4
REMARK    4  A    between atoms: C_2  and  O_5
REMARK    5  A    between atoms: O_5  and  C_6
REMARK    6  A    between atoms: C_9  and  C_10
REMARK    7  A    between atoms: C_18  and  C_19
REMARK    8  A    between atoms: C_19  and  C_21
REMARK                            x       y       z     vdW  Elec       q    Type
REMARK                         _______ _______ _______ _____ _____    ______ ____
ROOT
ATOM      1  C   UNL     1       1.672  12.769  18.513  0.00  0.00    +0.000 C 
ATOM      2  O   UNL     1       2.595  12.003  18.240  0.00  0.00    +0.000 OA
ATOM      3  N   UNL     1       0.650  12.331  19.317  0.00  0.00    +0.000 N 
ATOM      4  C   UNL     1      -0.568  13.029  19.707  0.00  0.00    +0.000 C 
ATOM      5  S   UNL     1      -0.549  12.815  21.532  0.00  0.00    +0.000 S 
ATOM      6  C   UNL     1       0.200  11.164  21.439  0.00  0.00    +0.000 C 
ATOM      7  C   UNL     1       0.970  11.135  20.121  0.00  0.00    +0.000 C 
ENDROOT
BRANCH   4   8
ATOM      8  C   UNL     1      -1.827  12.451  19.064  0.00  0.00    +0.000 A 
ATOM      9  C   UNL     1      -1.830  11.961  17.750  0.00  0.00    +0.000 A 
ATOM     10  C   UNL     1      -2.981  11.393  17.203  0.00  0.00    +0.000 A 
ATOM     11  C   UNL     1      -4.129  11.366  17.969  0.00  0.00    +0.000 A 
ATOM     12  N   UNL     1      -4.202  11.875  19.214  0.00  0.00    +0.000 NA
ATOM     13  C   UNL     1      -3.060  12.401  19.725  0.00  0.00    +0.000 A 
ENDBRANCH   4   8
BRANCH   7  14
ATOM     14  C   UNL     1       0.716   9.820  19.342  0.00  0.00    +0.000 C 
ATOM     15  O   UNL     1      -0.053   9.811  18.378  0.00  0.00    +0.000 OA
BRANCH  14  16
ATOM     16  C   UNL     1       1.378   8.577  19.769  0.00  0.00    +0.000 A 
ATOM     17  C   UNL     1       1.202   7.913  20.971  0.00  0.00    +0.000 A 
ATOM     18  N   UNL     1       1.916   6.747  20.941  0.00  0.00    +0.000 N 
ATOM     19  C   UNL     1       2.570   6.622  19.742  0.00  0.00    +0.000 A 
ATOM     20  C   UNL     1       3.349   5.568  19.253  0.00  0.00    +0.000 A 
ATOM     21  C   UNL     1       3.946   5.731  18.002  0.00  0.00    +0.000 A 
ATOM     22  C   UNL     1       3.797   6.918  17.289  0.00  0.00    +0.000 A 
ATOM     23  C   UNL     1       2.995   7.953  17.785  0.00  0.00    +0.000 A 
ATOM     24  C   UNL     1       2.333   7.796  19.023  0.00  0.00    +0.000 A 
ATOM     25  H   UNL     1       1.958   6.069  21.690  0.00  0.00    +0.000 HD
ENDBRANCH  14  16
ENDBRANCH   7  14
BRANCH   1  26
ATOM     26  O   UNL     1       1.655  14.083  18.132  0.00  0.00    +0.000 OA
BRANCH  26  28
ATOM     27  C   UNL     1       3.950  14.995  17.843  0.00  0.00    +0.000 C 
ATOM     28  C   UNL     1       2.696  14.929  18.738  0.00  0.00    +0.000 C 
ATOM     29  C   UNL     1       3.021  14.470  20.177  0.00  0.00    +0.000 C 
ATOM     30  C   UNL     1       2.166  16.370  18.852  0.00  0.00    +0.000 C 
ENDBRANCH  26  28
ENDBRANCH   1  26
TORSDOF 5
ENDMDL
MODEL 5
REMARK VINA RESULT:      -6.5      2.840      6.859
REMARK  Name = 
REMARK  8 active torsions:
REMARK  status: ('A' for Active; 'I' for Inactive)
REMARK    1  A    between atoms: C_1  and  C_2
REMARK    2  A    between atoms: C_2  and  C_3
REMARK    3  A    between atoms: C_2  and  C_4
REMARK    4  A    between atoms: C_2  and  O_5
REMARK    5  A    between atoms: O_5  and  C_6
REMARK    6  A    between atoms: C_9  and  C_10
REMARK    7  A    between atoms: C_18  and  C_19
REMARK    8  A    between atoms: C_19  and  C_21
REMARK                            x       y       z     vdW  Elec       q    Type
REMARK                         _______ _______ _______ _____ _____    ______ ____
ROOT
ATOM      1  C   UNL     1       1.398  12.800  18.546  0.00  0.00    +0.000 C 
ATOM      2  O   UNL     1       2.447  12.167  18.445  0.00  0.00    +0.000 OA
ATOM      3  N   UNL     1       0.304  12.203  19.118  0.00  0.00    +0.000 N 
ATOM      4  C   UNL     1      -1.047  12.728  19.273  0.00  0.00    +0.000 C 
ATOM      5  S   UNL     1      -1.357  12.428  21.059  0.00  0.00    +0.000 S 
ATOM      6  C   UNL     1      -0.399  10.887  21.078  0.00  0.00    +0.000 C 
ATOM      7  C   UNL     1       0.611  11.017  19.941  0.00  0.00    +0.000 C 
ENDROOT
BRANCH   4   8
ATOM      8  C   UNL     1      -2.071  12.034  18.377  0.00  0.00    +0.000 A 
ATOM      9  C   UNL     1      -3.331  11.644  18.857  0.00  0.00    +0.000 A 
ATOM     10  C   UNL     1      -4.267  11.056  18.006  0.00  0.00    +0.000 A 
ATOM     11  C   UNL     1      -3.909  10.825  16.693  0.00  0.00    +0.000 A 
ATOM     12  N   UNL     1      -2.695  11.122  16.192  0.00  0.00    +0.000 NA
ATOM     13  C   UNL     1      -1.814  11.713  17.040  0.00  0.00    +0.000 A 
ENDBRANCH   4   8
BRANCH   7  14
ATOM     14  C   UNL     1       0.685   9.720  19.096  0.00  0.00    +0.000 C 
ATOM     15  O   UNL     1       0.143   9.672  17.989  0.00  0.00    +0.000 OA
BRANCH  14  16
ATOM     16  C   UNL     1       1.387   8.540  19.625  0.00  0.00    +0.000 A 
ATOM     17  C   UNL     1       1.223   7.969  20.876  0.00  0.00    +0.000 A 
ATOM     18  N   UNL     1       1.978   6.831  20.946  0.00  0.00    +0.000 N 
ATOM     19  C   UNL     1       2.647   6.634  19.765  0.00  0.00    +0.000 A 
ATOM     20  C   UNL     1       3.468   5.572  19.367  0.00  0.00    +0.000 A 
ATOM     21  C   UNL     1       4.070   5.655  18.111  0.00  0.00    +0.000 A 
ATOM     22  C   UNL     1       3.886   6.775  17.303  0.00  0.00    +0.000 A 
ATOM     23  C   UNL     1       3.043   7.817  17.709  0.00  0.00    +0.000 A 
ATOM     24  C   UNL     1       2.376   7.736  18.951  0.00  0.00    +0.000 A 
ATOM     25  H   UNL     1       2.037   6.218  21.747  0.00  0.00    +0.000 HD
ENDBRANCH  14  16
ENDBRANCH   7  14
BRANCH   1  26
ATOM     26  O   UNL     1       1.286  14.119  18.201  0.00  0.00    +0.000 OA
BRANCH  26  28
ATOM     27  C   UNL     1       3.443  15.307  18.550  0.00  0.00    +0.000 C 
ATOM     28  C   UNL     1       2.012  15.062  19.068  0.00  0.00    +0.000 C 
ATOM     29  C   UNL     1       1.989  14.595  20.541  0.00  0.00    +0.000 C 
ATOM     30  C   UNL     1       1.296  16.425  19.035  0.00  0.00    +0.000 C 
ENDBRANCH  26  28
ENDBRANCH   1  26
TORSDOF 5
ENDMDL
MODEL 6
REMARK VINA RESULT:      -6.3      3.209      7.051
REMARK  Name = 
REMARK  8 active torsions:
REMARK  status: ('A' for Active; 'I' for Inactive)
REMARK    1  A    between atoms: C_1  and  C_2
REMARK    2  A    between atoms: C_2  and  C_3
REMARK    3  A    between atoms: C_2  and  C_4
REMARK    4  A    between atoms: C_2  and  O_5
REMARK    5  A    between atoms: O_5  and  C_6
REMARK    6  A    between atoms: C_9  and  C_10
REMARK    7  A    between atoms: C_18  and  C_19
REMARK    8  A    between atoms: C_19  and  C_21
REMARK                            x       y       z     vdW  Elec       q    Type
REMARK                         _______ _______ _______ _____ _____    ______ ____
ROOT
ATOM      1  C   UNL     1       1.615  12.459  18.418  0.00  0.00    +0.000 C 
ATOM      2  O   UNL     1       2.727  11.946  18.313  0.00  0.00    +0.000 OA
ATOM      3  N   UNL     1       0.576  11.717  18.918  0.00  0.00    +0.000 N 
ATOM      4  C   UNL     1      -0.826  12.087  19.060  0.00  0.00    +0.000 C 
ATOM      5  S   UNL     1      -1.150  11.646  20.814  0.00  0.00    +0.000 S 
ATOM      6  C   UNL     1      -0.035  10.216  20.774  0.00  0.00    +0.000 C 
ATOM      7  C   UNL     1       0.985  10.520  19.679  0.00  0.00    +0.000 C 
ENDROOT
BRANCH   4   8
ATOM      8  C   UNL     1      -1.748  11.347  18.093  0.00  0.00    +0.000 A 
ATOM      9  C   UNL     1      -2.498  10.230  18.492  0.00  0.00    +0.000 A 
ATOM     10  C   UNL     1      -3.369   9.601  17.602  0.00  0.00    +0.000 A 
ATOM     11  C   UNL     1      -3.443  10.076  16.308  0.00  0.00    +0.000 A 
ATOM     12  N   UNL     1      -2.704  11.105  15.852  0.00  0.00    +0.000 NA
ATOM     13  C   UNL     1      -1.881  11.709  16.747  0.00  0.00    +0.000 A 
ENDBRANCH   4   8
BRANCH   7  14
ATOM     14  C   UNL     1       1.219   9.293  18.762  0.00  0.00    +0.000 C 
ATOM     15  O   UNL     1       0.837   9.316  17.590  0.00  0.00    +0.000 OA
BRANCH  14  16
ATOM     16  C   UNL     1       1.880   8.093  19.298  0.00  0.00    +0.000 A 
ATOM     17  C   UNL     1       1.647   7.495  20.525  0.00  0.00    +0.000 A 
ATOM     18  N   UNL     1       2.384   6.346  20.606  0.00  0.00    +0.000 N 
ATOM     19  C   UNL     1       3.110   6.169  19.456  0.00  0.00    +0.000 A 
ATOM     20  C   UNL     1       3.938   5.107  19.075  0.00  0.00    +0.000 A 
ATOM     21  C   UNL     1       4.605   5.211  17.854  0.00  0.00    +0.000 A 
ATOM     22  C   UNL     1       4.474   6.351  17.064  0.00  0.00    +0.000 A 
ATOM     23  C   UNL     1       3.623   7.394  17.451  0.00  0.00    +0.000 A 
ATOM     24  C   UNL     1       2.893   7.292  18.656  0.00  0.00    +0.000 A 
ATOM     25  H   UNL     1       2.396   5.714  21.394  0.00  0.00    +0.000 HD
ENDBRANCH  14  16
ENDBRANCH   7  14
BRANCH   1  26
ATOM     26  O   UNL     1       1.373  13.778  18.148  0.00  0.00    +0.000 OA
BRANCH  26  28
ATOM     27  C   UNL     1       2.004  14.117  20.530  0.00  0.00    +0.000 C 
ATOM     28  C   UNL     1       1.932  14.733  19.118  0.00  0.00    +0.000 C 
ATOM     29  C   UNL     1       1.157  16.069  19.097  0.00  0.00    +0.000 C 
ATOM     30  C   UNL     1       3.381  15.066  18.715  0.00  0.00    +0.000 C 
ENDBRANCH  26  28
ENDBRANCH   1  26
TORSDOF 5
ENDMDL
MODEL 7
REMARK VINA RESULT:      -6.3      3.242      6.600
REMARK  Name = 
REMARK  8 active torsions:
REMARK  status: ('A' for Active; 'I' for Inactive)
REMARK    1  A    between atoms: C_1  and  C_2
REMARK    2  A    between atoms: C_2  and  C_3
REMARK    3  A    between atoms: C_2  and  C_4
REMARK    4  A    between atoms: C_2  and  O_5
REMARK    5  A    between atoms: O_5  and  C_6
REMARK    6  A    between atoms: C_9  and  C_10
REMARK    7  A    between atoms: C_18  and  C_19
REMARK    8  A    between atoms: C_19  and  C_21
REMARK                            x       y       z     vdW  Elec       q    Type
REMARK                         _______ _______ _______ _____ _____    ______ ____
ROOT
ATOM      1  C   UNL     1      -2.734  12.006  18.946  0.00  0.00    +0.000 C 
ATOM      2  O   UNL     1      -3.870  11.884  19.400  0.00  0.00    +0.000 OA
ATOM      3  N   UNL     1      -1.693  12.272  19.798  0.00  0.00    +0.000 N 
ATOM      4  C   UNL     1      -0.294  12.527  19.481  0.00  0.00    +0.000 C 
ATOM      5  S   UNL     1       0.561  11.357  20.610  0.00  0.00    +0.000 S 
ATOM      6  C   UNL     1      -0.677  11.549  21.923  0.00  0.00    +0.000 C 
ATOM      7  C   UNL     1      -1.965  11.963  21.216  0.00  0.00    +0.000 C 
ENDROOT
BRANCH   4   8
ATOM      8  C   UNL     1       0.125  13.977  19.717  0.00  0.00    +0.000 A 
ATOM      9  C   UNL     1      -0.404  15.033  18.960  0.00  0.00    +0.000 A 
ATOM     10  C   UNL     1      -0.042  16.354  19.227  0.00  0.00    +0.000 A 
ATOM     11  C   UNL     1       0.882  16.593  20.225  0.00  0.00    +0.000 A 
ATOM     12  N   UNL     1       1.467  15.617  20.944  0.00  0.00    +0.000 NA
ATOM     13  C   UNL     1       1.078  14.344  20.673  0.00  0.00    +0.000 A 
ENDBRANCH   4   8
BRANCH   7  14
ATOM     14  C   UNL     1      -2.664  13.136  21.948  0.00  0.00    +0.000 C 
ATOM     15  O   UNL     1      -2.291  14.295  21.756  0.00  0.00    +0.000 OA
BRANCH  14  16
ATOM     16  C   UNL     1      -3.763  12.861  22.889  0.00  0.00    +0.000 A 
ATOM     17  C   UNL     1      -3.652  12.320  24.159  0.00  0.00    +0.000 A 
ATOM     18  N   UNL     1      -4.885  12.320  24.749  0.00  0.00    +0.000 N 
ATOM     19  C   UNL     1      -5.819  12.847  23.895  0.00  0.00    +0.000 A 
ATOM     20  C   UNL     1      -7.179  13.104  24.103  0.00  0.00    +0.000 A 
ATOM     21  C   UNL     1      -7.915  13.603  23.028  0.00  0.00    +0.000 A 
ATOM     22  C   UNL     1      -7.319  13.801  21.784  0.00  0.00    +0.000 A 
ATOM     23  C   UNL     1      -5.952  13.560  21.602  0.00  0.00    +0.000 A 
ATOM     24  C   UNL     1      -5.169  13.106  22.687  0.00  0.00    +0.000 A 
ATOM     25  H   UNL     1      -5.086  11.984  25.681  0.00  0.00    +0.000 HD
ENDBRANCH  14  16
ENDBRANCH   7  14
BRANCH   1  26
ATOM     26  O   UNL     1      -2.429  11.792  17.629  0.00  0.00    +0.000 OA
BRANCH  26  28
ATOM     27  C   UNL     1      -3.640   9.629  17.822  0.00  0.00    +0.000 C 
ATOM     28  C   UNL     1      -2.452  10.386  17.196  0.00  0.00    +0.000 C 
ATOM     29  C   UNL     1      -1.099   9.694  17.476  0.00  0.00    +0.000 C 
ATOM     30  C   UNL     1      -2.657  10.334  15.671  0.00  0.00    +0.000 C 
ENDBRANCH  26  28
ENDBRANCH   1  26
TORSDOF 5
ENDMDL
MODEL 8
REMARK VINA RESULT:      -6.3      2.707      6.279
REMARK  Name = 
REMARK  8 active torsions:
REMARK  status: ('A' for Active; 'I' for Inactive)
REMARK    1  A    between atoms: C_1  and  C_2
REMARK    2  A    between atoms: C_2  and  C_3
REMARK    3  A    between atoms: C_2  and  C_4
REMARK    4  A    between atoms: C_2  and  O_5
REMARK    5  A    between atoms: O_5  and  C_6
REMARK    6  A    between atoms: C_9  and  C_10
REMARK    7  A    between atoms: C_18  and  C_19
REMARK    8  A    between atoms: C_19  and  C_21
REMARK                            x       y       z     vdW  Elec       q    Type
REMARK                         _______ _______ _______ _____ _____    ______ ____
ROOT
ATOM      1  C   UNL     1       0.674  13.324  18.798  0.00  0.00    +0.000 C 
ATOM      2  O   UNL     1      -0.115  14.175  18.390  0.00  0.00    +0.000 OA
ATOM      3  N   UNL     1       0.252  12.027  18.937  0.00  0.00    +0.000 N 
ATOM      4  C   UNL     1       0.980  10.881  19.466  0.00  0.00    +0.000 C 
ATOM      5  S   UNL     1       0.723   9.635  18.141  0.00  0.00    +0.000 S 
ATOM      6  C   UNL     1      -0.948  10.228  17.757  0.00  0.00    +0.000 C 
ATOM      7  C   UNL     1      -0.972  11.694  18.182  0.00  0.00    +0.000 C 
ENDROOT
BRANCH   4   8
ATOM      8  C   UNL     1       0.458  10.408  20.822  0.00  0.00    +0.000 A 
ATOM      9  C   UNL     1       0.179   9.057  21.078  0.00  0.00    +0.000 A 
ATOM     10  C   UNL     1      -0.250   8.643  22.339  0.00  0.00    +0.000 A 
ATOM     11  C   UNL     1      -0.436   9.600  23.317  0.00  0.00    +0.000 A 
ATOM     12  N   UNL     1      -0.243  10.917  23.112  0.00  0.00    +0.000 NA
ATOM     13  C   UNL     1       0.195  11.284  21.880  0.00  0.00    +0.000 A 
ENDBRANCH   4   8
BRANCH   7  14
ATOM     14  C   UNL     1      -2.260  12.036  18.972  0.00  0.00    +0.000 C 
ATOM     15  O   UNL     1      -2.182  12.476  20.121  0.00  0.00    +0.000 OA
BRANCH  14  16
ATOM     16  C   UNL     1      -3.578  11.818  18.354  0.00  0.00    +0.000 A 
ATOM     17  C   UNL     1      -3.830  11.473  17.037  0.00  0.00    +0.000 A 
ATOM     18  N   UNL     1      -5.173  11.262  16.883  0.00  0.00    +0.000 N 
ATOM     19  C   UNL     1      -5.823  11.465  18.074  0.00  0.00    +0.000 A 
ATOM     20  C   UNL     1      -7.174  11.294  18.397  0.00  0.00    +0.000 A 
ATOM     21  C   UNL     1      -7.577  11.628  19.690  0.00  0.00    +0.000 A 
ATOM     22  C   UNL     1      -6.669  12.147  20.610  0.00  0.00    +0.000 A 
ATOM     23  C   UNL     1      -5.316  12.289  20.275  0.00  0.00    +0.000 A 
ATOM     24  C   UNL     1      -4.868  11.908  18.992  0.00  0.00    +0.000 A 
ATOM     25  H   UNL     1      -5.627  10.993  16.021  0.00  0.00    +0.000 HD
ENDBRANCH  14  16
ENDBRANCH   7  14
BRANCH   1  26
ATOM     26  O   UNL     1       1.996  13.585  19.034  0.00  0.00    +0.000 OA
BRANCH  26  28
ATOM     27  C   UNL     1       3.569  14.210  20.857  0.00  0.00    +0.000 C 
ATOM     28  C   UNL     1       2.265  14.555  20.108  0.00  0.00    +0.000 C 
ATOM     29  C   UNL     1       1.055  14.684  21.060  0.00  0.00    +0.000 C 
ATOM     30  C   UNL     1       2.476  15.947  19.484  0.00  0.00    +0.000 C 
ENDBRANCH  26  28
ENDBRANCH   1  26
TORSDOF 5
ENDMDL
MODEL 9
REMARK VINA RESULT:      -6.3      2.701      6.718
REMARK  Name = 
REMARK  8 active torsions:
REMARK  status: ('A' for Active; 'I' for Inactive)
REMARK    1  A    between atoms: C_1  and  C_2
REMARK    2  A    between atoms: C_2  and  C_3
REMARK    3  A    between atoms: C_2  and  C_4
REMARK    4  A    between atoms: C_2  and  O_5
REMARK    5  A    between atoms: O_5  and  C_6
REMARK    6  A    between atoms: C_9  and  C_10
REMARK    7  A    between atoms: C_18  and  C_19
REMARK    8  A    between atoms: C_19  and  C_21
REMARK                            x       y       z     vdW  Elec       q    Type
REMARK                         _______ _______ _______ _____ _____    ______ ____
ROOT
ATOM      1  C   UNL     1       1.141  13.040  18.845  0.00  0.00    +0.000 C 
ATOM      2  O   UNL     1       2.228  12.476  18.741  0.00  0.00    +0.000 OA
ATOM      3  N   UNL     1       0.072  12.351  19.357  0.00  0.00    +0.000 N 
ATOM      4  C   UNL     1      -1.311  12.786  19.502  0.00  0.00    +0.000 C 
ATOM      5  S   UNL     1      -1.646  12.378  21.262  0.00  0.00    +0.000 S 
ATOM      6  C   UNL     1      -0.597  10.898  21.231  0.00  0.00    +0.000 C 
ATOM      7  C   UNL     1       0.430  11.144  20.129  0.00  0.00    +0.000 C 
ENDROOT
BRANCH   4   8
ATOM      8  C   UNL     1      -2.271  12.079  18.546  0.00  0.00    +0.000 A 
ATOM      9  C   UNL     1      -1.925  11.811  17.213  0.00  0.00    +0.000 A 
ATOM     10  C   UNL     1      -2.800  11.120  16.374  0.00  0.00    +0.000 A 
ATOM     11  C   UNL     1      -4.031  10.746  16.873  0.00  0.00    +0.000 A 
ATOM     12  N   UNL     1      -4.441  11.027  18.125  0.00  0.00    +0.000 NA
ATOM     13  C   UNL     1      -3.559  11.682  18.922  0.00  0.00    +0.000 A 
ENDBRANCH   4   8
BRANCH   7  14
ATOM     14  C   UNL     1       0.603   9.899  19.223  0.00  0.00    +0.000 C 
ATOM     15  O   UNL     1       0.143   9.898  18.079  0.00  0.00    +0.000 OA
BRANCH  14  16
ATOM     16  C   UNL     1       1.300   8.710  19.739  0.00  0.00    +0.000 A 
ATOM     17  C   UNL     1       1.151   8.138  20.991  0.00  0.00    +0.000 A 
ATOM     18  N   UNL     1       1.894   6.991  21.045  0.00  0.00    +0.000 N 
ATOM     19  C   UNL     1       2.540   6.789  19.853  0.00  0.00    +0.000 A 
ATOM     20  C   UNL     1       3.342   5.719  19.439  0.00  0.00    +0.000 A 
ATOM     21  C   UNL     1       3.924   5.798  18.174  0.00  0.00    +0.000 A 
ATOM     22  C   UNL     1       3.739   6.921  17.371  0.00  0.00    +0.000 A 
ATOM     23  C   UNL     1       2.915   7.972  17.793  0.00  0.00    +0.000 A 
ATOM     24  C   UNL     1       2.268   7.896  19.046  0.00  0.00    +0.000 A 
ATOM     25  H   UNL     1       1.959   6.376  21.844  0.00  0.00    +0.000 HD
ENDBRANCH  14  16
ENDBRANCH   7  14
BRANCH   1  26
ATOM     26  O   UNL     1       0.958  14.366  18.562  0.00  0.00    +0.000 OA
BRANCH  26  28
ATOM     27  C   UNL     1       0.804  16.624  19.595  0.00  0.00    +0.000 C 
ATOM     28  C   UNL     1       1.597  15.305  19.499  0.00  0.00    +0.000 C 
ATOM     29  C   UNL     1       3.081  15.534  19.133  0.00  0.00    +0.000 C 
ATOM     30  C   UNL     1       1.589  14.688  20.910  0.00  0.00    +0.000 C 
ENDBRANCH  26  28
ENDBRANCH   1  26
TORSDOF 5
ENDMDL
