MODEL 1
REMARK VINA RESULT:      -8.0      0.000      0.000
REMARK  Name = 
REMARK  5 active torsions:
REMARK  status: ('A' for Active; 'I' for Inactive)
REMARK    1  A    between atoms: C_2  and  S_4
REMARK    2  A    between atoms: S_4  and  C_5
REMARK    3  A    between atoms: C_5  and  C_6
REMARK    4  A    between atoms: C_9  and  C_10
REMARK    5  A    between atoms: C_10  and  N_11
REMARK                            x       y       z     vdW  Elec       q    Type
REMARK                         _______ _______ _______ _____ _____    ______ ____
ROOT
ATOM      1  C   UNL     1       0.995  10.328  18.987  0.00  0.00    +0.000 A 
ATOM      2  C   UNL     1       0.877   9.723  20.247  0.00  0.00    +0.000 A 
ATOM      3  C   UNL     1       1.376   8.432  20.490  0.00  0.00    +0.000 A 
ATOM      4  C   UNL     1       2.007   7.685  19.485  0.00  0.00    +0.000 A 
ATOM      5  C   UNL     1       2.159   8.303  18.230  0.00  0.00    +0.000 A 
ATOM      6  C   UNL     1       1.662   9.603  17.987  0.00  0.00    +0.000 A 
ENDROOT
BRANCH   1   7
ATOM      7  C   UNL     1       0.345  11.675  18.696  0.00  0.00    +0.000 C 
BRANCH   7   8
ATOM      8  S   UNL     1      -1.451  11.728  18.981  0.00  0.00    +0.000 S 
BRANCH   8  10
ATOM      9  N   UNL     1      -2.171  11.702  16.424  0.00  0.00    +0.000 NA
ATOM     10  C   UNL     1      -2.062  11.021  17.507  0.00  0.00    +0.000 C 
ATOM     11  N   UNL     1      -2.420   9.720  17.607  0.00  0.00    +0.000 N 
ATOM     12  H   UNL     1      -2.522  11.094  15.678  0.00  0.00    +0.000 HD
ATOM     13  H   UNL     1      -3.127   9.385  16.965  0.00  0.00    +0.000 HD
ATOM     14  H   UNL     1      -2.559   9.400  18.561  0.00  0.00    +0.000 HD
ENDBRANCH   8  10
ENDBRANCH   7   8
ENDBRANCH   1   7
BRANCH   4  15
ATOM     15  C   UNL     1       2.720   6.397  19.846  0.00  0.00    +0.000 C 
BRANCH  15  16
ATOM     16  N   UNL     1       3.183   5.409  18.892  0.00  0.00    +0.000 N 
ATOM     17  C   UNL     1       2.303   4.345  18.642  0.00  0.00    +0.000 C 
ATOM     18  O   UNL     1       1.161   4.186  19.026  0.00  0.00    +0.000 OA
ATOM     19  C   UNL     1       3.008   3.431  17.642  0.00  0.00    +0.000 C 
ATOM     20  O   UNL     1       2.711   2.293  17.343  0.00  0.00    +0.000 OA
ATOM     21  C   UNL     1       4.112   4.213  17.127  0.00  0.00    +0.000 A 
ATOM     22  C   UNL     1       4.893   3.897  16.026  0.00  0.00    +0.000 A 
ATOM     23  C   UNL     1       5.728   4.896  15.571  0.00  0.00    +0.000 A 
ATOM     24 CL   UNL     1       6.642   4.641  14.137  0.00  0.00    +0.000 Cl
ATOM     25  C   UNL     1       5.783   6.138  16.249  0.00  0.00    +0.000 A 
ATOM     26  C   UNL     1       5.018   6.401  17.409  0.00  0.00    +0.000 A 
ATOM     27  C   UNL     1       4.152   5.420  17.859  0.00  0.00    +0.000 A 
ENDBRANCH  15  16
ENDBRANCH   4  15
TORSDOF 5
ENDMDL
MODEL 2
REMARK VINA RESULT:      -7.9      0.288      1.016
REMARK  Name = 
REMARK  5 active torsions:
REMARK  status: ('A' for Active; 'I' for Inactive)
REMARK    1  A    between atoms: C_2  and  S_4
REMARK    2  A    between atoms: S_4  and  C_5
REMARK    3  A    between atoms: C_5  and  C_6
REMARK    4  A    between atoms: C_9  and  C_10
REMARK    5  A    between atoms: C_10  and  N_11
REMARK                            x       y       z     vdW  Elec       q    Type
REMARK                         _______ _______ _______ _____ _____    ______ ____
ROOT
ATOM      1  C   UNL     1       0.658  10.042  18.964  0.00  0.00    +0.000 A 
ATOM      2  C   UNL     1       1.300   9.261  17.991  0.00  0.00    +0.000 A 
ATOM      3  C   UNL     1       2.003   8.093  18.335  0.00  0.00    +0.000 A 
ATOM      4  C   UNL     1       2.102   7.659  19.665  0.00  0.00    +0.000 A 
ATOM      5  C   UNL     1       1.429   8.419  20.638  0.00  0.00    +0.000 A 
ATOM      6  C   UNL     1       0.717   9.590  20.292  0.00  0.00    +0.000 A 
ENDROOT
BRANCH   1   7
ATOM      7  C   UNL     1       0.003  11.369  18.603  0.00  0.00    +0.000 C 
BRANCH   7   8
ATOM      8  S   UNL     1      -1.791  11.435  18.896  0.00  0.00    +0.000 S 
BRANCH   8  10
ATOM      9  N   UNL     1      -2.264  11.514  16.283  0.00  0.00    +0.000 NA
ATOM     10  C   UNL     1      -2.417  10.855  17.374  0.00  0.00    +0.000 C 
ATOM     11  N   UNL     1      -3.082   9.678  17.445  0.00  0.00    +0.000 N 
ATOM     12  H   UNL     1      -2.681  10.987  15.510  0.00  0.00    +0.000 HD
ATOM     13  H   UNL     1      -3.788   9.503  16.741  0.00  0.00    +0.000 HD
ATOM     14  H   UNL     1      -3.379   9.425  18.383  0.00  0.00    +0.000 HD
ENDBRANCH   8  10
ENDBRANCH   7   8
ENDBRANCH   1   7
BRANCH   4  15
ATOM     15  C   UNL     1       2.678   6.288  19.962  0.00  0.00    +0.000 C 
BRANCH  15  16
ATOM     16  N   UNL     1       3.152   5.353  18.962  0.00  0.00    +0.000 N 
ATOM     17  C   UNL     1       2.269   4.313  18.632  0.00  0.00    +0.000 C 
ATOM     18  O   UNL     1       1.119   4.142  18.983  0.00  0.00    +0.000 OA
ATOM     19  C   UNL     1       2.988   3.453  17.595  0.00  0.00    +0.000 C 
ATOM     20  O   UNL     1       2.688   2.336  17.225  0.00  0.00    +0.000 OA
ATOM     21  C   UNL     1       4.108   4.253  17.149  0.00  0.00    +0.000 A 
ATOM     22  C   UNL     1       4.910   3.994  16.047  0.00  0.00    +0.000 A 
ATOM     23  C   UNL     1       5.762   5.009  15.668  0.00  0.00    +0.000 A 
ATOM     24 CL   UNL     1       6.703   4.829  14.240  0.00  0.00    +0.000 Cl
ATOM     25  C   UNL     1       5.812   6.210  16.418  0.00  0.00    +0.000 A 
ATOM     26  C   UNL     1       5.025   6.412  17.575  0.00  0.00    +0.000 A 
ATOM     27  C   UNL     1       4.143   5.415  17.950  0.00  0.00    +0.000 A 
ENDBRANCH  15  16
ENDBRANCH   4  15
TORSDOF 5
ENDMDL
MODEL 3
REMARK VINA RESULT:      -7.7      1.020      1.083
REMARK  Name = 
REMARK  5 active torsions:
REMARK  status: ('A' for Active; 'I' for Inactive)
REMARK    1  A    between atoms: C_2  and  S_4
REMARK    2  A    between atoms: S_4  and  C_5
REMARK    3  A    between atoms: C_5  and  C_6
REMARK    4  A    between atoms: C_9  and  C_10
REMARK    5  A    between atoms: C_10  and  N_11
REMARK                            x       y       z     vdW  Elec       q    Type
REMARK                         _______ _______ _______ _____ _____    ______ ____
ROOT
ATOM      1  C   UNL     1       0.764   9.646  18.983  0.00  0.00    +0.000 A 
ATOM      2  C   UNL     1       0.876   9.077  20.260  0.00  0.00    +0.000 A 
ATOM      3  C   UNL     1       1.658   7.931  20.487  0.00  0.00    +0.000 A 
ATOM      4  C   UNL     1       2.355   7.299  19.447  0.00  0.00    +0.000 A 
ATOM      5  C   UNL     1       2.275   7.888  18.172  0.00  0.00    +0.000 A 
ATOM      6  C   UNL     1       1.493   9.044  17.945  0.00  0.00    +0.000 A 
ENDROOT
BRANCH   1   7
ATOM      7  C   UNL     1      -0.181  10.812  18.720  0.00  0.00    +0.000 C 
BRANCH   7   8
ATOM      8  S   UNL     1      -1.600  10.413  17.656  0.00  0.00    +0.000 S 
BRANCH   8  10
ATOM      9  N   UNL     1      -3.787  11.894  17.361  0.00  0.00    +0.000 NA
ATOM     10  C   UNL     1      -2.670  11.753  17.980  0.00  0.00    +0.000 C 
ATOM     11  N   UNL     1      -2.221  12.625  18.913  0.00  0.00    +0.000 N 
ATOM     12  H   UNL     1      -4.267  12.724  17.719  0.00  0.00    +0.000 HD
ATOM     13  H   UNL     1      -2.556  13.578  18.851  0.00  0.00    +0.000 HD
ATOM     14  H   UNL     1      -1.225  12.559  19.096  0.00  0.00    +0.000 HD
ENDBRANCH   8  10
ENDBRANCH   7   8
ENDBRANCH   1   7
BRANCH   4  15
ATOM     15  C   UNL     1       3.354   6.206  19.774  0.00  0.00    +0.000 C 
BRANCH  15  16
ATOM     16  N   UNL     1       3.770   5.162  18.859  0.00  0.00    +0.000 N 
ATOM     17  C   UNL     1       3.020   3.977  18.905  0.00  0.00    +0.000 C 
ATOM     18  O   UNL     1       2.003   3.736  19.525  0.00  0.00    +0.000 OA
ATOM     19  C   UNL     1       3.653   3.029  17.889  0.00  0.00    +0.000 C 
ATOM     20  O   UNL     1       3.471   1.833  17.780  0.00  0.00    +0.000 OA
ATOM     21  C   UNL     1       4.520   3.861  17.083  0.00  0.00    +0.000 A 
ATOM     22  C   UNL     1       5.123   3.496  15.889  0.00  0.00    +0.000 A 
ATOM     23  C   UNL     1       5.709   4.517  15.171  0.00  0.00    +0.000 A 
ATOM     24 CL   UNL     1       6.371   4.183  13.619  0.00  0.00    +0.000 Cl
ATOM     25  C   UNL     1       5.709   5.836  15.686  0.00  0.00    +0.000 A 
ATOM     26  C   UNL     1       5.141   6.158  16.940  0.00  0.00    +0.000 A 
ATOM     27  C   UNL     1       4.522   5.151  17.657  0.00  0.00    +0.000 A 
ENDBRANCH  15  16
ENDBRANCH   4  15
TORSDOF 5
ENDMDL
MODEL 4
REMARK VINA RESULT:      -7.6      4.923      8.458
REMARK  Name = 
REMARK  5 active torsions:
REMARK  status: ('A' for Active; 'I' for Inactive)
REMARK    1  A    between atoms: C_2  and  S_4
REMARK    2  A    between atoms: S_4  and  C_5
REMARK    3  A    between atoms: C_5  and  C_6
REMARK    4  A    between atoms: C_9  and  C_10
REMARK    5  A    between atoms: C_10  and  N_11
REMARK                            x       y       z     vdW  Elec       q    Type
REMARK                         _______ _______ _______ _____ _____    ______ ____
ROOT
ATOM      1  C   UNL     1       2.378   5.633  19.657  0.00  0.00    +0.000 A 
ATOM      2  C   UNL     1       1.853   6.616  20.509  0.00  0.00    +0.000 A 
ATOM      3  C   UNL     1       1.657   7.937  20.071  0.00  0.00    +0.000 A 
ATOM      4  C   UNL     1       1.985   8.337  18.768  0.00  0.00    +0.000 A 
ATOM      5  C   UNL     1       2.477   7.345  17.900  0.00  0.00    +0.000 A 
ATOM      6  C   UNL     1       2.669   6.015  18.338  0.00  0.00    +0.000 A 
ENDROOT
BRANCH   1   7
ATOM      7  C   UNL     1       2.702   4.236  20.171  0.00  0.00    +0.000 C 
BRANCH   7   8
ATOM      8  S   UNL     1       4.001   3.368  19.241  0.00  0.00    +0.000 S 
BRANCH   8  10
ATOM      9  N   UNL     1       1.885   1.839  18.749  0.00  0.00    +0.000 NA
ATOM     10  C   UNL     1       3.166   1.921  18.737  0.00  0.00    +0.000 C 
ATOM     11  N   UNL     1       3.973   0.903  18.356  0.00  0.00    +0.000 N 
ATOM     12  H   UNL     1       1.603   0.921  18.392  0.00  0.00    +0.000 HD
ATOM     13  H   UNL     1       3.608  -0.036  18.452  0.00  0.00    +0.000 HD
ATOM     14  H   UNL     1       4.934   0.995  18.670  0.00  0.00    +0.000 HD
ENDBRANCH   8  10
ENDBRANCH   7   8
ENDBRANCH   1   7
BRANCH   4  15
ATOM     15  C   UNL     1       1.556   9.705  18.275  0.00  0.00    +0.000 C 
BRANCH  15  16
ATOM     16  N   UNL     1       0.365  10.408  18.710  0.00  0.00    +0.000 N 
ATOM     17  C   UNL     1       0.585  11.547  19.499  0.00  0.00    +0.000 C 
ATOM     18  O   UNL     1       1.631  12.096  19.783  0.00  0.00    +0.000 OA
ATOM     19  C   UNL     1      -0.797  12.095  19.854  0.00  0.00    +0.000 C 
ATOM     20  O   UNL     1      -1.070  12.916  20.705  0.00  0.00    +0.000 OA
ATOM     21  C   UNL     1      -1.713  11.422  18.959  0.00  0.00    +0.000 A 
ATOM     22  C   UNL     1      -3.040  11.760  18.742  0.00  0.00    +0.000 A 
ATOM     23  C   UNL     1      -3.656  11.140  17.676  0.00  0.00    +0.000 A 
ATOM     24 CL   UNL     1      -5.261  11.590  17.253  0.00  0.00    +0.000 Cl
ATOM     25  C   UNL     1      -2.947  10.187  16.905  0.00  0.00    +0.000 A 
ATOM     26  C   UNL     1      -1.613   9.820  17.196  0.00  0.00    +0.000 A 
ATOM     27  C   UNL     1      -0.972  10.456  18.243  0.00  0.00    +0.000 A 
ENDBRANCH  15  16
ENDBRANCH   4  15
TORSDOF 5
ENDMDL
MODEL 5
REMARK VINA RESULT:      -7.6      1.227      1.445
REMARK  Name = 
REMARK  5 active torsions:
REMARK  status: ('A' for Active; 'I' for Inactive)
REMARK    1  A    between atoms: C_2  and  S_4
REMARK    2  A    between atoms: S_4  and  C_5
REMARK    3  A    between atoms: C_5  and  C_6
REMARK    4  A    between atoms: C_9  and  C_10
REMARK    5  A    between atoms: C_10  and  N_11
REMARK                            x       y       z     vdW  Elec       q    Type
REMARK                         _______ _______ _______ _____ _____    ______ ____
ROOT
ATOM      1  C   UNL     1       0.757   9.818  19.896  0.00  0.00    +0.000 A 
ATOM      2  C   UNL     1       0.668   9.011  21.041  0.00  0.00    +0.000 A 
ATOM      3  C   UNL     1       1.273   7.743  21.094  0.00  0.00    +0.000 A 
ATOM      4  C   UNL     1       1.985   7.222  20.004  0.00  0.00    +0.000 A 
ATOM      5  C   UNL     1       2.108   8.043  18.868  0.00  0.00    +0.000 A 
ATOM      6  C   UNL     1       1.504   9.320  18.817  0.00  0.00    +0.000 A 
ENDROOT
BRANCH   1   7
ATOM      7  C   UNL     1      -0.002  11.136  19.800  0.00  0.00    +0.000 C 
BRANCH   7   8
ATOM      8  S   UNL     1       0.917  12.482  18.993  0.00  0.00    +0.000 S 
BRANCH   8  10
ATOM      9  N   UNL     1      -0.577  14.649  18.633  0.00  0.00    +0.000 NA
ATOM     10  C   UNL     1      -0.378  13.425  18.301  0.00  0.00    +0.000 C 
ATOM     11  N   UNL     1      -1.152  12.760  17.411  0.00  0.00    +0.000 N 
ATOM     12  H   UNL     1      -1.364  15.021  18.093  0.00  0.00    +0.000 HD
ATOM     13  H   UNL     1      -2.105  13.082  17.299  0.00  0.00    +0.000 HD
ATOM     14  H   UNL     1      -1.072  11.750  17.466  0.00  0.00    +0.000 HD
ENDBRANCH   8  10
ENDBRANCH   7   8
ENDBRANCH   1   7
BRANCH   4  15
ATOM     15  C   UNL     1       2.800   5.956  20.181  0.00  0.00    +0.000 C 
BRANCH  15  16
ATOM     16  N   UNL     1       3.201   5.070  19.106  0.00  0.00    +0.000 N 
ATOM     17  C   UNL     1       2.283   4.064  18.772  0.00  0.00    +0.000 C 
ATOM     18  O   UNL     1       1.151   3.890  19.178  0.00  0.00    +0.000 OA
ATOM     19  C   UNL     1       2.928   3.251  17.650  0.00  0.00    +0.000 C 
ATOM     20  O   UNL     1       2.588   2.161  17.238  0.00  0.00    +0.000 OA
ATOM     21  C   UNL     1       4.035   4.059  17.185  0.00  0.00    +0.000 A 
ATOM     22  C   UNL     1       4.769   3.849  16.027  0.00  0.00    +0.000 A 
ATOM     23  C   UNL     1       5.616   4.872  15.656  0.00  0.00    +0.000 A 
ATOM     24 CL   UNL     1       6.472   4.757  14.169  0.00  0.00    +0.000 Cl
ATOM     25  C   UNL     1       5.729   6.028  16.465  0.00  0.00    +0.000 A 
ATOM     26  C   UNL     1       5.012   6.177  17.675  0.00  0.00    +0.000 A 
ATOM     27  C   UNL     1       4.135   5.174  18.045  0.00  0.00    +0.000 A 
ENDBRANCH  15  16
ENDBRANCH   4  15
TORSDOF 5
ENDMDL
MODEL 6
REMARK VINA RESULT:      -7.6      1.731      2.243
REMARK  Name = 
REMARK  5 active torsions:
REMARK  status: ('A' for Active; 'I' for Inactive)
REMARK    1  A    between atoms: C_2  and  S_4
REMARK    2  A    between atoms: S_4  and  C_5
REMARK    3  A    between atoms: C_5  and  C_6
REMARK    4  A    between atoms: C_9  and  C_10
REMARK    5  A    between atoms: C_10  and  N_11
REMARK                            x       y       z     vdW  Elec       q    Type
REMARK                         _______ _______ _______ _____ _____    ______ ____
ROOT
ATOM      1  C   UNL     1       0.860   9.959  19.021  0.00  0.00    +0.000 A 
ATOM      2  C   UNL     1       1.509   9.181  18.052  0.00  0.00    +0.000 A 
ATOM      3  C   UNL     1       2.137   7.968  18.386  0.00  0.00    +0.000 A 
ATOM      4  C   UNL     1       2.150   7.484  19.702  0.00  0.00    +0.000 A 
ATOM      5  C   UNL     1       1.468   8.244  20.669  0.00  0.00    +0.000 A 
ATOM      6  C   UNL     1       0.833   9.461  20.333  0.00  0.00    +0.000 A 
ENDROOT
BRANCH   1   7
ATOM      7  C   UNL     1       0.289  11.330  18.677  0.00  0.00    +0.000 C 
BRANCH   7   8
ATOM      8  S   UNL     1       1.016  12.710  19.612  0.00  0.00    +0.000 S 
BRANCH   8  10
ATOM      9  N   UNL     1       2.296  14.714  18.427  0.00  0.00    +0.000 NA
ATOM     10  C   UNL     1       2.028  13.458  18.404  0.00  0.00    +0.000 C 
ATOM     11  N   UNL     1       2.485  12.618  17.446  0.00  0.00    +0.000 N 
ATOM     12  H   UNL     1       2.924  14.939  17.649  0.00  0.00    +0.000 HD
ATOM     13  H   UNL     1       2.707  13.022  16.545  0.00  0.00    +0.000 HD
ATOM     14  H   UNL     1       1.971  11.745  17.380  0.00  0.00    +0.000 HD
ENDBRANCH   8  10
ENDBRANCH   7   8
ENDBRANCH   1   7
BRANCH   4  15
ATOM     15  C   UNL     1       2.643   6.077  19.976  0.00  0.00    +0.000 C 
BRANCH  15  16
ATOM     16  N   UNL     1       3.132   5.158  18.968  0.00  0.00    +0.000 N 
ATOM     17  C   UNL     1       2.267   4.105  18.633  0.00  0.00    +0.000 C 
ATOM     18  O   UNL     1       1.121   3.910  18.986  0.00  0.00    +0.000 OA
ATOM     19  C   UNL     1       2.999   3.265  17.588  0.00  0.00    +0.000 C 
ATOM     20  O   UNL     1       2.718   2.146  17.210  0.00  0.00    +0.000 OA
ATOM     21  C   UNL     1       4.102   4.089  17.145  0.00  0.00    +0.000 A 
ATOM     22  C   UNL     1       4.905   3.853  16.039  0.00  0.00    +0.000 A 
ATOM     23  C   UNL     1       5.738   4.886  15.665  0.00  0.00    +0.000 A 
ATOM     24 CL   UNL     1       6.678   4.734  14.233  0.00  0.00    +0.000 Cl
ATOM     25  C   UNL     1       5.768   6.082  16.423  0.00  0.00    +0.000 A 
ATOM     26  C   UNL     1       4.981   6.261  17.584  0.00  0.00    +0.000 A 
ATOM     27  C   UNL     1       4.119   5.246  17.954  0.00  0.00    +0.000 A 
ENDBRANCH  15  16
ENDBRANCH   4  15
TORSDOF 5
ENDMDL
MODEL 7
REMARK VINA RESULT:      -7.6      4.864      8.651
REMARK  Name = 
REMARK  5 active torsions:
REMARK  status: ('A' for Active; 'I' for Inactive)
REMARK    1  A    between atoms: C_2  and  S_4
REMARK    2  A    between atoms: S_4  and  C_5
REMARK    3  A    between atoms: C_5  and  C_6
REMARK    4  A    between atoms: C_9  and  C_10
REMARK    5  A    between atoms: C_10  and  N_11
REMARK                            x       y       z     vdW  Elec       q    Type
REMARK                         _______ _______ _______ _____ _____    ______ ____
ROOT
ATOM      1  C   UNL     1       3.327   6.034  19.140  0.00  0.00    +0.000 A 
ATOM      2  C   UNL     1       3.611   6.663  17.919  0.00  0.00    +0.000 A 
ATOM      3  C   UNL     1       2.983   7.865  17.549  0.00  0.00    +0.000 A 
ATOM      4  C   UNL     1       2.039   8.486  18.378  0.00  0.00    +0.000 A 
ATOM      5  C   UNL     1       1.778   7.878  19.620  0.00  0.00    +0.000 A 
ATOM      6  C   UNL     1       2.413   6.672  19.993  0.00  0.00    +0.000 A 
ENDROOT
BRANCH   1   7
ATOM      7  C   UNL     1       3.917   4.670  19.480  0.00  0.00    +0.000 C 
BRANCH   7   8
ATOM      8  S   UNL     1       3.735   3.418  18.174  0.00  0.00    +0.000 S 
BRANCH   8  10
ATOM      9  N   UNL     1       4.911   2.007  20.093  0.00  0.00    +0.000 NA
ATOM     10  C   UNL     1       4.225   1.966  19.009  0.00  0.00    +0.000 C 
ATOM     11  N   UNL     1       3.840   0.812  18.415  0.00  0.00    +0.000 N 
ATOM     12  H   UNL     1       5.067   1.052  20.429  0.00  0.00    +0.000 HD
ATOM     13  H   UNL     1       4.406  -0.008  18.591  0.00  0.00    +0.000 HD
ATOM     14  H   UNL     1       3.573   0.916  17.441  0.00  0.00    +0.000 HD
ENDBRANCH   8  10
ENDBRANCH   7   8
ENDBRANCH   1   7
BRANCH   4  15
ATOM     15  C   UNL     1       1.554   9.883  18.043  0.00  0.00    +0.000 C 
BRANCH  15  16
ATOM     16  N   UNL     1       0.348  10.492  18.569  0.00  0.00    +0.000 N 
ATOM     17  C   UNL     1       0.541  11.603  19.404  0.00  0.00    +0.000 C 
ATOM     18  O   UNL     1       1.567  12.197  19.667  0.00  0.00    +0.000 OA
ATOM     19  C   UNL     1      -0.850  12.049  19.851  0.00  0.00    +0.000 C 
ATOM     20  O   UNL     1      -1.126  12.810  20.756  0.00  0.00    +0.000 OA
ATOM     21  C   UNL     1      -1.769  11.367  18.966  0.00  0.00    +0.000 A 
ATOM     22  C   UNL     1      -3.123  11.637  18.830  0.00  0.00    +0.000 A 
ATOM     23  C   UNL     1      -3.755  11.034  17.763  0.00  0.00    +0.000 A 
ATOM     24 CL   UNL     1      -5.402  11.407  17.439  0.00  0.00    +0.000 Cl
ATOM     25  C   UNL     1      -3.032  10.164  16.911  0.00  0.00    +0.000 A 
ATOM     26  C   UNL     1      -1.666   9.862  17.121  0.00  0.00    +0.000 A 
ATOM     27  C   UNL     1      -1.012  10.483  18.168  0.00  0.00    +0.000 A 
ENDBRANCH  15  16
ENDBRANCH   4  15
TORSDOF 5
ENDMDL
MODEL 8
REMARK VINA RESULT:      -7.5      1.142      1.536
REMARK  Name = 
REMARK  5 active torsions:
REMARK  status: ('A' for Active; 'I' for Inactive)
REMARK    1  A    between atoms: C_2  and  S_4
REMARK    2  A    between atoms: S_4  and  C_5
REMARK    3  A    between atoms: C_5  and  C_6
REMARK    4  A    between atoms: C_9  and  C_10
REMARK    5  A    between atoms: C_10  and  N_11
REMARK                            x       y       z     vdW  Elec       q    Type
REMARK                         _______ _______ _______ _____ _____    ______ ____
ROOT
ATOM      1  C   UNL     1       0.751   9.877  19.103  0.00  0.00    +0.000 A 
ATOM      2  C   UNL     1       1.477   9.186  18.122  0.00  0.00    +0.000 A 
ATOM      3  C   UNL     1       2.184   8.009  18.425  0.00  0.00    +0.000 A 
ATOM      4  C   UNL     1       2.204   7.477  19.722  0.00  0.00    +0.000 A 
ATOM      5  C   UNL     1       1.447   8.146  20.701  0.00  0.00    +0.000 A 
ATOM      6  C   UNL     1       0.732   9.327  20.395  0.00  0.00    +0.000 A 
ENDROOT
BRANCH   1   7
ATOM      7  C   UNL     1       0.089  11.215  18.798  0.00  0.00    +0.000 C 
BRANCH   7   8
ATOM      8  S   UNL     1      -1.588  11.090  18.104  0.00  0.00    +0.000 S 
BRANCH   8  10
ATOM      9  N   UNL     1      -2.018  12.411  20.369  0.00  0.00    +0.000 NA
ATOM     10  C   UNL     1      -2.511  12.036  19.243  0.00  0.00    +0.000 C 
ATOM     11  N   UNL     1      -3.774  12.323  18.852  0.00  0.00    +0.000 N 
ATOM     12  H   UNL     1      -2.713  12.974  20.869  0.00  0.00    +0.000 HD
ATOM     13  H   UNL     1      -4.457  12.486  19.581  0.00  0.00    +0.000 HD
ATOM     14  H   UNL     1      -4.120  11.732  18.102  0.00  0.00    +0.000 HD
ENDBRANCH   8  10
ENDBRANCH   7   8
ENDBRANCH   1   7
BRANCH   4  15
ATOM     15  C   UNL     1       2.792   6.099  19.955  0.00  0.00    +0.000 C 
BRANCH  15  16
ATOM     16  N   UNL     1       3.207   5.185  18.909  0.00  0.00    +0.000 N 
ATOM     17  C   UNL     1       2.259   4.222  18.531  0.00  0.00    +0.000 C 
ATOM     18  O   UNL     1       1.100   4.108  18.877  0.00  0.00    +0.000 OA
ATOM     19  C   UNL     1       2.922   3.369  17.451  0.00  0.00    +0.000 C 
ATOM     20  O   UNL     1       2.551   2.294  17.028  0.00  0.00    +0.000 OA
ATOM     21  C   UNL     1       4.091   4.118  17.042  0.00  0.00    +0.000 A 
ATOM     22  C   UNL     1       4.875   3.862  15.927  0.00  0.00    +0.000 A 
ATOM     23  C   UNL     1       5.790   4.839  15.596  0.00  0.00    +0.000 A 
ATOM     24 CL   UNL     1       6.719   4.670  14.158  0.00  0.00    +0.000 Cl
ATOM     25  C   UNL     1       5.917   5.995  16.403  0.00  0.00    +0.000 A 
ATOM     26  C   UNL     1       5.144   6.190  17.572  0.00  0.00    +0.000 A 
ATOM     27  C   UNL     1       4.200   5.234  17.899  0.00  0.00    +0.000 A 
ENDBRANCH  15  16
ENDBRANCH   4  15
TORSDOF 5
ENDMDL
MODEL 9
REMARK VINA RESULT:      -7.5      4.906      8.578
REMARK  Name = 
REMARK  5 active torsions:
REMARK  status: ('A' for Active; 'I' for Inactive)
REMARK    1  A    between atoms: C_2  and  S_4
REMARK    2  A    between atoms: S_4  and  C_5
REMARK    3  A    between atoms: C_5  and  C_6
REMARK    4  A    between atoms: C_9  and  C_10
REMARK    5  A    between atoms: C_10  and  N_11
REMARK                            x       y       z     vdW  Elec       q    Type
REMARK                         _______ _______ _______ _____ _____    ______ ____
ROOT
ATOM      1  C   UNL     1       2.334   6.048  19.822  0.00  0.00    +0.000 A 
ATOM      2  C   UNL     1       1.752   7.054  20.608  0.00  0.00    +0.000 A 
ATOM      3  C   UNL     1       1.512   8.340  20.094  0.00  0.00    +0.000 A 
ATOM      4  C   UNL     1       1.851   8.680  18.776  0.00  0.00    +0.000 A 
ATOM      5  C   UNL     1       2.400   7.664  17.974  0.00  0.00    +0.000 A 
ATOM      6  C   UNL     1       2.637   6.369  18.489  0.00  0.00    +0.000 A 
ENDROOT
BRANCH   1   7
ATOM      7  C   UNL     1       2.703   4.696  20.420  0.00  0.00    +0.000 C 
BRANCH   7   8
ATOM      8  S   UNL     1       2.581   3.297  19.263  0.00  0.00    +0.000 S 
BRANCH   8  10
ATOM      9  N   UNL     1       4.921   2.214  19.904  0.00  0.00    +0.000 NA
ATOM     10  C   UNL     1       4.261   2.886  19.031  0.00  0.00    +0.000 C 
ATOM     11  N   UNL     1       4.803   3.343  17.878  0.00  0.00    +0.000 N 
ATOM     12  H   UNL     1       5.873   2.061  19.561  0.00  0.00    +0.000 HD
ATOM     13  H   UNL     1       5.803   3.502  17.871  0.00  0.00    +0.000 HD
ATOM     14  H   UNL     1       4.274   4.089  17.438  0.00  0.00    +0.000 HD
ENDBRANCH   8  10
ENDBRANCH   7   8
ENDBRANCH   1   7
BRANCH   4  15
ATOM     15  C   UNL     1       1.377  10.001  18.200  0.00  0.00    +0.000 C 
BRANCH  15  16
ATOM     16  N   UNL     1       0.180  10.705  18.614  0.00  0.00    +0.000 N 
ATOM     17  C   UNL     1       0.387  11.953  19.222  0.00  0.00    +0.000 C 
ATOM     18  O   UNL     1       1.419  12.580  19.356  0.00  0.00    +0.000 OA
ATOM     19  C   UNL     1      -0.996  12.484  19.592  0.00  0.00    +0.000 C 
ATOM     20  O   UNL     1      -1.259  13.404  20.338  0.00  0.00    +0.000 OA
ATOM     21  C   UNL     1      -1.929  11.653  18.862  0.00  0.00    +0.000 A 
ATOM     22  C   UNL     1      -3.283  11.900  18.692  0.00  0.00    +0.000 A 
ATOM     23  C   UNL     1      -3.930  11.109  17.766  0.00  0.00    +0.000 A 
ATOM     24 CL   UNL     1      -5.579  11.425  17.395  0.00  0.00    +0.000 Cl
ATOM     25  C   UNL     1      -3.221  10.089  17.086  0.00  0.00    +0.000 A 
ATOM     26  C   UNL     1      -1.854   9.825  17.334  0.00  0.00    +0.000 A 
ATOM     27  C   UNL     1      -1.184  10.629  18.237  0.00  0.00    +0.000 A 
ENDBRANCH  15  16
ENDBRANCH   4  15
TORSDOF 5
ENDMDL
