MODEL 1
REMARK VINA RESULT:      -7.5      0.000      0.000
REMARK  Name = 
REMARK  4 active torsions:
REMARK  status: ('A' for Active; 'I' for Inactive)
REMARK    1  A    between atoms: C_1  and  N_2
REMARK    2  A    between atoms: C_3  and  C_4
REMARK    3  A    between atoms: N_14  and  C_15
REMARK    4  A    between atoms: C_15  and  C_16
REMARK                            x       y       z     vdW  Elec       q    Type
REMARK                         _______ _______ _______ _____ _____    ______ ____
ROOT
ATOM      1  C   UNL     1       0.707   8.455  21.314  0.00  0.00    +0.000 C 
ATOM      2  N   UNL     1       1.206   8.708  19.983  0.00  0.00    +0.000 N 
ATOM      3  C   UNL     1       0.762   9.656  19.072  0.00  0.00    +0.000 A 
ATOM      4  C   UNL     1       1.455   9.325  17.918  0.00  0.00    +0.000 A 
ATOM      5  N   UNL     1       2.292   8.258  18.102  0.00  0.00    +0.000 NA
ATOM      6  C   UNL     1       2.160   7.921  19.361  0.00  0.00    +0.000 A 
ATOM      7  N   UNL     1       2.823   6.941  20.012  0.00  0.00    +0.000 N 
ATOM      8  H   UNL     1       2.741   6.786  21.007  0.00  0.00    +0.000 HD
ENDROOT
BRANCH   3   9
ATOM      9  C   UNL     1      -0.244  10.711  19.275  0.00  0.00    +0.000 A 
ATOM     10  C   UNL     1       0.079  11.849  20.033  0.00  0.00    +0.000 A 
ATOM     11  C   UNL     1      -0.851  12.875  20.238  0.00  0.00    +0.000 A 
ATOM     12  C   UNL     1      -2.120  12.786  19.677  0.00  0.00    +0.000 A 
ATOM     13  C   UNL     1      -2.458  11.657  18.937  0.00  0.00    +0.000 A 
ATOM     14 BR   UNL     1      -4.169  11.542  18.137  0.00  0.00    +0.000 Br
ATOM     15  C   UNL     1      -1.542  10.615  18.760  0.00  0.00    +0.000 A 
ENDBRANCH   3   9
BRANCH   7  16
ATOM     16  C   UNL     1       3.378   5.828  19.263  0.00  0.00    +0.000 C 
BRANCH  16  17
ATOM     17  C   UNL     1       2.535   4.585  19.417  0.00  0.00    +0.000 A 
ATOM     18  C   UNL     1       2.057   3.912  18.280  0.00  0.00    +0.000 A 
ATOM     19  C   UNL     1       1.209   2.808  18.403  0.00  0.00    +0.000 A 
ATOM     20  C   UNL     1       0.829   2.361  19.666  0.00  0.00    +0.000 A 
ATOM     21  C   UNL     1       1.307   3.018  20.794  0.00  0.00    +0.000 A 
ATOM     22  F   UNL     1       0.936   2.595  22.010  0.00  0.00    +0.000 F 
ATOM     23  C   UNL     1       2.153   4.120  20.683  0.00  0.00    +0.000 A 
ENDBRANCH  16  17
ENDBRANCH   7  16
TORSDOF 3
ENDMDL
MODEL 2
REMARK VINA RESULT:      -7.4      1.202      1.521
REMARK  Name = 
REMARK  4 active torsions:
REMARK  status: ('A' for Active; 'I' for Inactive)
REMARK    1  A    between atoms: C_1  and  N_2
REMARK    2  A    between atoms: C_3  and  C_4
REMARK    3  A    between atoms: N_14  and  C_15
REMARK    4  A    between atoms: C_15  and  C_16
REMARK                            x       y       z     vdW  Elec       q    Type
REMARK                         _______ _______ _______ _____ _____    ______ ____
ROOT
ATOM      1  C   UNL     1       0.231   8.409  21.312  0.00  0.00    +0.000 C 
ATOM      2  N   UNL     1       0.851   8.787  20.063  0.00  0.00    +0.000 N 
ATOM      3  C   UNL     1       0.437   9.762  19.168  0.00  0.00    +0.000 A 
ATOM      4  C   UNL     1       1.275   9.561  18.082  0.00  0.00    +0.000 A 
ATOM      5  N   UNL     1       2.166   8.544  18.294  0.00  0.00    +0.000 NA
ATOM      6  C   UNL     1       1.924   8.113  19.508  0.00  0.00    +0.000 A 
ATOM      7  N   UNL     1       2.586   7.139  20.169  0.00  0.00    +0.000 N 
ATOM      8  H   UNL     1       2.408   6.911  21.137  0.00  0.00    +0.000 HD
ENDROOT
BRANCH   3   9
ATOM      9  C   UNL     1      -0.663  10.728  19.319  0.00  0.00    +0.000 A 
ATOM     10  C   UNL     1      -0.563  11.759  20.268  0.00  0.00    +0.000 A 
ATOM     11  C   UNL     1      -1.587  12.699  20.432  0.00  0.00    +0.000 A 
ATOM     12  C   UNL     1      -2.726  12.632  19.637  0.00  0.00    +0.000 A 
ATOM     13  C   UNL     1      -2.844  11.608  18.703  0.00  0.00    +0.000 A 
ATOM     14 BR   UNL     1      -4.373  11.530  17.590  0.00  0.00    +0.000 Br
ATOM     15  C   UNL     1      -1.839  10.647  18.563  0.00  0.00    +0.000 A 
ENDBRANCH   3   9
BRANCH   7  16
ATOM     16  C   UNL     1       3.303   6.121  19.422  0.00  0.00    +0.000 C 
BRANCH  16  17
ATOM     17  C   UNL     1       2.488   4.858  19.289  0.00  0.00    +0.000 A 
ATOM     18  C   UNL     1       1.511   4.544  20.249  0.00  0.00    +0.000 A 
ATOM     19  C   UNL     1       0.805   3.339  20.187  0.00  0.00    +0.000 A 
ATOM     20  C   UNL     1       1.065   2.433  19.161  0.00  0.00    +0.000 A 
ATOM     21  C   UNL     1       2.024   2.744  18.204  0.00  0.00    +0.000 A 
ATOM     22  F   UNL     1       2.281   1.870  17.221  0.00  0.00    +0.000 F 
ATOM     23  C   UNL     1       2.734   3.942  18.256  0.00  0.00    +0.000 A 
ENDBRANCH  16  17
ENDBRANCH   7  16
TORSDOF 3
ENDMDL
MODEL 3
REMARK VINA RESULT:      -7.4      1.307      1.654
REMARK  Name = 
REMARK  4 active torsions:
REMARK  status: ('A' for Active; 'I' for Inactive)
REMARK    1  A    between atoms: C_1  and  N_2
REMARK    2  A    between atoms: C_3  and  C_4
REMARK    3  A    between atoms: N_14  and  C_15
REMARK    4  A    between atoms: C_15  and  C_16
REMARK                            x       y       z     vdW  Elec       q    Type
REMARK                         _______ _______ _______ _____ _____    ______ ____
ROOT
ATOM      1  C   UNL     1       0.991   8.449  21.377  0.00  0.00    +0.000 C 
ATOM      2  N   UNL     1       1.353   8.710  20.003  0.00  0.00    +0.000 N 
ATOM      3  C   UNL     1       0.844   9.686  19.159  0.00  0.00    +0.000 A 
ATOM      4  C   UNL     1       1.399   9.355  17.933  0.00  0.00    +0.000 A 
ATOM      5  N   UNL     1       2.216   8.260  18.011  0.00  0.00    +0.000 NA
ATOM      6  C   UNL     1       2.209   7.905  19.272  0.00  0.00    +0.000 A 
ATOM      7  N   UNL     1       2.907   6.895  19.834  0.00  0.00    +0.000 N 
ATOM      8  H   UNL     1       2.927   6.726  20.830  0.00  0.00    +0.000 HD
ENDROOT
BRANCH   3   9
ATOM      9  C   UNL     1      -0.101  10.767  19.484  0.00  0.00    +0.000 A 
ATOM     10  C   UNL     1      -1.334  10.842  18.815  0.00  0.00    +0.000 A 
ATOM     11  C   UNL     1      -2.259  11.851  19.105  0.00  0.00    +0.000 A 
ATOM     12  C   UNL     1      -1.971  12.799  20.081  0.00  0.00    +0.000 A 
ATOM     13  C   UNL     1      -0.748  12.745  20.740  0.00  0.00    +0.000 A 
ATOM     14 BR   UNL     1      -0.361  14.007  22.097  0.00  0.00    +0.000 Br
ATOM     15  C   UNL     1       0.192  11.759  20.427  0.00  0.00    +0.000 A 
ENDBRANCH   3   9
BRANCH   7  16
ATOM     16  C   UNL     1       3.343   5.779  19.015  0.00  0.00    +0.000 C 
BRANCH  16  17
ATOM     17  C   UNL     1       2.490   4.556  19.249  0.00  0.00    +0.000 A 
ATOM     18  C   UNL     1       1.900   3.889  18.163  0.00  0.00    +0.000 A 
ATOM     19  C   UNL     1       1.042   2.804  18.367  0.00  0.00    +0.000 A 
ATOM     20  C   UNL     1       0.765   2.371  19.662  0.00  0.00    +0.000 A 
ATOM     21  C   UNL     1       1.354   3.023  20.738  0.00  0.00    +0.000 A 
ATOM     22  F   UNL     1       1.082   2.613  21.985  0.00  0.00    +0.000 F 
ATOM     23  C   UNL     1       2.211   4.105  20.547  0.00  0.00    +0.000 A 
ENDBRANCH  16  17
ENDBRANCH   7  16
TORSDOF 3
ENDMDL
MODEL 4
REMARK VINA RESULT:      -7.4      6.001      7.798
REMARK  Name = 
REMARK  4 active torsions:
REMARK  status: ('A' for Active; 'I' for Inactive)
REMARK    1  A    between atoms: C_1  and  N_2
REMARK    2  A    between atoms: C_3  and  C_4
REMARK    3  A    between atoms: N_14  and  C_15
REMARK    4  A    between atoms: C_15  and  C_16
REMARK                            x       y       z     vdW  Elec       q    Type
REMARK                         _______ _______ _______ _____ _____    ______ ____
ROOT
ATOM      1  C   UNL     1       4.560   3.217  17.093  0.00  0.00    +0.000 C 
ATOM      2  N   UNL     1       4.867   4.602  16.825  0.00  0.00    +0.000 N 
ATOM      3  C   UNL     1       4.334   5.727  17.437  0.00  0.00    +0.000 A 
ATOM      4  C   UNL     1       4.835   6.766  16.666  0.00  0.00    +0.000 A 
ATOM      5  N   UNL     1       5.644   6.320  15.656  0.00  0.00    +0.000 NA
ATOM      6  C   UNL     1       5.685   5.016  15.788  0.00  0.00    +0.000 A 
ATOM      7  N   UNL     1       6.395   4.148  15.036  0.00  0.00    +0.000 N 
ATOM      8  H   UNL     1       6.454   3.161  15.243  0.00  0.00    +0.000 HD
ENDROOT
BRANCH   3   9
ATOM      9  C   UNL     1       3.414   5.789  18.584  0.00  0.00    +0.000 A 
ATOM     10  C   UNL     1       2.793   7.004  18.918  0.00  0.00    +0.000 A 
ATOM     11  C   UNL     1       1.907   7.096  19.997  0.00  0.00    +0.000 A 
ATOM     12  C   UNL     1       1.615   5.968  20.755  0.00  0.00    +0.000 A 
ATOM     13  C   UNL     1       2.234   4.762  20.445  0.00  0.00    +0.000 A 
ATOM     14 BR   UNL     1       1.816   3.212  21.447  0.00  0.00    +0.000 Br
ATOM     15  C   UNL     1       3.147   4.676  19.389  0.00  0.00    +0.000 A 
ENDBRANCH   3   9
BRANCH   7  16
ATOM     16  C   UNL     1       6.786   4.516  13.688  0.00  0.00    +0.000 C 
BRANCH  16  17
ATOM     17  C   UNL     1       6.070   3.676  12.657  0.00  0.00    +0.000 A 
ATOM     18  C   UNL     1       4.766   4.012  12.257  0.00  0.00    +0.000 A 
ATOM     19  C   UNL     1       4.058   3.200  11.365  0.00  0.00    +0.000 A 
ATOM     20  C   UNL     1       4.647   2.043  10.861  0.00  0.00    +0.000 A 
ATOM     21  C   UNL     1       5.941   1.713  11.248  0.00  0.00    +0.000 A 
ATOM     22  F   UNL     1       6.506   0.595  10.770  0.00  0.00    +0.000 F 
ATOM     23  C   UNL     1       6.656   2.514  12.136  0.00  0.00    +0.000 A 
ENDBRANCH  16  17
ENDBRANCH   7  16
TORSDOF 3
ENDMDL
MODEL 5
REMARK VINA RESULT:      -7.3      1.860      2.302
REMARK  Name = 
REMARK  4 active torsions:
REMARK  status: ('A' for Active; 'I' for Inactive)
REMARK    1  A    between atoms: C_1  and  N_2
REMARK    2  A    between atoms: C_3  and  C_4
REMARK    3  A    between atoms: N_14  and  C_15
REMARK    4  A    between atoms: C_15  and  C_16
REMARK                            x       y       z     vdW  Elec       q    Type
REMARK                         _______ _______ _______ _____ _____    ______ ____
ROOT
ATOM      1  C   UNL     1       0.290   8.393  21.549  0.00  0.00    +0.000 C 
ATOM      2  N   UNL     1       0.845   8.931  20.329  0.00  0.00    +0.000 N 
ATOM      3  C   UNL     1       0.434  10.057  19.631  0.00  0.00    +0.000 A 
ATOM      4  C   UNL     1       1.179   9.986  18.463  0.00  0.00    +0.000 A 
ATOM      5  N   UNL     1       2.013   8.901  18.445  0.00  0.00    +0.000 NA
ATOM      6  C   UNL     1       1.829   8.296  19.592  0.00  0.00    +0.000 A 
ATOM      7  N   UNL     1       2.470   7.195  20.040  0.00  0.00    +0.000 N 
ATOM      8  H   UNL     1       2.346   6.826  20.972  0.00  0.00    +0.000 HD
ENDROOT
BRANCH   3   9
ATOM      9  C   UNL     1      -0.586  11.045  20.016  0.00  0.00    +0.000 A 
ATOM     10  C   UNL     1      -1.681  11.287  19.170  0.00  0.00    +0.000 A 
ATOM     11  C   UNL     1      -2.673  12.213  19.510  0.00  0.00    +0.000 A 
ATOM     12  C   UNL     1      -2.595  12.907  20.712  0.00  0.00    +0.000 A 
ATOM     13  C   UNL     1      -1.509  12.688  21.553  0.00  0.00    +0.000 A 
ATOM     14 BR   UNL     1      -1.411  13.598  23.210  0.00  0.00    +0.000 Br
ATOM     15  C   UNL     1      -0.498  11.789  21.199  0.00  0.00    +0.000 A 
ENDBRANCH   3   9
BRANCH   7  16
ATOM     16  C   UNL     1       3.063   6.272  19.090  0.00  0.00    +0.000 C 
BRANCH  16  17
ATOM     17  C   UNL     1       2.363   4.935  19.108  0.00  0.00    +0.000 A 
ATOM     18  C   UNL     1       1.511   4.600  20.173  0.00  0.00    +0.000 A 
ATOM     19  C   UNL     1       0.919   3.335  20.248  0.00  0.00    +0.000 A 
ATOM     20  C   UNL     1       1.169   2.391  19.256  0.00  0.00    +0.000 A 
ATOM     21  C   UNL     1       2.005   2.722  18.195  0.00  0.00    +0.000 A 
ATOM     22  F   UNL     1       2.254   1.812  17.244  0.00  0.00    +0.000 F 
ATOM     23  C   UNL     1       2.600   3.979  18.111  0.00  0.00    +0.000 A 
ENDBRANCH  16  17
ENDBRANCH   7  16
TORSDOF 3
ENDMDL
MODEL 6
REMARK VINA RESULT:      -7.3      2.687      3.416
REMARK  Name = 
REMARK  4 active torsions:
REMARK  status: ('A' for Active; 'I' for Inactive)
REMARK    1  A    between atoms: C_1  and  N_2
REMARK    2  A    between atoms: C_3  and  C_4
REMARK    3  A    between atoms: N_14  and  C_15
REMARK    4  A    between atoms: C_15  and  C_16
REMARK                            x       y       z     vdW  Elec       q    Type
REMARK                         _______ _______ _______ _____ _____    ______ ____
ROOT
ATOM      1  C   UNL     1       1.390   7.961  21.138  0.00  0.00    +0.000 C 
ATOM      2  N   UNL     1       1.841   8.049  19.769  0.00  0.00    +0.000 N 
ATOM      3  C   UNL     1       1.491   8.995  18.817  0.00  0.00    +0.000 A 
ATOM      4  C   UNL     1       2.055   8.489  17.656  0.00  0.00    +0.000 A 
ATOM      5  N   UNL     1       2.731   7.319  17.874  0.00  0.00    +0.000 NA
ATOM      6  C   UNL     1       2.626   7.087  19.160  0.00  0.00    +0.000 A 
ATOM      7  N   UNL     1       3.173   6.059  19.845  0.00  0.00    +0.000 N 
ATOM      8  H   UNL     1       3.128   5.983  20.851  0.00  0.00    +0.000 HD
ENDROOT
BRANCH   3   9
ATOM      9  C   UNL     1       0.669  10.203  18.993  0.00  0.00    +0.000 A 
ATOM     10  C   UNL     1       1.238  11.361  19.549  0.00  0.00    +0.000 A 
ATOM     11  C   UNL     1       0.487  12.529  19.722  0.00  0.00    +0.000 A 
ATOM     12  C   UNL     1      -0.847  12.564  19.331  0.00  0.00    +0.000 A 
ATOM     13  C   UNL     1      -1.427  11.420  18.793  0.00  0.00    +0.000 A 
ATOM     14 BR   UNL     1      -3.231  11.466  18.222  0.00  0.00    +0.000 Br
ATOM     15  C   UNL     1      -0.689  10.241  18.651  0.00  0.00    +0.000 A 
ENDBRANCH   3   9
BRANCH   7  16
ATOM     16  C   UNL     1       3.508   4.829  19.151  0.00  0.00    +0.000 C 
BRANCH  16  17
ATOM     17  C   UNL     1       4.882   4.901  18.533  0.00  0.00    +0.000 A 
ATOM     18  C   UNL     1       5.089   4.447  17.219  0.00  0.00    +0.000 A 
ATOM     19  C   UNL     1       6.371   4.429  16.660  0.00  0.00    +0.000 A 
ATOM     20  C   UNL     1       7.461   4.869  17.406  0.00  0.00    +0.000 A 
ATOM     21  C   UNL     1       7.259   5.328  18.703  0.00  0.00    +0.000 A 
ATOM     22  F   UNL     1       8.308   5.744  19.425  0.00  0.00    +0.000 F 
ATOM     23  C   UNL     1       5.987   5.349  19.271  0.00  0.00    +0.000 A 
ENDBRANCH  16  17
ENDBRANCH   7  16
TORSDOF 3
ENDMDL
MODEL 7
REMARK VINA RESULT:      -7.1      1.172      1.603
REMARK  Name = 
REMARK  4 active torsions:
REMARK  status: ('A' for Active; 'I' for Inactive)
REMARK    1  A    between atoms: C_1  and  N_2
REMARK    2  A    between atoms: C_3  and  C_4
REMARK    3  A    between atoms: N_14  and  C_15
REMARK    4  A    between atoms: C_15  and  C_16
REMARK                            x       y       z     vdW  Elec       q    Type
REMARK                         _______ _______ _______ _____ _____    ______ ____
ROOT
ATOM      1  C   UNL     1       0.663   8.989  21.715  0.00  0.00    +0.000 C 
ATOM      2  N   UNL     1       1.006   9.270  20.341  0.00  0.00    +0.000 N 
ATOM      3  C   UNL     1       0.561  10.318  19.549  0.00  0.00    +0.000 A 
ATOM      4  C   UNL     1       1.049   9.987  18.294  0.00  0.00    +0.000 A 
ATOM      5  N   UNL     1       1.769   8.823  18.308  0.00  0.00    +0.000 NA
ATOM      6  C   UNL     1       1.767   8.422  19.556  0.00  0.00    +0.000 A 
ATOM      7  N   UNL     1       2.389   7.334  20.059  0.00  0.00    +0.000 N 
ATOM      8  H   UNL     1       2.423   7.127  21.046  0.00  0.00    +0.000 HD
ENDROOT
BRANCH   3   9
ATOM      9  C   UNL     1      -0.275  11.463  19.941  0.00  0.00    +0.000 A 
ATOM     10  C   UNL     1       0.321  12.606  20.501  0.00  0.00    +0.000 A 
ATOM     11  C   UNL     1      -0.444  13.716  20.877  0.00  0.00    +0.000 A 
ATOM     12  C   UNL     1      -1.821  13.708  20.688  0.00  0.00    +0.000 A 
ATOM     13  C   UNL     1      -2.426  12.578  20.148  0.00  0.00    +0.000 A 
ATOM     14 BR   UNL     1      -4.295  12.570  19.852  0.00  0.00    +0.000 Br
ATOM     15  C   UNL     1      -1.669  11.454  19.805  0.00  0.00    +0.000 A 
ENDBRANCH   3   9
BRANCH   7  16
ATOM     16  C   UNL     1       2.702   6.217  19.187  0.00  0.00    +0.000 C 
BRANCH  16  17
ATOM     17  C   UNL     1       2.135   4.924  19.722  0.00  0.00    +0.000 A 
ATOM     18  C   UNL     1       2.365   4.552  21.057  0.00  0.00    +0.000 A 
ATOM     19  C   UNL     1       1.918   3.321  21.546  0.00  0.00    +0.000 A 
ATOM     20  C   UNL     1       1.232   2.447  20.706  0.00  0.00    +0.000 A 
ATOM     21  C   UNL     1       0.994   2.816  19.387  0.00  0.00    +0.000 A 
ATOM     22  F   UNL     1       0.341   1.973  18.575  0.00  0.00    +0.000 F 
ATOM     23  C   UNL     1       1.435   4.039  18.889  0.00  0.00    +0.000 A 
ENDBRANCH  16  17
ENDBRANCH   7  16
TORSDOF 3
ENDMDL
MODEL 8
REMARK VINA RESULT:      -7.1      2.973      3.854
REMARK  Name = 
REMARK  4 active torsions:
REMARK  status: ('A' for Active; 'I' for Inactive)
REMARK    1  A    between atoms: C_1  and  N_2
REMARK    2  A    between atoms: C_3  and  C_4
REMARK    3  A    between atoms: N_14  and  C_15
REMARK    4  A    between atoms: C_15  and  C_16
REMARK                            x       y       z     vdW  Elec       q    Type
REMARK                         _______ _______ _______ _____ _____    ______ ____
ROOT
ATOM      1  C   UNL     1       1.418   8.169  21.165  0.00  0.00    +0.000 C 
ATOM      2  N   UNL     1       1.835   8.160  19.782  0.00  0.00    +0.000 N 
ATOM      3  C   UNL     1       1.504   9.067  18.787  0.00  0.00    +0.000 A 
ATOM      4  C   UNL     1       2.012   8.471  17.643  0.00  0.00    +0.000 A 
ATOM      5  N   UNL     1       2.638   7.283  17.910  0.00  0.00    +0.000 NA
ATOM      6  C   UNL     1       2.557   7.128  19.209  0.00  0.00    +0.000 A 
ATOM      7  N   UNL     1       3.072   6.114  19.938  0.00  0.00    +0.000 N 
ATOM      8  H   UNL     1       3.051   6.095  20.947  0.00  0.00    +0.000 HD
ENDROOT
BRANCH   3   9
ATOM      9  C   UNL     1       0.746  10.322  18.915  0.00  0.00    +0.000 A 
ATOM     10  C   UNL     1      -0.656  10.286  18.997  0.00  0.00    +0.000 A 
ATOM     11  C   UNL     1      -1.408  11.460  19.127  0.00  0.00    +0.000 A 
ATOM     12  C   UNL     1      -0.767  12.692  19.193  0.00  0.00    +0.000 A 
ATOM     13  C   UNL     1       0.620  12.743  19.099  0.00  0.00    +0.000 A 
ATOM     14 BR   UNL     1       1.505  14.411  19.224  0.00  0.00    +0.000 Br
ATOM     15  C   UNL     1       1.370  11.575  18.932  0.00  0.00    +0.000 A 
ENDBRANCH   3   9
BRANCH   7  16
ATOM     16  C   UNL     1       3.329   4.833  19.307  0.00  0.00    +0.000 C 
BRANCH  16  17
ATOM     17  C   UNL     1       4.697   4.795  18.670  0.00  0.00    +0.000 A 
ATOM     18  C   UNL     1       5.797   5.372  19.327  0.00  0.00    +0.000 A 
ATOM     19  C   UNL     1       7.053   5.419  18.716  0.00  0.00    +0.000 A 
ATOM     20  C   UNL     1       7.227   4.886  17.441  0.00  0.00    +0.000 A 
ATOM     21  C   UNL     1       6.143   4.305  16.792  0.00  0.00    +0.000 A 
ATOM     22  F   UNL     1       6.307   3.799  15.562  0.00  0.00    +0.000 F 
ATOM     23  C   UNL     1       4.887   4.253  17.390  0.00  0.00    +0.000 A 
ENDBRANCH  16  17
ENDBRANCH   7  16
TORSDOF 3
ENDMDL
MODEL 9
REMARK VINA RESULT:      -7.1      1.723      2.378
REMARK  Name = 
REMARK  4 active torsions:
REMARK  status: ('A' for Active; 'I' for Inactive)
REMARK    1  A    between atoms: C_1  and  N_2
REMARK    2  A    between atoms: C_3  and  C_4
REMARK    3  A    between atoms: N_14  and  C_15
REMARK    4  A    between atoms: C_15  and  C_16
REMARK                            x       y       z     vdW  Elec       q    Type
REMARK                         _______ _______ _______ _____ _____    ______ ____
ROOT
ATOM      1  C   UNL     1       1.860   9.724  17.920  0.00  0.00    +0.000 C 
ATOM      2  N   UNL     1       1.452   9.176  19.192  0.00  0.00    +0.000 N 
ATOM      3  C   UNL     1       0.768   9.816  20.215  0.00  0.00    +0.000 A 
ATOM      4  C   UNL     1       0.820   8.892  21.248  0.00  0.00    +0.000 A 
ATOM      5  N   UNL     1       1.472   7.745  20.886  0.00  0.00    +0.000 NA
ATOM      6  C   UNL     1       1.814   7.915  19.632  0.00  0.00    +0.000 A 
ATOM      7  N   UNL     1       2.446   7.026  18.836  0.00  0.00    +0.000 N 
ATOM      8  H   UNL     1       2.605   7.183  17.851  0.00  0.00    +0.000 HD
ENDROOT
BRANCH   3   9
ATOM      9  C   UNL     1       0.188  11.168  20.215  0.00  0.00    +0.000 A 
ATOM     10  C   UNL     1      -1.050  11.398  19.590  0.00  0.00    +0.000 A 
ATOM     11  C   UNL     1      -1.634  12.670  19.578  0.00  0.00    +0.000 A 
ATOM     12  C   UNL     1      -0.996  13.734  20.204  0.00  0.00    +0.000 A 
ATOM     13  C   UNL     1       0.236  13.524  20.814  0.00  0.00    +0.000 A 
ATOM     14 BR   UNL     1       1.097  14.957  21.702  0.00  0.00    +0.000 Br
ATOM     15  C   UNL     1       0.839  12.262  20.796  0.00  0.00    +0.000 A 
ENDBRANCH   3   9
BRANCH   7  16
ATOM     16  C   UNL     1       3.266   5.985  19.429  0.00  0.00    +0.000 C 
BRANCH  16  17
ATOM     17  C   UNL     1       2.505   4.687  19.554  0.00  0.00    +0.000 A 
ATOM     18  C   UNL     1       2.047   4.025  18.402  0.00  0.00    +0.000 A 
ATOM     19  C   UNL     1       1.271   2.866  18.502  0.00  0.00    +0.000 A 
ATOM     20  C   UNL     1       0.946   2.353  19.755  0.00  0.00    +0.000 A 
ATOM     21  C   UNL     1       1.405   3.000  20.896  0.00  0.00    +0.000 A 
ATOM     22  F   UNL     1       1.086   2.512  22.103  0.00  0.00    +0.000 F 
ATOM     23  C   UNL     1       2.178   4.155  20.809  0.00  0.00    +0.000 A 
ENDBRANCH  16  17
ENDBRANCH   7  16
TORSDOF 3
ENDMDL
