MODEL 1
REMARK VINA RESULT:      -8.1      0.000      0.000
REMARK  Name = 
REMARK  5 active torsions:
REMARK  status: ('A' for Active; 'I' for Inactive)
REMARK    1  A    between atoms: S_2  and  N_4
REMARK    2  A    between atoms: S_2  and  C_19
REMARK    3  A    between atoms: N_4  and  C_5
REMARK    4  A    between atoms: C_9  and  S_10
REMARK    5  A    between atoms: S_10  and  N_13
REMARK                            x       y       z     vdW  Elec       q    Type
REMARK                         _______ _______ _______ _____ _____    ______ ____
ROOT
ATOM      1  C   UNL     1       3.066   6.223  19.626  0.00  0.00    +0.000 A 
ATOM      2  C   UNL     1       2.360   7.386  19.321  0.00  0.00    +0.000 A 
ATOM      3  C   UNL     1       2.588   8.051  18.115  0.00  0.00    +0.000 A 
ATOM      4  C   UNL     1       3.533   7.558  17.214  0.00  0.00    +0.000 A 
ATOM      5  C   UNL     1       4.252   6.399  17.526  0.00  0.00    +0.000 A 
ATOM      6  C   UNL     1       4.010   5.719  18.728  0.00  0.00    +0.000 A 
ENDROOT
BRANCH   5   7
ATOM      7  S   UNL     1       5.328   5.683  16.289  0.00  0.00    +0.000 S 
ATOM      8  O   UNL     1       5.007   4.273  16.241  0.00  0.00    +0.000 OA
ATOM      9  O   UNL     1       5.226   6.514  15.106  0.00  0.00    +0.000 OA
BRANCH   7  10
ATOM     10  N   UNL     1       6.889   5.853  16.878  0.00  0.00    +0.000 NA
ATOM     11  C   UNL     1       7.487   4.847  17.763  0.00  0.00    +0.000 C 
ATOM     12  C   UNL     1       7.722   5.590  19.061  0.00  0.00    +0.000 C 
ATOM     13  C   UNL     1       7.970   7.033  18.651  0.00  0.00    +0.000 C 
ATOM     14  C   UNL     1       7.414   7.179  17.238  0.00  0.00    +0.000 C 
ENDBRANCH   7  10
ENDBRANCH   5   7
BRANCH   1  15
ATOM     15  N   UNL     1       2.797   5.545  20.854  0.00  0.00    +0.000 N 
ATOM     16  H   UNL     1       2.415   6.144  21.585  0.00  0.00    +0.000 HD
BRANCH  15  18
ATOM     17  O   UNL     1       2.167   3.410  22.012  0.00  0.00    +0.000 OA
ATOM     18  S   UNL     1       1.848   4.130  20.798  0.00  0.00    +0.000 S 
ATOM     19  O   UNL     1       0.483   4.491  20.489  0.00  0.00    +0.000 OA
BRANCH  18  20
ATOM     20  C   UNL     1       2.437   3.071  19.494  0.00  0.00    +0.000 A 
ATOM     21  C   UNL     1       1.937   2.797  18.231  0.00  0.00    +0.000 A 
ATOM     22  C   UNL     1       2.711   1.822  17.533  0.00  0.00    +0.000 A 
ATOM     23  C   UNL     1       3.791   1.402  18.275  0.00  0.00    +0.000 A 
ATOM     24  S   UNL     1       3.896   2.216  19.775  0.00  0.00    +0.000 S 
ENDBRANCH  18  20
ENDBRANCH  15  18
ENDBRANCH   1  15
TORSDOF 5
ENDMDL
MODEL 2
REMARK VINA RESULT:      -7.6      1.846      2.401
REMARK  Name = 
REMARK  5 active torsions:
REMARK  status: ('A' for Active; 'I' for Inactive)
REMARK    1  A    between atoms: S_2  and  N_4
REMARK    2  A    between atoms: S_2  and  C_19
REMARK    3  A    between atoms: N_4  and  C_5
REMARK    4  A    between atoms: C_9  and  S_10
REMARK    5  A    between atoms: S_10  and  N_13
REMARK                            x       y       z     vdW  Elec       q    Type
REMARK                         _______ _______ _______ _____ _____    ______ ____
ROOT
ATOM      1  C   UNL     1       3.420   6.023  19.589  0.00  0.00    +0.000 A 
ATOM      2  C   UNL     1       2.692   6.732  18.634  0.00  0.00    +0.000 A 
ATOM      3  C   UNL     1       3.293   7.113  17.434  0.00  0.00    +0.000 A 
ATOM      4  C   UNL     1       4.629   6.794  17.189  0.00  0.00    +0.000 A 
ATOM      5  C   UNL     1       5.364   6.095  18.154  0.00  0.00    +0.000 A 
ATOM      6  C   UNL     1       4.757   5.694  19.352  0.00  0.00    +0.000 A 
ENDROOT
BRANCH   5   7
ATOM      7  S   UNL     1       7.018   5.541  17.754  0.00  0.00    +0.000 S 
ATOM      8  O   UNL     1       7.748   6.718  17.336  0.00  0.00    +0.000 OA
ATOM      9  O   UNL     1       7.475   4.732  18.867  0.00  0.00    +0.000 OA
BRANCH   7  10
ATOM     10  N   UNL     1       6.858   4.518  16.434  0.00  0.00    +0.000 NA
ATOM     11  C   UNL     1       7.382   4.885  15.114  0.00  0.00    +0.000 C 
ATOM     12  C   UNL     1       6.149   4.976  14.240  0.00  0.00    +0.000 C 
ATOM     13  C   UNL     1       5.168   3.978  14.836  0.00  0.00    +0.000 C 
ATOM     14  C   UNL     1       5.645   3.706  16.259  0.00  0.00    +0.000 C 
ENDBRANCH   7  10
ENDBRANCH   5   7
BRANCH   1  15
ATOM     15  N   UNL     1       2.777   5.620  20.800  0.00  0.00    +0.000 N 
ATOM     16  H   UNL     1       2.200   6.345  21.225  0.00  0.00    +0.000 HD
BRANCH  15  18
ATOM     17  O   UNL     1       2.242   3.477  21.990  0.00  0.00    +0.000 OA
ATOM     18  S   UNL     1       1.865   4.180  20.782  0.00  0.00    +0.000 S 
ATOM     19  O   UNL     1       0.481   4.502  20.515  0.00  0.00    +0.000 OA
BRANCH  18  20
ATOM     20  C   UNL     1       2.440   3.128  19.467  0.00  0.00    +0.000 A 
ATOM     21  C   UNL     1       1.979   2.929  18.176  0.00  0.00    +0.000 A 
ATOM     22  C   UNL     1       2.719   1.929  17.475  0.00  0.00    +0.000 A 
ATOM     23  C   UNL     1       3.737   1.416  18.245  0.00  0.00    +0.000 A 
ATOM     24  S   UNL     1       3.829   2.171  19.776  0.00  0.00    +0.000 S 
ENDBRANCH  18  20
ENDBRANCH  15  18
ENDBRANCH   1  15
TORSDOF 5
ENDMDL
MODEL 3
REMARK VINA RESULT:      -6.9      3.544      5.731
REMARK  Name = 
REMARK  5 active torsions:
REMARK  status: ('A' for Active; 'I' for Inactive)
REMARK    1  A    between atoms: S_2  and  N_4
REMARK    2  A    between atoms: S_2  and  C_19
REMARK    3  A    between atoms: N_4  and  C_5
REMARK    4  A    between atoms: C_9  and  S_10
REMARK    5  A    between atoms: S_10  and  N_13
REMARK                            x       y       z     vdW  Elec       q    Type
REMARK                         _______ _______ _______ _____ _____    ______ ____
ROOT
ATOM      1  C   UNL     1       1.914   7.714  20.419  0.00  0.00    +0.000 A 
ATOM      2  C   UNL     1       2.050   8.500  19.275  0.00  0.00    +0.000 A 
ATOM      3  C   UNL     1       2.226   7.901  18.027  0.00  0.00    +0.000 A 
ATOM      4  C   UNL     1       2.278   6.510  17.921  0.00  0.00    +0.000 A 
ATOM      5  C   UNL     1       2.156   5.721  19.071  0.00  0.00    +0.000 A 
ATOM      6  C   UNL     1       1.959   6.321  20.322  0.00  0.00    +0.000 A 
ENDROOT
BRANCH   5   7
ATOM      7  S   UNL     1       2.047   3.944  18.898  0.00  0.00    +0.000 S 
ATOM      8  O   UNL     1       1.747   3.427  20.215  0.00  0.00    +0.000 OA
ATOM      9  O   UNL     1       1.172   3.679  17.773  0.00  0.00    +0.000 OA
BRANCH   7  10
ATOM     10  N   UNL     1       3.582   3.426  18.461  0.00  0.00    +0.000 NA
ATOM     11  C   UNL     1       4.744   3.660  19.326  0.00  0.00    +0.000 C 
ATOM     12  C   UNL     1       5.636   4.568  18.506  0.00  0.00    +0.000 C 
ATOM     13  C   UNL     1       5.354   4.197  17.059  0.00  0.00    +0.000 C 
ATOM     14  C   UNL     1       4.015   3.467  17.056  0.00  0.00    +0.000 C 
ENDBRANCH   7  10
ENDBRANCH   5   7
BRANCH   1  15
ATOM     15  N   UNL     1       1.708   8.348  21.682  0.00  0.00    +0.000 N 
ATOM     16  H   UNL     1       2.449   8.996  21.948  0.00  0.00    +0.000 HD
BRANCH  15  18
ATOM     17  O   UNL     1      -0.789   8.111  21.744  0.00  0.00    +0.000 OA
ATOM     18  S   UNL     1       0.218   9.130  21.953  0.00  0.00    +0.000 S 
ATOM     19  O   UNL     1       0.287   9.857  23.200  0.00  0.00    +0.000 OA
BRANCH  18  20
ATOM     20  C   UNL     1      -0.079  10.310  20.652  0.00  0.00    +0.000 A 
ATOM     21  C   UNL     1      -0.915  10.274  19.548  0.00  0.00    +0.000 A 
ATOM     22  C   UNL     1      -0.785  11.432  18.723  0.00  0.00    +0.000 A 
ATOM     23  C   UNL     1       0.125  12.325  19.238  0.00  0.00    +0.000 A 
ATOM     24  S   UNL     1       0.777  11.793  20.726  0.00  0.00    +0.000 S 
ENDBRANCH  18  20
ENDBRANCH  15  18
ENDBRANCH   1  15
TORSDOF 5
ENDMDL
MODEL 4
REMARK VINA RESULT:      -6.8      1.801      2.286
REMARK  Name = 
REMARK  5 active torsions:
REMARK  status: ('A' for Active; 'I' for Inactive)
REMARK    1  A    between atoms: S_2  and  N_4
REMARK    2  A    between atoms: S_2  and  C_19
REMARK    3  A    between atoms: N_4  and  C_5
REMARK    4  A    between atoms: C_9  and  S_10
REMARK    5  A    between atoms: S_10  and  N_13
REMARK                            x       y       z     vdW  Elec       q    Type
REMARK                         _______ _______ _______ _____ _____    ______ ____
ROOT
ATOM      1  C   UNL     1       3.228   6.088  19.671  0.00  0.00    +0.000 A 
ATOM      2  C   UNL     1       2.439   7.012  18.987  0.00  0.00    +0.000 A 
ATOM      3  C   UNL     1       2.891   7.571  17.791  0.00  0.00    +0.000 A 
ATOM      4  C   UNL     1       4.140   7.214  17.281  0.00  0.00    +0.000 A 
ATOM      5  C   UNL     1       4.938   6.298  17.975  0.00  0.00    +0.000 A 
ATOM      6  C   UNL     1       4.478   5.721  19.166  0.00  0.00    +0.000 A 
ENDROOT
BRANCH   5   7
ATOM      7  S   UNL     1       6.454   5.719  17.222  0.00  0.00    +0.000 S 
ATOM      8  O   UNL     1       7.426   6.775  17.406  0.00  0.00    +0.000 OA
ATOM      9  O   UNL     1       6.696   4.382  17.727  0.00  0.00    +0.000 OA
BRANCH   7  10
ATOM     10  N   UNL     1       6.131   5.575  15.581  0.00  0.00    +0.000 NA
ATOM     11  C   UNL     1       5.018   4.756  15.090  0.00  0.00    +0.000 C 
ATOM     12  C   UNL     1       5.691   3.663  14.286  0.00  0.00    +0.000 C 
ATOM     13  C   UNL     1       6.961   4.299  13.742  0.00  0.00    +0.000 C 
ATOM     14  C   UNL     1       7.228   5.528  14.603  0.00  0.00    +0.000 C 
ENDBRANCH   7  10
ENDBRANCH   5   7
BRANCH   1  15
ATOM     15  N   UNL     1       2.735   5.508  20.881  0.00  0.00    +0.000 N 
ATOM     16  H   UNL     1       2.211   6.156  21.468  0.00  0.00    +0.000 HD
BRANCH  15  18
ATOM     17  O   UNL     1       2.182   3.306  21.948  0.00  0.00    +0.000 OA
ATOM     18  S   UNL     1       1.831   4.068  20.768  0.00  0.00    +0.000 S 
ATOM     19  O   UNL     1       0.452   4.398  20.484  0.00  0.00    +0.000 OA
BRANCH  18  20
ATOM     20  C   UNL     1       2.443   3.086  19.415  0.00  0.00    +0.000 A 
ATOM     21  C   UNL     1       1.997   2.930  18.113  0.00  0.00    +0.000 A 
ATOM     22  C   UNL     1       2.768   1.978  17.378  0.00  0.00    +0.000 A 
ATOM     23  C   UNL     1       3.792   1.459  18.136  0.00  0.00    +0.000 A 
ATOM     24  S   UNL     1       3.852   2.151  19.698  0.00  0.00    +0.000 S 
ENDBRANCH  18  20
ENDBRANCH  15  18
ENDBRANCH   1  15
TORSDOF 5
ENDMDL
MODEL 5
REMARK VINA RESULT:      -6.8      1.612      1.845
REMARK  Name = 
REMARK  5 active torsions:
REMARK  status: ('A' for Active; 'I' for Inactive)
REMARK    1  A    between atoms: S_2  and  N_4
REMARK    2  A    between atoms: S_2  and  C_19
REMARK    3  A    between atoms: N_4  and  C_5
REMARK    4  A    between atoms: C_9  and  S_10
REMARK    5  A    between atoms: S_10  and  N_13
REMARK                            x       y       z     vdW  Elec       q    Type
REMARK                         _______ _______ _______ _____ _____    ______ ____
ROOT
ATOM      1  C   UNL     1       2.319   5.003  17.674  0.00  0.00    +0.000 A 
ATOM      2  C   UNL     1       2.284   6.240  18.319  0.00  0.00    +0.000 A 
ATOM      3  C   UNL     1       3.391   7.088  18.271  0.00  0.00    +0.000 A 
ATOM      4  C   UNL     1       4.542   6.696  17.585  0.00  0.00    +0.000 A 
ATOM      5  C   UNL     1       4.582   5.450  16.950  0.00  0.00    +0.000 A 
ATOM      6  C   UNL     1       3.465   4.605  16.981  0.00  0.00    +0.000 A 
ENDROOT
BRANCH   5   7
ATOM      7  S   UNL     1       5.993   5.038  15.930  0.00  0.00    +0.000 S 
ATOM      8  O   UNL     1       5.967   3.601  15.765  0.00  0.00    +0.000 OA
ATOM      9  O   UNL     1       5.962   5.924  14.784  0.00  0.00    +0.000 OA
BRANCH   7  10
ATOM     10  N   UNL     1       7.350   5.444  16.830  0.00  0.00    +0.000 NA
ATOM     11  C   UNL     1       7.745   4.669  18.011  0.00  0.00    +0.000 C 
ATOM     12  C   UNL     1       7.618   5.652  19.157  0.00  0.00    +0.000 C 
ATOM     13  C   UNL     1       7.906   7.012  18.543  0.00  0.00    +0.000 C 
ATOM     14  C   UNL     1       7.716   6.853  17.038  0.00  0.00    +0.000 C 
ENDBRANCH   7  10
ENDBRANCH   5   7
BRANCH   1  15
ATOM     15  N   UNL     1       1.165   4.162  17.715  0.00  0.00    +0.000 N 
ATOM     16  H   UNL     1       0.980   3.667  16.843  0.00  0.00    +0.000 HD
BRANCH  15  18
ATOM     17  O   UNL     1       0.698   3.813  20.155  0.00  0.00    +0.000 OA
ATOM     18  S   UNL     1       1.041   3.032  18.985  0.00  0.00    +0.000 S 
ATOM     19  O   UNL     1       0.204   1.934  18.558  0.00  0.00    +0.000 OA
BRANCH  18  20
ATOM     20  C   UNL     1       2.653   2.375  19.356  0.00  0.00    +0.000 A 
ATOM     21  C   UNL     1       3.476   1.503  18.661  0.00  0.00    +0.000 A 
ATOM     22  C   UNL     1       4.675   1.195  19.371  0.00  0.00    +0.000 A 
ATOM     23  C   UNL     1       4.741   1.862  20.573  0.00  0.00    +0.000 A 
ATOM     24  S   UNL     1       3.393   2.886  20.815  0.00  0.00    +0.000 S 
ENDBRANCH  18  20
ENDBRANCH  15  18
ENDBRANCH   1  15
TORSDOF 5
ENDMDL
MODEL 6
REMARK VINA RESULT:      -6.8      3.164      6.265
REMARK  Name = 
REMARK  5 active torsions:
REMARK  status: ('A' for Active; 'I' for Inactive)
REMARK    1  A    between atoms: S_2  and  N_4
REMARK    2  A    between atoms: S_2  and  C_19
REMARK    3  A    between atoms: N_4  and  C_5
REMARK    4  A    between atoms: C_9  and  S_10
REMARK    5  A    between atoms: S_10  and  N_13
REMARK                            x       y       z     vdW  Elec       q    Type
REMARK                         _______ _______ _______ _____ _____    ______ ____
ROOT
ATOM      1  C   UNL     1       6.881   4.539  16.964  0.00  0.00    +0.000 A 
ATOM      2  C   UNL     1       7.519   5.358  17.896  0.00  0.00    +0.000 A 
ATOM      3  C   UNL     1       6.920   5.618  19.129  0.00  0.00    +0.000 A 
ATOM      4  C   UNL     1       5.674   5.068  19.430  0.00  0.00    +0.000 A 
ATOM      5  C   UNL     1       5.027   4.258  18.491  0.00  0.00    +0.000 A 
ATOM      6  C   UNL     1       5.635   3.979  17.259  0.00  0.00    +0.000 A 
ENDROOT
BRANCH   5   7
ATOM      7  S   UNL     1       3.517   3.419  18.958  0.00  0.00    +0.000 S 
ATOM      8  O   UNL     1       3.188   2.536  17.860  0.00  0.00    +0.000 OA
ATOM      9  O   UNL     1       3.715   2.904  20.299  0.00  0.00    +0.000 OA
BRANCH   7  10
ATOM     10  N   UNL     1       2.337   4.608  19.056  0.00  0.00    +0.000 NA
ATOM     11  C   UNL     1       2.278   5.708  18.087  0.00  0.00    +0.000 C 
ATOM     12  C   UNL     1       2.529   6.947  18.921  0.00  0.00    +0.000 C 
ATOM     13  C   UNL     1       1.977   6.615  20.298  0.00  0.00    +0.000 C 
ATOM     14  C   UNL     1       1.871   5.095  20.362  0.00  0.00    +0.000 C 
ENDBRANCH   7  10
ENDBRANCH   5   7
BRANCH   1  15
ATOM     15  N   UNL     1       7.524   4.264  15.719  0.00  0.00    +0.000 N 
ATOM     16  H   UNL     1       7.505   3.282  15.448  0.00  0.00    +0.000 HD
BRANCH  15  18
ATOM     17  O   UNL     1       6.012   6.059  14.832  0.00  0.00    +0.000 OA
ATOM     18  S   UNL     1       7.063   5.183  14.359  0.00  0.00    +0.000 S 
ATOM     19  O   UNL     1       8.248   5.722  13.731  0.00  0.00    +0.000 OA
BRANCH  18  20
ATOM     20  C   UNL     1       6.253   4.128  13.176  0.00  0.00    +0.000 A 
ATOM     21  C   UNL     1       4.914   3.853  12.950  0.00  0.00    +0.000 A 
ATOM     22  C   UNL     1       4.718   2.882  11.921  0.00  0.00    +0.000 A 
ATOM     23  C   UNL     1       5.912   2.468  11.378  0.00  0.00    +0.000 A 
ATOM     24  S   UNL     1       7.249   3.280  12.068  0.00  0.00    +0.000 S 
ENDBRANCH  18  20
ENDBRANCH  15  18
ENDBRANCH   1  15
TORSDOF 5
ENDMDL
MODEL 7
REMARK VINA RESULT:      -6.7      3.723      5.968
REMARK  Name = 
REMARK  5 active torsions:
REMARK  status: ('A' for Active; 'I' for Inactive)
REMARK    1  A    between atoms: S_2  and  N_4
REMARK    2  A    between atoms: S_2  and  C_19
REMARK    3  A    between atoms: N_4  and  C_5
REMARK    4  A    between atoms: C_9  and  S_10
REMARK    5  A    between atoms: S_10  and  N_13
REMARK                            x       y       z     vdW  Elec       q    Type
REMARK                         _______ _______ _______ _____ _____    ______ ____
ROOT
ATOM      1  C   UNL     1       2.351   6.795  19.931  0.00  0.00    +0.000 A 
ATOM      2  C   UNL     1       2.626   6.645  18.572  0.00  0.00    +0.000 A 
ATOM      3  C   UNL     1       2.333   7.675  17.678  0.00  0.00    +0.000 A 
ATOM      4  C   UNL     1       1.754   8.858  18.141  0.00  0.00    +0.000 A 
ATOM      5  C   UNL     1       1.465   9.003  19.502  0.00  0.00    +0.000 A 
ATOM      6  C   UNL     1       1.776   7.977  20.404  0.00  0.00    +0.000 A 
ENDROOT
BRANCH   5   7
ATOM      7  S   UNL     1       0.888  10.586  20.104  0.00  0.00    +0.000 S 
ATOM      8  O   UNL     1       1.157  10.601  21.526  0.00  0.00    +0.000 OA
ATOM      9  O   UNL     1       1.439  11.601  19.228  0.00  0.00    +0.000 OA
BRANCH   7  10
ATOM     10  N   UNL     1      -0.775  10.590  19.879  0.00  0.00    +0.000 NA
ATOM     11  C   UNL     1      -1.370  10.304  18.569  0.00  0.00    +0.000 C 
ATOM     12  C   UNL     1      -2.073  11.592  18.195  0.00  0.00    +0.000 C 
ATOM     13  C   UNL     1      -2.486  12.215  19.519  0.00  0.00    +0.000 C 
ATOM     14  C   UNL     1      -1.625  11.556  20.590  0.00  0.00    +0.000 C 
ENDBRANCH   7  10
ENDBRANCH   5   7
BRANCH   1  15
ATOM     15  N   UNL     1       2.683   5.737  20.832  0.00  0.00    +0.000 N 
ATOM     16  H   UNL     1       2.736   6.024  21.809  0.00  0.00    +0.000 HD
BRANCH  15  18
ATOM     17  O   UNL     1       2.107   3.573  21.962  0.00  0.00    +0.000 OA
ATOM     18  S   UNL     1       1.758   4.307  20.765  0.00  0.00    +0.000 S 
ATOM     19  O   UNL     1       0.383   4.649  20.481  0.00  0.00    +0.000 OA
BRANCH  18  20
ATOM     20  C   UNL     1       2.347   3.280  19.435  0.00  0.00    +0.000 A 
ATOM     21  C   UNL     1       1.839   3.025  18.172  0.00  0.00    +0.000 A 
ATOM     22  C   UNL     1       2.618   2.073  17.448  0.00  0.00    +0.000 A 
ATOM     23  C   UNL     1       3.710   1.652  18.171  0.00  0.00    +0.000 A 
ATOM     24  S   UNL     1       3.819   2.437  19.687  0.00  0.00    +0.000 S 
ENDBRANCH  18  20
ENDBRANCH  15  18
ENDBRANCH   1  15
TORSDOF 5
ENDMDL
MODEL 8
REMARK VINA RESULT:      -6.7      1.050      1.338
REMARK  Name = 
REMARK  5 active torsions:
REMARK  status: ('A' for Active; 'I' for Inactive)
REMARK    1  A    between atoms: S_2  and  N_4
REMARK    2  A    between atoms: S_2  and  C_19
REMARK    3  A    between atoms: N_4  and  C_5
REMARK    4  A    between atoms: C_9  and  S_10
REMARK    5  A    between atoms: S_10  and  N_13
REMARK                            x       y       z     vdW  Elec       q    Type
REMARK                         _______ _______ _______ _____ _____    ______ ____
ROOT
ATOM      1  C   UNL     1       2.743   6.180  18.992  0.00  0.00    +0.000 A 
ATOM      2  C   UNL     1       2.375   7.499  18.725  0.00  0.00    +0.000 A 
ATOM      3  C   UNL     1       3.013   8.214  17.711  0.00  0.00    +0.000 A 
ATOM      4  C   UNL     1       4.031   7.616  16.968  0.00  0.00    +0.000 A 
ATOM      5  C   UNL     1       4.410   6.297  17.245  0.00  0.00    +0.000 A 
ATOM      6  C   UNL     1       3.757   5.570  18.249  0.00  0.00    +0.000 A 
ENDROOT
BRANCH   5   7
ATOM      7  S   UNL     1       5.590   5.488  16.170  0.00  0.00    +0.000 S 
ATOM      8  O   UNL     1       5.285   4.074  16.228  0.00  0.00    +0.000 OA
ATOM      9  O   UNL     1       5.579   6.205  14.911  0.00  0.00    +0.000 OA
BRANCH   7  10
ATOM     10  N   UNL     1       7.096   5.735  16.866  0.00  0.00    +0.000 NA
ATOM     11  C   UNL     1       7.637   4.811  17.869  0.00  0.00    +0.000 C 
ATOM     12  C   UNL     1       7.755   5.654  19.121  0.00  0.00    +0.000 C 
ATOM     13  C   UNL     1       8.013   7.067  18.623  0.00  0.00    +0.000 C 
ATOM     14  C   UNL     1       7.569   7.095  17.164  0.00  0.00    +0.000 C 
ENDBRANCH   7  10
ENDBRANCH   5   7
BRANCH   1  15
ATOM     15  N   UNL     1       2.058   5.457  20.016  0.00  0.00    +0.000 N 
ATOM     16  H   UNL     1       1.278   5.965  20.433  0.00  0.00    +0.000 HD
BRANCH  15  18
ATOM     17  O   UNL     1       0.676   3.507  20.779  0.00  0.00    +0.000 OA
ATOM     18  S   UNL     1       1.515   3.882  19.660  0.00  0.00    +0.000 S 
ATOM     19  O   UNL     1       1.001   3.855  18.309  0.00  0.00    +0.000 OA
BRANCH  18  20
ATOM     20  C   UNL     1       2.885   2.748  19.741  0.00  0.00    +0.000 A 
ATOM     21  C   UNL     1       3.801   2.479  20.746  0.00  0.00    +0.000 A 
ATOM     22  C   UNL     1       4.784   1.523  20.351  0.00  0.00    +0.000 A 
ATOM     23  C   UNL     1       4.572   1.073  19.068  0.00  0.00    +0.000 A 
ATOM     24  S   UNL     1       3.171   1.761  18.369  0.00  0.00    +0.000 S 
ENDBRANCH  18  20
ENDBRANCH  15  18
ENDBRANCH   1  15
TORSDOF 5
ENDMDL
MODEL 9
REMARK VINA RESULT:      -6.6      3.583      6.230
REMARK  Name = 
REMARK  5 active torsions:
REMARK  status: ('A' for Active; 'I' for Inactive)
REMARK    1  A    between atoms: S_2  and  N_4
REMARK    2  A    between atoms: S_2  and  C_19
REMARK    3  A    between atoms: N_4  and  C_5
REMARK    4  A    between atoms: C_9  and  S_10
REMARK    5  A    between atoms: S_10  and  N_13
REMARK                            x       y       z     vdW  Elec       q    Type
REMARK                         _______ _______ _______ _____ _____    ______ ____
ROOT
ATOM      1  C   UNL     1       2.813   6.150  19.023  0.00  0.00    +0.000 A 
ATOM      2  C   UNL     1       3.196   6.844  17.875  0.00  0.00    +0.000 A 
ATOM      3  C   UNL     1       2.834   8.182  17.711  0.00  0.00    +0.000 A 
ATOM      4  C   UNL     1       2.078   8.827  18.691  0.00  0.00    +0.000 A 
ATOM      5  C   UNL     1       1.682   8.126  19.836  0.00  0.00    +0.000 A 
ATOM      6  C   UNL     1       2.061   6.789  20.012  0.00  0.00    +0.000 A 
ENDROOT
BRANCH   5   7
ATOM      7  S   UNL     1       0.868   9.013  21.159  0.00  0.00    +0.000 S 
ATOM      8  O   UNL     1      -0.333   8.267  21.466  0.00  0.00    +0.000 OA
ATOM      9  O   UNL     1       1.868   9.272  22.175  0.00  0.00    +0.000 OA
BRANCH   7  10
ATOM     10  N   UNL     1       0.422  10.497  20.517  0.00  0.00    +0.000 NA
ATOM     11  C   UNL     1       0.871  11.758  21.118  0.00  0.00    +0.000 C 
ATOM     12  C   UNL     1      -0.408  12.421  21.582  0.00  0.00    +0.000 C 
ATOM     13  C   UNL     1      -1.476  11.943  20.611  0.00  0.00    +0.000 C 
ATOM     14  C   UNL     1      -0.917  10.692  19.942  0.00  0.00    +0.000 C 
ENDBRANCH   7  10
ENDBRANCH   5   7
BRANCH   1  15
ATOM     15  N   UNL     1       3.217   4.789  19.183  0.00  0.00    +0.000 N 
ATOM     16  H   UNL     1       2.749   4.139  18.551  0.00  0.00    +0.000 HD
BRANCH  15  18
ATOM     17  O   UNL     1       5.531   5.598  19.717  0.00  0.00    +0.000 OA
ATOM     18  S   UNL     1       4.884   4.438  19.141  0.00  0.00    +0.000 S 
ATOM     19  O   UNL     1       5.102   3.120  19.693  0.00  0.00    +0.000 OA
BRANCH  18  20
ATOM     20  C   UNL     1       5.446   4.418  17.452  0.00  0.00    +0.000 A 
ATOM     21  C   UNL     1       4.810   4.062  16.273  0.00  0.00    +0.000 A 
ATOM     22  C   UNL     1       5.673   4.142  15.138  0.00  0.00    +0.000 A 
ATOM     23  C   UNL     1       6.930   4.581  15.483  0.00  0.00    +0.000 A 
ATOM     24  S   UNL     1       7.050   4.941  17.151  0.00  0.00    +0.000 S 
ENDBRANCH  18  20
ENDBRANCH  15  18
ENDBRANCH   1  15
TORSDOF 5
ENDMDL
