MODEL 1
REMARK VINA RESULT:      -7.2      0.000      0.000
REMARK  Name = 
REMARK  10 active torsions:
REMARK  status: ('A' for Active; 'I' for Inactive)
REMARK    1  A    between atoms: C_1  and  C_2
REMARK    2  A    between atoms: C_2  and  C_3
REMARK    3  A    between atoms: C_3  and  N_4
REMARK    4  A    between atoms: C_3  and  C_11
REMARK    5  A    between atoms: C_5  and  C_7
REMARK    6  A    between atoms: C_7  and  C_8
REMARK    7  A    between atoms: C_7  and  N_9
REMARK    8  A    between atoms: N_9  and  C_10
REMARK    9  A    between atoms: C_17  and  C_18
REMARK   10  A    between atoms: N_20  and  C_21
REMARK                            x       y       z     vdW  Elec       q    Type
REMARK                         _______ _______ _______ _____ _____    ______ ____
ROOT
ATOM      1  C   UNL     1      -0.445  10.101  20.590  0.00  0.00    +0.000 C 
ATOM      2  O   UNL     1      -1.217   9.168  20.370  0.00  0.00    +0.000 OA
ATOM      3  N   UNL     1       0.671  10.305  19.811  0.00  0.00    +0.000 N 
ATOM      4  C   UNL     1       1.578  11.434  19.834  0.00  0.00    +0.000 C 
ATOM      5  C   UNL     1       2.004  11.543  18.384  0.00  0.00    +0.000 C 
ATOM      6  C   UNL     1       2.091  10.088  17.921  0.00  0.00    +0.000 C 
ATOM      7  C   UNL     1       1.096   9.322  18.815  0.00  0.00    +0.000 C 
ENDROOT
BRANCH   7   8
ATOM      8  C   UNL     1       1.849   8.166  19.508  0.00  0.00    +0.000 C 
ATOM      9  O   UNL     1       1.971   8.104  20.732  0.00  0.00    +0.000 OA
ATOM     10  N   UNL     1       2.466   7.285  18.644  0.00  0.00    +0.000 N 
ATOM     11  H   UNL     1       2.047   7.160  17.728  0.00  0.00    +0.000 HD
BRANCH  10  12
ATOM     12  C   UNL     1       3.288   6.187  19.145  0.00  0.00    +0.000 C 
ATOM     13  C   UNL     1       4.601   6.081  18.344  0.00  0.00    +0.000 C 
ATOM     14  C   UNL     1       4.333   5.522  16.951  0.00  0.00    +0.000 C 
ATOM     15  C   UNL     1       3.818   4.091  17.053  0.00  0.00    +0.000 C 
ATOM     16  C   UNL     1       2.726   3.924  18.080  0.00  0.00    +0.000 A 
ATOM     17  C   UNL     1       1.958   2.749  18.059  0.00  0.00    +0.000 A 
ATOM     18  C   UNL     1       0.961   2.532  19.009  0.00  0.00    +0.000 A 
ATOM     19  C   UNL     1       0.735   3.481  20.000  0.00  0.00    +0.000 A 
ATOM     20  C   UNL     1       1.509   4.642  20.046  0.00  0.00    +0.000 A 
ATOM     21  C   UNL     1       2.508   4.884  19.087  0.00  0.00    +0.000 A 
ENDBRANCH  10  12
ENDBRANCH   7   8
BRANCH   1  22
ATOM     22  C   UNL     1      -0.772  11.191  21.633  0.00  0.00    +0.000 C 
BRANCH  22  23
ATOM     23  N   UNL     1      -2.114  11.682  21.300  0.00  0.00    +0.000 N 
ATOM     24  C   UNL     1      -2.305  12.792  20.510  0.00  0.00    +0.000 C 
ATOM     25  O   UNL     1      -1.366  13.336  19.928  0.00  0.00    +0.000 OA
ATOM     26  H   UNL     1      -2.886  11.317  21.839  0.00  0.00    +0.000 HD
BRANCH  24  27
ATOM     27  C   UNL     1      -3.773  13.253  20.326  0.00  0.00    +0.000 C 
ATOM     28  C   UNL     1      -4.633  12.799  21.507  0.00  0.00    +0.000 C 
BRANCH  27  29
ATOM     29  N   UNL     1      -4.363  12.850  19.030  0.00  0.00    +0.000 NA
ATOM     30  C   UNL     1      -3.862  11.586  18.510  0.00  0.00    +0.000 C 
ATOM     31  H   UNL     1      -4.290  13.596  18.344  0.00  0.00    +0.000 HD
ENDBRANCH  27  29
ENDBRANCH  24  27
ENDBRANCH  22  23
BRANCH  22  33
ATOM     32  C   UNL     1       0.266   9.508  23.226  0.00  0.00    +0.000 C 
ATOM     33  C   UNL     1      -0.728  10.652  23.071  0.00  0.00    +0.000 C 
ENDBRANCH  22  33
ENDBRANCH   1  22
TORSDOF 7
ENDMDL
MODEL 2
REMARK VINA RESULT:      -7.1      2.128      3.806
REMARK  Name = 
REMARK  10 active torsions:
REMARK  status: ('A' for Active; 'I' for Inactive)
REMARK    1  A    between atoms: C_1  and  C_2
REMARK    2  A    between atoms: C_2  and  C_3
REMARK    3  A    between atoms: C_3  and  N_4
REMARK    4  A    between atoms: C_3  and  C_11
REMARK    5  A    between atoms: C_5  and  C_7
REMARK    6  A    between atoms: C_7  and  C_8
REMARK    7  A    between atoms: C_7  and  N_9
REMARK    8  A    between atoms: N_9  and  C_10
REMARK    9  A    between atoms: C_17  and  C_18
REMARK   10  A    between atoms: N_20  and  C_21
REMARK                            x       y       z     vdW  Elec       q    Type
REMARK                         _______ _______ _______ _____ _____    ______ ____
ROOT
ATOM      1  C   UNL     1      -0.004  11.076  18.986  0.00  0.00    +0.000 C 
ATOM      2  O   UNL     1       0.960  11.647  18.474  0.00  0.00    +0.000 OA
ATOM      3  N   UNL     1       0.168  10.019  19.850  0.00  0.00    +0.000 N 
ATOM      4  C   UNL     1      -0.837   9.354  20.653  0.00  0.00    +0.000 C 
ATOM      5  C   UNL     1      -0.057   8.951  21.888  0.00  0.00    +0.000 C 
ATOM      6  C   UNL     1       1.321   8.575  21.341  0.00  0.00    +0.000 C 
ATOM      7  C   UNL     1       1.479   9.403  20.051  0.00  0.00    +0.000 C 
ENDROOT
BRANCH   7   8
ATOM      8  C   UNL     1       1.788   8.439  18.884  0.00  0.00    +0.000 C 
ATOM      9  O   UNL     1       1.474   8.696  17.721  0.00  0.00    +0.000 OA
ATOM     10  N   UNL     1       2.332   7.231  19.269  0.00  0.00    +0.000 N 
ATOM     11  H   UNL     1       2.890   7.220  20.117  0.00  0.00    +0.000 HD
BRANCH  10  12
ATOM     12  C   UNL     1       2.602   6.179  18.292  0.00  0.00    +0.000 C 
ATOM     13  C   UNL     1       1.988   4.842  18.750  0.00  0.00    +0.000 C 
ATOM     14  C   UNL     1       2.786   4.257  19.911  0.00  0.00    +0.000 C 
ATOM     15  C   UNL     1       4.197   3.906  19.450  0.00  0.00    +0.000 C 
ATOM     16  C   UNL     1       4.852   5.006  18.652  0.00  0.00    +0.000 A 
ATOM     17  C   UNL     1       6.238   4.945  18.437  0.00  0.00    +0.000 A 
ATOM     18  C   UNL     1       6.884   5.918  17.676  0.00  0.00    +0.000 A 
ATOM     19  C   UNL     1       6.148   6.951  17.109  0.00  0.00    +0.000 A 
ATOM     20  C   UNL     1       4.765   7.009  17.295  0.00  0.00    +0.000 A 
ATOM     21  C   UNL     1       4.100   6.045  18.072  0.00  0.00    +0.000 A 
ENDBRANCH  10  12
ENDBRANCH   7   8
BRANCH   1  22
ATOM     22  C   UNL     1      -1.440  11.619  18.829  0.00  0.00    +0.000 C 
BRANCH  22  23
ATOM     23  N   UNL     1      -1.379  13.040  19.185  0.00  0.00    +0.000 N 
ATOM     24  C   UNL     1      -1.824  13.504  20.401  0.00  0.00    +0.000 C 
ATOM     25  O   UNL     1      -2.157  12.732  21.300  0.00  0.00    +0.000 OA
ATOM     26  H   UNL     1      -1.205  13.697  18.437  0.00  0.00    +0.000 HD
BRANCH  24  27
ATOM     27  C   UNL     1      -1.791  15.041  20.598  0.00  0.00    +0.000 C 
ATOM     28  C   UNL     1      -3.158  15.556  21.051  0.00  0.00    +0.000 C 
BRANCH  27  29
ATOM     29  N   UNL     1      -1.289  15.779  19.417  0.00  0.00    +0.000 NA
ATOM     30  C   UNL     1      -1.581  17.205  19.435  0.00  0.00    +0.000 C 
ATOM     31  H   UNL     1      -1.593  15.342  18.553  0.00  0.00    +0.000 HD
ENDBRANCH  27  29
ENDBRANCH  24  27
ENDBRANCH  22  23
BRANCH  22  33
ATOM     32  C   UNL     1      -2.300   9.977  17.093  0.00  0.00    +0.000 C 
ATOM     33  C   UNL     1      -1.979  11.434  17.402  0.00  0.00    +0.000 C 
ENDBRANCH  22  33
ENDBRANCH   1  22
TORSDOF 7
ENDMDL
MODEL 3
REMARK VINA RESULT:      -7.1      0.835      1.136
REMARK  Name = 
REMARK  10 active torsions:
REMARK  status: ('A' for Active; 'I' for Inactive)
REMARK    1  A    between atoms: C_1  and  C_2
REMARK    2  A    between atoms: C_2  and  C_3
REMARK    3  A    between atoms: C_3  and  N_4
REMARK    4  A    between atoms: C_3  and  C_11
REMARK    5  A    between atoms: C_5  and  C_7
REMARK    6  A    between atoms: C_7  and  C_8
REMARK    7  A    between atoms: C_7  and  N_9
REMARK    8  A    between atoms: N_9  and  C_10
REMARK    9  A    between atoms: C_17  and  C_18
REMARK   10  A    between atoms: N_20  and  C_21
REMARK                            x       y       z     vdW  Elec       q    Type
REMARK                         _______ _______ _______ _____ _____    ______ ____
ROOT
ATOM      1  C   UNL     1      -0.424  10.083  20.619  0.00  0.00    +0.000 C 
ATOM      2  O   UNL     1      -1.203   9.151  20.420  0.00  0.00    +0.000 OA
ATOM      3  N   UNL     1       0.676  10.278  19.816  0.00  0.00    +0.000 N 
ATOM      4  C   UNL     1       1.587  11.405  19.812  0.00  0.00    +0.000 C 
ATOM      5  C   UNL     1       1.983  11.503  18.353  0.00  0.00    +0.000 C 
ATOM      6  C   UNL     1       2.057  10.046  17.898  0.00  0.00    +0.000 C 
ATOM      7  C   UNL     1       1.078   9.289  18.817  0.00  0.00    +0.000 C 
ENDROOT
BRANCH   7   8
ATOM      8  C   UNL     1       1.841   8.135  19.502  0.00  0.00    +0.000 C 
ATOM      9  O   UNL     1       1.963   8.064  20.726  0.00  0.00    +0.000 OA
ATOM     10  N   UNL     1       2.468   7.266  18.632  0.00  0.00    +0.000 N 
ATOM     11  H   UNL     1       2.050   7.144  17.715  0.00  0.00    +0.000 HD
BRANCH  10  12
ATOM     12  C   UNL     1       3.300   6.172  19.125  0.00  0.00    +0.000 C 
ATOM     13  C   UNL     1       4.612   6.082  18.321  0.00  0.00    +0.000 C 
ATOM     14  C   UNL     1       4.346   5.528  16.925  0.00  0.00    +0.000 C 
ATOM     15  C   UNL     1       3.843   4.092  17.020  0.00  0.00    +0.000 C 
ATOM     16  C   UNL     1       2.754   3.911  18.049  0.00  0.00    +0.000 A 
ATOM     17  C   UNL     1       1.996   2.729  18.023  0.00  0.00    +0.000 A 
ATOM     18  C   UNL     1       1.003   2.499  18.974  0.00  0.00    +0.000 A 
ATOM     19  C   UNL     1       0.771   3.441  19.970  0.00  0.00    +0.000 A 
ATOM     20  C   UNL     1       1.536   4.608  20.022  0.00  0.00    +0.000 A 
ATOM     21  C   UNL     1       2.530   4.863  19.062  0.00  0.00    +0.000 A 
ENDBRANCH  10  12
ENDBRANCH   7   8
BRANCH   1  22
ATOM     22  C   UNL     1      -0.727  11.181  21.661  0.00  0.00    +0.000 C 
BRANCH  22  23
ATOM     23  N   UNL     1      -1.964  11.832  21.219  0.00  0.00    +0.000 N 
ATOM     24  C   UNL     1      -2.142  13.193  21.312  0.00  0.00    +0.000 C 
ATOM     25  O   UNL     1      -1.219  13.940  21.635  0.00  0.00    +0.000 OA
ATOM     26  H   UNL     1      -2.762  11.237  21.045  0.00  0.00    +0.000 HD
BRANCH  24  27
ATOM     27  C   UNL     1      -3.537  13.727  20.900  0.00  0.00    +0.000 C 
ATOM     28  C   UNL     1      -4.240  12.739  19.968  0.00  0.00    +0.000 C 
BRANCH  27  29
ATOM     29  N   UNL     1      -3.504  15.093  20.330  0.00  0.00    +0.000 NA
ATOM     30  C   UNL     1      -4.672  15.902  20.645  0.00  0.00    +0.000 C 
ATOM     31  H   UNL     1      -3.317  15.071  19.332  0.00  0.00    +0.000 HD
ENDBRANCH  27  29
ENDBRANCH  24  27
ENDBRANCH  22  23
BRANCH  22  33
ATOM     32  C   UNL     1       0.131   9.513  23.374  0.00  0.00    +0.000 C 
ATOM     33  C   UNL     1      -0.886  10.609  23.078  0.00  0.00    +0.000 C 
ENDBRANCH  22  33
ENDBRANCH   1  22
TORSDOF 7
ENDMDL
MODEL 4
REMARK VINA RESULT:      -7.1      1.984      3.775
REMARK  Name = 
REMARK  10 active torsions:
REMARK  status: ('A' for Active; 'I' for Inactive)
REMARK    1  A    between atoms: C_1  and  C_2
REMARK    2  A    between atoms: C_2  and  C_3
REMARK    3  A    between atoms: C_3  and  N_4
REMARK    4  A    between atoms: C_3  and  C_11
REMARK    5  A    between atoms: C_5  and  C_7
REMARK    6  A    between atoms: C_7  and  C_8
REMARK    7  A    between atoms: C_7  and  N_9
REMARK    8  A    between atoms: N_9  and  C_10
REMARK    9  A    between atoms: C_17  and  C_18
REMARK   10  A    between atoms: N_20  and  C_21
REMARK                            x       y       z     vdW  Elec       q    Type
REMARK                         _______ _______ _______ _____ _____    ______ ____
ROOT
ATOM      1  C   UNL     1       0.682  11.236  19.287  0.00  0.00    +0.000 C 
ATOM      2  O   UNL     1       1.797  11.680  19.010  0.00  0.00    +0.000 OA
ATOM      3  N   UNL     1       0.533  10.021  19.917  0.00  0.00    +0.000 N 
ATOM      4  C   UNL     1      -0.681   9.441  20.453  0.00  0.00    +0.000 C 
ATOM      5  C   UNL     1      -0.172   8.657  21.646  0.00  0.00    +0.000 C 
ATOM      6  C   UNL     1       1.177   8.113  21.175  0.00  0.00    +0.000 C 
ATOM      7  C   UNL     1       1.667   9.119  20.114  0.00  0.00    +0.000 C 
ENDROOT
BRANCH   7   8
ATOM      8  C   UNL     1       1.957   8.351  18.807  0.00  0.00    +0.000 C 
ATOM      9  O   UNL     1       1.479   8.694  17.725  0.00  0.00    +0.000 OA
ATOM     10  N   UNL     1       2.693   7.196  18.972  0.00  0.00    +0.000 N 
ATOM     11  H   UNL     1       3.343   7.165  19.751  0.00  0.00    +0.000 HD
BRANCH  10  12
ATOM     12  C   UNL     1       2.978   6.313  17.844  0.00  0.00    +0.000 C 
ATOM     13  C   UNL     1       2.174   5.004  17.960  0.00  0.00    +0.000 C 
ATOM     14  C   UNL     1       2.746   4.121  19.065  0.00  0.00    +0.000 C 
ATOM     15  C   UNL     1       4.161   3.683  18.702  0.00  0.00    +0.000 C 
ATOM     16  C   UNL     1       5.027   4.818  18.213  0.00  0.00    +0.000 A 
ATOM     17  C   UNL     1       6.416   4.621  18.143  0.00  0.00    +0.000 A 
ATOM     18  C   UNL     1       7.254   5.626  17.664  0.00  0.00    +0.000 A 
ATOM     19  C   UNL     1       6.711   6.830  17.233  0.00  0.00    +0.000 A 
ATOM     20  C   UNL     1       5.330   7.029  17.273  0.00  0.00    +0.000 A 
ATOM     21  C   UNL     1       4.470   6.032  17.768  0.00  0.00    +0.000 A 
ENDBRANCH  10  12
ENDBRANCH   7   8
BRANCH   1  22
ATOM     22  C   UNL     1      -0.593  12.085  19.104  0.00  0.00    +0.000 C 
BRANCH  22  23
ATOM     23  N   UNL     1      -1.039  12.446  20.454  0.00  0.00    +0.000 N 
ATOM     24  C   UNL     1      -2.371  12.595  20.763  0.00  0.00    +0.000 C 
ATOM     25  O   UNL     1      -3.254  12.290  19.962  0.00  0.00    +0.000 OA
ATOM     26  H   UNL     1      -0.338  12.793  21.094  0.00  0.00    +0.000 HD
BRANCH  24  27
ATOM     27  C   UNL     1      -2.686  13.077  22.201  0.00  0.00    +0.000 C 
ATOM     28  C   UNL     1      -1.430  13.034  23.073  0.00  0.00    +0.000 C 
BRANCH  27  29
ATOM     29  N   UNL     1      -3.818  12.361  22.832  0.00  0.00    +0.000 NA
ATOM     30  C   UNL     1      -3.997  12.651  24.247  0.00  0.00    +0.000 C 
ATOM     31  H   UNL     1      -3.766  11.362  22.655  0.00  0.00    +0.000 HD
ENDBRANCH  27  29
ENDBRANCH  24  27
ENDBRANCH  22  23
BRANCH  22  33
ATOM     32  C   UNL     1      -0.069  14.569  19.116  0.00  0.00    +0.000 C 
ATOM     33  C   UNL     1      -0.339  13.341  18.257  0.00  0.00    +0.000 C 
ENDBRANCH  22  33
ENDBRANCH   1  22
TORSDOF 7
ENDMDL
MODEL 5
REMARK VINA RESULT:      -7.1      2.561      4.159
REMARK  Name = 
REMARK  10 active torsions:
REMARK  status: ('A' for Active; 'I' for Inactive)
REMARK    1  A    between atoms: C_1  and  C_2
REMARK    2  A    between atoms: C_2  and  C_3
REMARK    3  A    between atoms: C_3  and  N_4
REMARK    4  A    between atoms: C_3  and  C_11
REMARK    5  A    between atoms: C_5  and  C_7
REMARK    6  A    between atoms: C_7  and  C_8
REMARK    7  A    between atoms: C_7  and  N_9
REMARK    8  A    between atoms: N_9  and  C_10
REMARK    9  A    between atoms: C_17  and  C_18
REMARK   10  A    between atoms: N_20  and  C_21
REMARK                            x       y       z     vdW  Elec       q    Type
REMARK                         _______ _______ _______ _____ _____    ______ ____
ROOT
ATOM      1  C   UNL     1       0.661  11.269  19.082  0.00  0.00    +0.000 C 
ATOM      2  O   UNL     1       1.769  11.679  18.734  0.00  0.00    +0.000 OA
ATOM      3  N   UNL     1       0.526  10.117  19.823  0.00  0.00    +0.000 N 
ATOM      4  C   UNL     1      -0.673   9.594  20.445  0.00  0.00    +0.000 C 
ATOM      5  C   UNL     1      -0.131   8.916  21.686  0.00  0.00    +0.000 C 
ATOM      6  C   UNL     1       1.200   8.322  21.225  0.00  0.00    +0.000 C 
ATOM      7  C   UNL     1       1.661   9.227  20.065  0.00  0.00    +0.000 C 
ENDROOT
BRANCH   7   8
ATOM      8  C   UNL     1       1.908   8.344  18.822  0.00  0.00    +0.000 C 
ATOM      9  O   UNL     1       1.432   8.617  17.719  0.00  0.00    +0.000 OA
ATOM     10  N   UNL     1       2.599   7.178  19.077  0.00  0.00    +0.000 N 
ATOM     11  H   UNL     1       3.256   7.185  19.851  0.00  0.00    +0.000 HD
BRANCH  10  12
ATOM     12  C   UNL     1       2.838   6.195  18.023  0.00  0.00    +0.000 C 
ATOM     13  C   UNL     1       2.088   4.883  18.321  0.00  0.00    +0.000 C 
ATOM     14  C   UNL     1       2.762   4.130  19.464  0.00  0.00    +0.000 C 
ATOM     15  C   UNL     1       4.163   3.697  19.048  0.00  0.00    +0.000 C 
ATOM     16  C   UNL     1       4.956   4.800  18.391  0.00  0.00    +0.000 A 
ATOM     17  C   UNL     1       6.343   4.634  18.244  0.00  0.00    +0.000 A 
ATOM     18  C   UNL     1       7.114   5.608  17.612  0.00  0.00    +0.000 A 
ATOM     19  C   UNL     1       6.502   6.749  17.105  0.00  0.00    +0.000 A 
ATOM     20  C   UNL     1       5.121   6.914  17.222  0.00  0.00    +0.000 A 
ATOM     21  C   UNL     1       4.330   5.949  17.870  0.00  0.00    +0.000 A 
ENDBRANCH  10  12
ENDBRANCH   7   8
BRANCH   1  22
ATOM     22  C   UNL     1      -0.616  12.108  18.864  0.00  0.00    +0.000 C 
BRANCH  22  23
ATOM     23  N   UNL     1      -0.161  13.460  18.523  0.00  0.00    +0.000 N 
ATOM     24  C   UNL     1      -0.485  14.551  19.295  0.00  0.00    +0.000 C 
ATOM     25  O   UNL     1      -1.047  14.424  20.383  0.00  0.00    +0.000 OA
ATOM     26  H   UNL     1       0.212  13.601  17.595  0.00  0.00    +0.000 HD
BRANCH  24  27
ATOM     27  C   UNL     1      -0.020  15.928  18.758  0.00  0.00    +0.000 C 
ATOM     28  C   UNL     1       1.023  16.547  19.690  0.00  0.00    +0.000 C 
BRANCH  27  29
ATOM     29  N   UNL     1      -1.134  16.863  18.481  0.00  0.00    +0.000 NA
ATOM     30  C   UNL     1      -1.223  17.979  19.412  0.00  0.00    +0.000 C 
ATOM     31  H   UNL     1      -2.017  16.370  18.397  0.00  0.00    +0.000 HD
ENDBRANCH  27  29
ENDBRANCH  24  27
ENDBRANCH  22  23
BRANCH  22  33
ATOM     32  C   UNL     1      -2.978  11.520  18.142  0.00  0.00    +0.000 C 
ATOM     33  C   UNL     1      -1.506  11.533  17.751  0.00  0.00    +0.000 C 
ENDBRANCH  22  33
ENDBRANCH   1  22
TORSDOF 7
ENDMDL
MODEL 6
REMARK VINA RESULT:      -7.0      1.484      1.807
REMARK  Name = 
REMARK  10 active torsions:
REMARK  status: ('A' for Active; 'I' for Inactive)
REMARK    1  A    between atoms: C_1  and  C_2
REMARK    2  A    between atoms: C_2  and  C_3
REMARK    3  A    between atoms: C_3  and  N_4
REMARK    4  A    between atoms: C_3  and  C_11
REMARK    5  A    between atoms: C_5  and  C_7
REMARK    6  A    between atoms: C_7  and  C_8
REMARK    7  A    between atoms: C_7  and  N_9
REMARK    8  A    between atoms: N_9  and  C_10
REMARK    9  A    between atoms: C_17  and  C_18
REMARK   10  A    between atoms: N_20  and  C_21
REMARK                            x       y       z     vdW  Elec       q    Type
REMARK                         _______ _______ _______ _____ _____    ______ ____
ROOT
ATOM      1  C   UNL     1      -0.144  10.107  20.862  0.00  0.00    +0.000 C 
ATOM      2  O   UNL     1      -0.995   9.219  20.799  0.00  0.00    +0.000 OA
ATOM      3  N   UNL     1       0.860  10.203  19.925  0.00  0.00    +0.000 N 
ATOM      4  C   UNL     1       1.827  11.269  19.764  0.00  0.00    +0.000 C 
ATOM      5  C   UNL     1       2.048  11.288  18.265  0.00  0.00    +0.000 C 
ATOM      6  C   UNL     1       1.980   9.813  17.868  0.00  0.00    +0.000 C 
ATOM      7  C   UNL     1       1.078   9.154  18.930  0.00  0.00    +0.000 C 
ENDROOT
BRANCH   7   8
ATOM      8  C   UNL     1       1.851   7.980  19.569  0.00  0.00    +0.000 C 
ATOM      9  O   UNL     1       1.941   7.841  20.790  0.00  0.00    +0.000 OA
ATOM     10  N   UNL     1       2.520   7.177  18.669  0.00  0.00    +0.000 N 
ATOM     11  H   UNL     1       2.130   7.098  17.735  0.00  0.00    +0.000 HD
BRANCH  10  12
ATOM     12  C   UNL     1       3.366   6.075  19.121  0.00  0.00    +0.000 C 
ATOM     13  C   UNL     1       4.685   6.040  18.326  0.00  0.00    +0.000 C 
ATOM     14  C   UNL     1       4.439   5.542  16.905  0.00  0.00    +0.000 C 
ATOM     15  C   UNL     1       3.957   4.096  16.934  0.00  0.00    +0.000 C 
ATOM     16  C   UNL     1       2.863   3.855  17.945  0.00  0.00    +0.000 A 
ATOM     17  C   UNL     1       2.123   2.664  17.862  0.00  0.00    +0.000 A 
ATOM     18  C   UNL     1       1.126   2.378  18.794  0.00  0.00    +0.000 A 
ATOM     19  C   UNL     1       0.872   3.272  19.827  0.00  0.00    +0.000 A 
ATOM     20  C   UNL     1       1.618   4.448  19.935  0.00  0.00    +0.000 A 
ATOM     21  C   UNL     1       2.616   4.759  18.996  0.00  0.00    +0.000 A 
ENDBRANCH  10  12
ENDBRANCH   7   8
BRANCH   1  22
ATOM     22  C   UNL     1      -0.253  11.259  21.884  0.00  0.00    +0.000 C 
BRANCH  22  23
ATOM     23  N   UNL     1      -0.836  12.392  21.159  0.00  0.00    +0.000 N 
ATOM     24  C   UNL     1      -0.339  13.669  21.285  0.00  0.00    +0.000 C 
ATOM     25  O   UNL     1       0.705  13.893  21.897  0.00  0.00    +0.000 OA
ATOM     26  H   UNL     1      -1.742  12.252  20.734  0.00  0.00    +0.000 HD
BRANCH  24  27
ATOM     27  C   UNL     1      -1.118  14.781  20.539  0.00  0.00    +0.000 C 
ATOM     28  C   UNL     1      -2.621  14.649  20.790  0.00  0.00    +0.000 C 
BRANCH  27  29
ATOM     29  N   UNL     1      -0.807  14.854  19.093  0.00  0.00    +0.000 NA
ATOM     30  C   UNL     1      -0.111  16.068  18.691  0.00  0.00    +0.000 C 
ATOM     31  H   UNL     1      -1.636  14.690  18.529  0.00  0.00    +0.000 HD
ENDBRANCH  27  29
ENDBRANCH  24  27
ENDBRANCH  22  23
BRANCH  22  33
ATOM     32  C   UNL     1      -2.319  11.804  23.254  0.00  0.00    +0.000 C 
ATOM     33  C   UNL     1      -1.117  10.881  23.096  0.00  0.00    +0.000 C 
ENDBRANCH  22  33
ENDBRANCH   1  22
TORSDOF 7
ENDMDL
MODEL 7
REMARK VINA RESULT:      -6.9      1.471      1.827
REMARK  Name = 
REMARK  10 active torsions:
REMARK  status: ('A' for Active; 'I' for Inactive)
REMARK    1  A    between atoms: C_1  and  C_2
REMARK    2  A    between atoms: C_2  and  C_3
REMARK    3  A    between atoms: C_3  and  N_4
REMARK    4  A    between atoms: C_3  and  C_11
REMARK    5  A    between atoms: C_5  and  C_7
REMARK    6  A    between atoms: C_7  and  C_8
REMARK    7  A    between atoms: C_7  and  N_9
REMARK    8  A    between atoms: N_9  and  C_10
REMARK    9  A    between atoms: C_17  and  C_18
REMARK   10  A    between atoms: N_20  and  C_21
REMARK                            x       y       z     vdW  Elec       q    Type
REMARK                         _______ _______ _______ _____ _____    ______ ____
ROOT
ATOM      1  C   UNL     1      -0.152  10.315  20.731  0.00  0.00    +0.000 C 
ATOM      2  O   UNL     1      -1.009   9.430  20.695  0.00  0.00    +0.000 OA
ATOM      3  N   UNL     1       0.864  10.364  19.805  0.00  0.00    +0.000 N 
ATOM      4  C   UNL     1       1.841  11.416  19.611  0.00  0.00    +0.000 C 
ATOM      5  C   UNL     1       2.081  11.370  18.116  0.00  0.00    +0.000 C 
ATOM      6  C   UNL     1       2.008   9.880  17.781  0.00  0.00    +0.000 C 
ATOM      7  C   UNL     1       1.088   9.272  18.857  0.00  0.00    +0.000 C 
ENDROOT
BRANCH   7   8
ATOM      8  C   UNL     1       1.843   8.121  19.555  0.00  0.00    +0.000 C 
ATOM      9  O   UNL     1       1.978   8.071  20.779  0.00  0.00    +0.000 OA
ATOM     10  N   UNL     1       2.448   7.228  18.694  0.00  0.00    +0.000 N 
ATOM     11  H   UNL     1       2.018   7.095  17.785  0.00  0.00    +0.000 HD
BRANCH  10  12
ATOM     12  C   UNL     1       3.271   6.132  19.198  0.00  0.00    +0.000 C 
ATOM     13  C   UNL     1       4.598   6.047  18.419  0.00  0.00    +0.000 C 
ATOM     14  C   UNL     1       4.359   5.499  17.016  0.00  0.00    +0.000 C 
ATOM     15  C   UNL     1       3.855   4.062  17.094  0.00  0.00    +0.000 C 
ATOM     16  C   UNL     1       2.747   3.876  18.102  0.00  0.00    +0.000 A 
ATOM     17  C   UNL     1       1.990   2.694  18.056  0.00  0.00    +0.000 A 
ATOM     18  C   UNL     1       0.979   2.459  18.986  0.00  0.00    +0.000 A 
ATOM     19  C   UNL     1       0.728   3.396  19.982  0.00  0.00    +0.000 A 
ATOM     20  C   UNL     1       1.490   4.563  20.054  0.00  0.00    +0.000 A 
ATOM     21  C   UNL     1       2.503   4.823  19.114  0.00  0.00    +0.000 A 
ENDBRANCH  10  12
ENDBRANCH   7   8
BRANCH   1  22
ATOM     22  C   UNL     1      -0.266  11.509  21.702  0.00  0.00    +0.000 C 
BRANCH  22  23
ATOM     23  N   UNL     1      -0.942  12.576  20.958  0.00  0.00    +0.000 N 
ATOM     24  C   UNL     1      -0.502  13.879  20.994  0.00  0.00    +0.000 C 
ATOM     25  O   UNL     1       0.561  14.182  21.535  0.00  0.00    +0.000 OA
ATOM     26  H   UNL     1      -1.862  12.373  20.592  0.00  0.00    +0.000 HD
BRANCH  24  27
ATOM     27  C   UNL     1      -1.374  14.914  20.240  0.00  0.00    +0.000 C 
ATOM     28  C   UNL     1      -0.814  16.326  20.422  0.00  0.00    +0.000 C 
BRANCH  27  29
ATOM     29  N   UNL     1      -2.811  14.844  20.588  0.00  0.00    +0.000 NA
ATOM     30  C   UNL     1      -3.138  15.387  21.898  0.00  0.00    +0.000 C 
ATOM     31  H   UNL     1      -3.174  13.904  20.468  0.00  0.00    +0.000 HD
ENDBRANCH  27  29
ENDBRANCH  24  27
ENDBRANCH  22  23
BRANCH  22  33
ATOM     32  C   UNL     1      -2.354  11.924  23.085  0.00  0.00    +0.000 C 
ATOM     33  C   UNL     1      -1.046  11.151  22.976  0.00  0.00    +0.000 C 
ENDBRANCH  22  33
ENDBRANCH   1  22
TORSDOF 7
ENDMDL
MODEL 8
REMARK VINA RESULT:      -6.8      2.757      5.951
REMARK  Name = 
REMARK  10 active torsions:
REMARK  status: ('A' for Active; 'I' for Inactive)
REMARK    1  A    between atoms: C_1  and  C_2
REMARK    2  A    between atoms: C_2  and  C_3
REMARK    3  A    between atoms: C_3  and  N_4
REMARK    4  A    between atoms: C_3  and  C_11
REMARK    5  A    between atoms: C_5  and  C_7
REMARK    6  A    between atoms: C_7  and  C_8
REMARK    7  A    between atoms: C_7  and  N_9
REMARK    8  A    between atoms: N_9  and  C_10
REMARK    9  A    between atoms: C_17  and  C_18
REMARK   10  A    between atoms: N_20  and  C_21
REMARK                            x       y       z     vdW  Elec       q    Type
REMARK                         _______ _______ _______ _____ _____    ______ ____
ROOT
ATOM      1  C   UNL     1       2.480   5.553  20.109  0.00  0.00    +0.000 C 
ATOM      2  O   UNL     1       3.057   5.579  21.197  0.00  0.00    +0.000 OA
ATOM      3  N   UNL     1       2.222   4.364  19.466  0.00  0.00    +0.000 N 
ATOM      4  C   UNL     1       1.419   4.151  18.279  0.00  0.00    +0.000 C 
ATOM      5  C   UNL     1       0.827   2.778  18.524  0.00  0.00    +0.000 C 
ATOM      6  C   UNL     1       1.952   2.017  19.226  0.00  0.00    +0.000 C 
ATOM      7  C   UNL     1       2.783   3.100  19.942  0.00  0.00    +0.000 C 
ENDROOT
BRANCH   7   8
ATOM      8  C   UNL     1       4.252   2.975  19.483  0.00  0.00    +0.000 C 
ATOM      9  O   UNL     1       4.974   2.043  19.842  0.00  0.00    +0.000 OA
ATOM     10  N   UNL     1       4.714   4.044  18.744  0.00  0.00    +0.000 N 
ATOM     11  H   UNL     1       4.035   4.554  18.188  0.00  0.00    +0.000 HD
BRANCH  10  12
ATOM     12  C   UNL     1       6.106   4.117  18.308  0.00  0.00    +0.000 C 
ATOM     13  C   UNL     1       6.864   5.206  19.090  0.00  0.00    +0.000 C 
ATOM     14  C   UNL     1       6.430   6.594  18.629  0.00  0.00    +0.000 C 
ATOM     15  C   UNL     1       6.825   6.808  17.172  0.00  0.00    +0.000 C 
ATOM     16  C   UNL     1       6.462   5.645  16.282  0.00  0.00    +0.000 A 
ATOM     17  C   UNL     1       6.482   5.832  14.890  0.00  0.00    +0.000 A 
ATOM     18  C   UNL     1       6.190   4.779  14.025  0.00  0.00    +0.000 A 
ATOM     19  C   UNL     1       5.891   3.524  14.543  0.00  0.00    +0.000 A 
ATOM     20  C   UNL     1       5.892   3.319  15.924  0.00  0.00    +0.000 A 
ATOM     21  C   UNL     1       6.170   4.373  16.811  0.00  0.00    +0.000 A 
ENDBRANCH  10  12
ENDBRANCH   7   8
BRANCH   1  22
ATOM     22  C   UNL     1       1.863   6.825  19.492  0.00  0.00    +0.000 C 
BRANCH  22  23
ATOM     23  N   UNL     1       1.947   7.861  20.527  0.00  0.00    +0.000 N 
ATOM     24  C   UNL     1       0.845   8.259  21.248  0.00  0.00    +0.000 C 
ATOM     25  O   UNL     1      -0.229   7.664  21.160  0.00  0.00    +0.000 OA
ATOM     26  H   UNL     1       2.784   8.426  20.549  0.00  0.00    +0.000 HD
BRANCH  24  27
ATOM     27  C   UNL     1       1.064   9.432  22.236  0.00  0.00    +0.000 C 
ATOM     28  C   UNL     1      -0.023   9.441  23.312  0.00  0.00    +0.000 C 
BRANCH  27  29
ATOM     29  N   UNL     1       1.191  10.750  21.573  0.00  0.00    +0.000 NA
ATOM     30  C   UNL     1      -0.065  11.472  21.430  0.00  0.00    +0.000 C 
ATOM     31  H   UNL     1       1.684  10.672  20.689  0.00  0.00    +0.000 HD
ENDBRANCH  27  29
ENDBRANCH  24  27
ENDBRANCH  22  23
BRANCH  22  33
ATOM     32  C   UNL     1       2.226   8.687  17.804  0.00  0.00    +0.000 C 
ATOM     33  C   UNL     1       2.594   7.267  18.216  0.00  0.00    +0.000 C 
ENDBRANCH  22  33
ENDBRANCH   1  22
TORSDOF 7
ENDMDL
MODEL 9
REMARK VINA RESULT:      -6.8      2.576      4.280
REMARK  Name = 
REMARK  10 active torsions:
REMARK  status: ('A' for Active; 'I' for Inactive)
REMARK    1  A    between atoms: C_1  and  C_2
REMARK    2  A    between atoms: C_2  and  C_3
REMARK    3  A    between atoms: C_3  and  N_4
REMARK    4  A    between atoms: C_3  and  C_11
REMARK    5  A    between atoms: C_5  and  C_7
REMARK    6  A    between atoms: C_7  and  C_8
REMARK    7  A    between atoms: C_7  and  N_9
REMARK    8  A    between atoms: N_9  and  C_10
REMARK    9  A    between atoms: C_17  and  C_18
REMARK   10  A    between atoms: N_20  and  C_21
REMARK                            x       y       z     vdW  Elec       q    Type
REMARK                         _______ _______ _______ _____ _____    ______ ____
ROOT
ATOM      1  C   UNL     1       0.674  11.276  19.216  0.00  0.00    +0.000 C 
ATOM      2  O   UNL     1       1.789  11.689  18.897  0.00  0.00    +0.000 OA
ATOM      3  N   UNL     1       0.520  10.091  19.899  0.00  0.00    +0.000 N 
ATOM      4  C   UNL     1      -0.691   9.554  20.485  0.00  0.00    +0.000 C 
ATOM      5  C   UNL     1      -0.168   8.810  21.697  0.00  0.00    +0.000 C 
ATOM      6  C   UNL     1       1.161   8.224  21.218  0.00  0.00    +0.000 C 
ATOM      7  C   UNL     1       1.643   9.178  20.107  0.00  0.00    +0.000 C 
ENDROOT
BRANCH   7   8
ATOM      8  C   UNL     1       1.890   8.353  18.825  0.00  0.00    +0.000 C 
ATOM      9  O   UNL     1       1.410   8.673  17.737  0.00  0.00    +0.000 OA
ATOM     10  N   UNL     1       2.587   7.179  19.025  0.00  0.00    +0.000 N 
ATOM     11  H   UNL     1       3.246   7.155  19.797  0.00  0.00    +0.000 HD
BRANCH  10  12
ATOM     12  C   UNL     1       2.828   6.247  17.928  0.00  0.00    +0.000 C 
ATOM     13  C   UNL     1       2.038   4.941  18.139  0.00  0.00    +0.000 C 
ATOM     14  C   UNL     1       2.664   4.113  19.257  0.00  0.00    +0.000 C 
ATOM     15  C   UNL     1       4.064   3.664  18.853  0.00  0.00    +0.000 C 
ATOM     16  C   UNL     1       4.901   4.779  18.273  0.00  0.00    +0.000 A 
ATOM     17  C   UNL     1       6.286   4.584  18.151  0.00  0.00    +0.000 A 
ATOM     18  C   UNL     1       7.097   5.569  17.589  0.00  0.00    +0.000 A 
ATOM     19  C   UNL     1       6.527   6.750  17.128  0.00  0.00    +0.000 A 
ATOM     20  C   UNL     1       5.148   6.945  17.221  0.00  0.00    +0.000 A 
ATOM     21  C   UNL     1       4.317   5.969  17.798  0.00  0.00    +0.000 A 
ENDBRANCH  10  12
ENDBRANCH   7   8
BRANCH   1  22
ATOM     22  C   UNL     1      -0.591  12.139  19.027  0.00  0.00    +0.000 C 
BRANCH  22  23
ATOM     23  N   UNL     1      -0.125  13.526  18.921  0.00  0.00    +0.000 N 
ATOM     24  C   UNL     1      -0.132  14.380  20.000  0.00  0.00    +0.000 C 
ATOM     25  O   UNL     1      -0.392  13.978  21.134  0.00  0.00    +0.000 OA
ATOM     26  H   UNL     1      -0.002  13.902  17.991  0.00  0.00    +0.000 HD
BRANCH  24  27
ATOM     27  C   UNL     1       0.293  15.842  19.715  0.00  0.00    +0.000 C 
ATOM     28  C   UNL     1      -0.420  16.379  18.473  0.00  0.00    +0.000 C 
BRANCH  27  29
ATOM     29  N   UNL     1       1.759  16.027  19.631  0.00  0.00    +0.000 NA
ATOM     30  C   UNL     1       2.319  16.857  20.688  0.00  0.00    +0.000 C 
ATOM     31  H   UNL     1       2.037  16.351  18.709  0.00  0.00    +0.000 HD
ENDBRANCH  27  29
ENDBRANCH  24  27
ENDBRANCH  22  23
BRANCH  22  33
ATOM     32  C   UNL     1      -2.867  11.512  18.091  0.00  0.00    +0.000 C 
ATOM     33  C   UNL     1      -1.392  11.734  17.781  0.00  0.00    +0.000 C 
ENDBRANCH  22  33
ENDBRANCH   1  22
TORSDOF 7
ENDMDL
