MODEL 1
REMARK VINA RESULT:      -6.7      0.000      0.000
REMARK  Name = 
REMARK  9 active torsions:
REMARK  status: ('A' for Active; 'I' for Inactive)
REMARK    1  A    between atoms: C_1  and  O_2
REMARK    2  A    between atoms: O_2  and  C_3
REMARK    3  A    between atoms: C_6  and  N_7
REMARK    4  A    between atoms: N_7  and  C_8
REMARK    5  A    between atoms: N_7  and  C_9
REMARK    6  A    between atoms: C_11  and  C_12
REMARK    7  A    between atoms: N_17  and  C_18
REMARK    8  A    between atoms: C_18  and  C_19
REMARK    9  A    between atoms: C_18  and  C_20
REMARK                            x       y       z     vdW  Elec       q    Type
REMARK                         _______ _______ _______ _____ _____    ______ ____
ROOT
ATOM      1  C   UNL     1       4.374   5.748  18.152  0.00  0.00    +0.000 A 
ATOM      2  N   UNL     1       3.959   7.023  17.856  0.00  0.00    +0.000 NA
ATOM      3  C   UNL     1       2.748   7.535  18.203  0.00  0.00    +0.000 A 
ATOM      4  C   UNL     1       2.402   8.953  17.891  0.00  0.00    +0.000 C 
ATOM      5  N   UNL     1       1.850   6.756  18.846  0.00  0.00    +0.000 NA
ATOM      6  C   UNL     1       2.186   5.486  19.146  0.00  0.00    +0.000 A 
ATOM      7  C   UNL     1       1.371   4.582  19.760  0.00  0.00    +0.000 A 
ATOM      8  C   UNL     1       2.115   3.440  19.845  0.00  0.00    +0.000 A 
ATOM      9  N   UNL     1       3.355   3.595  19.302  0.00  0.00    +0.000 N 
ATOM     10  C   UNL     1       3.409   4.903  18.849  0.00  0.00    +0.000 A 
ENDROOT
BRANCH   9  11
ATOM     11  C   UNL     1       4.306   2.464  19.338  0.00  0.00    +0.000 C 
ATOM     12  C   UNL     1       4.479   1.996  20.801  0.00  0.00    +0.000 C 
ATOM     13  C   UNL     1       3.875   1.289  18.460  0.00  0.00    +0.000 C 
ENDBRANCH   9  11
BRANCH   1  14
ATOM     14  N   UNL     1       5.692   5.391  17.674  0.00  0.00    +0.000 N 
ATOM     15  C   UNL     1       6.783   5.471  18.643  0.00  0.00    +0.000 C 
BRANCH  14  19
ATOM     16  C   UNL     1       6.305   4.043  13.684  0.00  0.00    +0.000 A 
ATOM     17  C   UNL     1       5.177   3.656  14.409  0.00  0.00    +0.000 A 
ATOM     18  C   UNL     1       4.994   4.065  15.732  0.00  0.00    +0.000 A 
ATOM     19  C   UNL     1       5.948   4.875  16.363  0.00  0.00    +0.000 A 
ATOM     20  C   UNL     1       7.133   5.206  15.658  0.00  0.00    +0.000 A 
ATOM     21  C   UNL     1       7.303   4.799  14.326  0.00  0.00    +0.000 A 
BRANCH  16  23
ATOM     22  C   UNL     1       5.770   2.606  11.775  0.00  0.00    +0.000 C 
ATOM     23  O   UNL     1       6.351   3.706  12.370  0.00  0.00    +0.000 OA
ENDBRANCH  16  23
ENDBRANCH  14  19
ENDBRANCH   1  14
TORSDOF 4
ENDMDL
MODEL 2
REMARK VINA RESULT:      -6.7      1.299      3.791
REMARK  Name = 
REMARK  9 active torsions:
REMARK  status: ('A' for Active; 'I' for Inactive)
REMARK    1  A    between atoms: C_1  and  O_2
REMARK    2  A    between atoms: O_2  and  C_3
REMARK    3  A    between atoms: C_6  and  N_7
REMARK    4  A    between atoms: N_7  and  C_8
REMARK    5  A    between atoms: N_7  and  C_9
REMARK    6  A    between atoms: C_11  and  C_12
REMARK    7  A    between atoms: N_17  and  C_18
REMARK    8  A    between atoms: C_18  and  C_19
REMARK    9  A    between atoms: C_18  and  C_20
REMARK                            x       y       z     vdW  Elec       q    Type
REMARK                         _______ _______ _______ _____ _____    ______ ____
ROOT
ATOM      1  C   UNL     1       4.833   4.152  19.234  0.00  0.00    +0.000 A 
ATOM      2  N   UNL     1       5.252   2.885  19.556  0.00  0.00    +0.000 NA
ATOM      3  C   UNL     1       4.533   2.007  20.306  0.00  0.00    +0.000 A 
ATOM      4  C   UNL     1       5.039   0.627  20.558  0.00  0.00    +0.000 C 
ATOM      5  N   UNL     1       3.342   2.386  20.822  0.00  0.00    +0.000 NA
ATOM      6  C   UNL     1       2.884   3.627  20.563  0.00  0.00    +0.000 A 
ATOM      7  C   UNL     1       1.721   4.151  21.044  0.00  0.00    +0.000 A 
ATOM      8  C   UNL     1       1.674   5.420  20.542  0.00  0.00    +0.000 A 
ATOM      9  N   UNL     1       2.764   5.708  19.776  0.00  0.00    +0.000 N 
ATOM     10  C   UNL     1       3.547   4.565  19.787  0.00  0.00    +0.000 A 
ENDROOT
BRANCH   9  11
ATOM     11  C   UNL     1       2.861   7.032  19.126  0.00  0.00    +0.000 C 
ATOM     12  C   UNL     1       2.635   6.865  17.606  0.00  0.00    +0.000 C 
ATOM     13  C   UNL     1       1.874   8.052  19.693  0.00  0.00    +0.000 C 
ENDBRANCH   9  11
BRANCH   1  14
ATOM     14  N   UNL     1       5.757   4.935  18.442  0.00  0.00    +0.000 N 
ATOM     15  C   UNL     1       6.662   5.818  19.175  0.00  0.00    +0.000 C 
BRANCH  14  19
ATOM     16  C   UNL     1       6.296   4.344  14.262  0.00  0.00    +0.000 A 
ATOM     17  C   UNL     1       7.267   4.991  15.028  0.00  0.00    +0.000 A 
ATOM     18  C   UNL     1       7.074   5.221  16.393  0.00  0.00    +0.000 A 
ATOM     19  C   UNL     1       5.892   4.807  17.022  0.00  0.00    +0.000 A 
ATOM     20  C   UNL     1       4.870   4.220  16.233  0.00  0.00    +0.000 A 
ATOM     21  C   UNL     1       5.077   3.984  14.865  0.00  0.00    +0.000 A 
BRANCH  16  23
ATOM     22  C   UNL     1       5.946   3.175  12.139  0.00  0.00    +0.000 C 
ATOM     23  O   UNL     1       6.608   4.051  12.973  0.00  0.00    +0.000 OA
ENDBRANCH  16  23
ENDBRANCH  14  19
ENDBRANCH   1  14
TORSDOF 4
ENDMDL
MODEL 3
REMARK VINA RESULT:      -6.6      0.969      1.419
REMARK  Name = 
REMARK  9 active torsions:
REMARK  status: ('A' for Active; 'I' for Inactive)
REMARK    1  A    between atoms: C_1  and  O_2
REMARK    2  A    between atoms: O_2  and  C_3
REMARK    3  A    between atoms: C_6  and  N_7
REMARK    4  A    between atoms: N_7  and  C_8
REMARK    5  A    between atoms: N_7  and  C_9
REMARK    6  A    between atoms: C_11  and  C_12
REMARK    7  A    between atoms: N_17  and  C_18
REMARK    8  A    between atoms: C_18  and  C_19
REMARK    9  A    between atoms: C_18  and  C_20
REMARK                            x       y       z     vdW  Elec       q    Type
REMARK                         _______ _______ _______ _____ _____    ______ ____
ROOT
ATOM      1  C   UNL     1       4.107   5.542  19.093  0.00  0.00    +0.000 A 
ATOM      2  N   UNL     1       3.561   6.802  19.076  0.00  0.00    +0.000 NA
ATOM      3  C   UNL     1       2.335   7.113  19.578  0.00  0.00    +0.000 A 
ATOM      4  C   UNL     1       1.844   8.521  19.571  0.00  0.00    +0.000 C 
ATOM      5  N   UNL     1       1.557   6.138  20.097  0.00  0.00    +0.000 NA
ATOM      6  C   UNL     1       2.024   4.874  20.122  0.00  0.00    +0.000 A 
ATOM      7  C   UNL     1       1.336   3.791  20.583  0.00  0.00    +0.000 A 
ATOM      8  C   UNL     1       2.183   2.735  20.402  0.00  0.00    +0.000 A 
ATOM      9  N   UNL     1       3.365   3.116  19.841  0.00  0.00    +0.000 N 
ATOM     10  C   UNL     1       3.271   4.486  19.654  0.00  0.00    +0.000 A 
ENDROOT
BRANCH   9  11
ATOM     11  C   UNL     1       4.413   2.101  19.604  0.00  0.00    +0.000 C 
ATOM     12  C   UNL     1       4.802   1.455  20.953  0.00  0.00    +0.000 C 
ATOM     13  C   UNL     1       3.989   1.022  18.608  0.00  0.00    +0.000 C 
ENDBRANCH   9  11
BRANCH   1  14
ATOM     14  N   UNL     1       5.415   5.418  18.489  0.00  0.00    +0.000 N 
ATOM     15  C   UNL     1       6.563   5.503  19.390  0.00  0.00    +0.000 C 
BRANCH  14  19
ATOM     16  C   UNL     1       6.186   4.331  14.447  0.00  0.00    +0.000 A 
ATOM     17  C   UNL     1       7.087   5.119  15.164  0.00  0.00    +0.000 A 
ATOM     18  C   UNL     1       6.817   5.511  16.478  0.00  0.00    +0.000 A 
ATOM     19  C   UNL     1       5.626   5.119  17.105  0.00  0.00    +0.000 A 
ATOM     20  C   UNL     1       4.672   4.383  16.355  0.00  0.00    +0.000 A 
ATOM     21  C   UNL     1       4.957   3.986  15.039  0.00  0.00    +0.000 A 
BRANCH  16  23
ATOM     22  C   UNL     1       5.790   3.261  12.281  0.00  0.00    +0.000 C 
ATOM     23  O   UNL     1       6.575   3.893  13.222  0.00  0.00    +0.000 OA
ENDBRANCH  16  23
ENDBRANCH  14  19
ENDBRANCH   1  14
TORSDOF 4
ENDMDL
MODEL 4
REMARK VINA RESULT:      -6.6      0.188      1.024
REMARK  Name = 
REMARK  9 active torsions:
REMARK  status: ('A' for Active; 'I' for Inactive)
REMARK    1  A    between atoms: C_1  and  O_2
REMARK    2  A    between atoms: O_2  and  C_3
REMARK    3  A    between atoms: C_6  and  N_7
REMARK    4  A    between atoms: N_7  and  C_8
REMARK    5  A    between atoms: N_7  and  C_9
REMARK    6  A    between atoms: C_11  and  C_12
REMARK    7  A    between atoms: N_17  and  C_18
REMARK    8  A    between atoms: C_18  and  C_19
REMARK    9  A    between atoms: C_18  and  C_20
REMARK                            x       y       z     vdW  Elec       q    Type
REMARK                         _______ _______ _______ _____ _____    ______ ____
ROOT
ATOM      1  C   UNL     1       4.332   5.749  18.149  0.00  0.00    +0.000 A 
ATOM      2  N   UNL     1       3.920   7.026  17.858  0.00  0.00    +0.000 NA
ATOM      3  C   UNL     1       2.746   7.567  18.279  0.00  0.00    +0.000 A 
ATOM      4  C   UNL     1       2.404   8.985  17.965  0.00  0.00    +0.000 C 
ATOM      5  N   UNL     1       1.882   6.817  18.999  0.00  0.00    +0.000 NA
ATOM      6  C   UNL     1       2.215   5.547  19.299  0.00  0.00    +0.000 A 
ATOM      7  C   UNL     1       1.430   4.669  19.986  0.00  0.00    +0.000 A 
ATOM      8  C   UNL     1       2.157   3.515  20.041  0.00  0.00    +0.000 A 
ATOM      9  N   UNL     1       3.359   3.637  19.409  0.00  0.00    +0.000 N 
ATOM     10  C   UNL     1       3.404   4.935  18.928  0.00  0.00    +0.000 A 
ENDROOT
BRANCH   9  11
ATOM     11  C   UNL     1       4.290   2.489  19.400  0.00  0.00    +0.000 C 
ATOM     12  C   UNL     1       4.453   1.960  20.843  0.00  0.00    +0.000 C 
ATOM     13  C   UNL     1       3.840   1.358  18.476  0.00  0.00    +0.000 C 
ENDBRANCH   9  11
BRANCH   1  14
ATOM     14  N   UNL     1       5.606   5.358  17.587  0.00  0.00    +0.000 N 
ATOM     15  C   UNL     1       6.726   5.245  18.520  0.00  0.00    +0.000 C 
BRANCH  14  19
ATOM     16  C   UNL     1       6.278   4.044  13.595  0.00  0.00    +0.000 A 
ATOM     17  C   UNL     1       7.238   4.793  14.277  0.00  0.00    +0.000 A 
ATOM     18  C   UNL     1       7.003   5.259  15.573  0.00  0.00    +0.000 A 
ATOM     19  C   UNL     1       5.789   4.984  16.217  0.00  0.00    +0.000 A 
ATOM     20  C   UNL     1       4.780   4.291  15.500  0.00  0.00    +0.000 A 
ATOM     21  C   UNL     1       5.029   3.818  14.203  0.00  0.00    +0.000 A 
BRANCH  16  23
ATOM     22  C   UNL     1       5.989   2.513  11.706  0.00  0.00    +0.000 C 
ATOM     23  O   UNL     1       6.628   3.526  12.390  0.00  0.00    +0.000 OA
ENDBRANCH  16  23
ENDBRANCH  14  19
ENDBRANCH   1  14
TORSDOF 4
ENDMDL
MODEL 5
REMARK VINA RESULT:      -6.3      5.440      8.873
REMARK  Name = 
REMARK  9 active torsions:
REMARK  status: ('A' for Active; 'I' for Inactive)
REMARK    1  A    between atoms: C_1  and  O_2
REMARK    2  A    between atoms: O_2  and  C_3
REMARK    3  A    between atoms: C_6  and  N_7
REMARK    4  A    between atoms: N_7  and  C_8
REMARK    5  A    between atoms: N_7  and  C_9
REMARK    6  A    between atoms: C_11  and  C_12
REMARK    7  A    between atoms: N_17  and  C_18
REMARK    8  A    between atoms: C_18  and  C_19
REMARK    9  A    between atoms: C_18  and  C_20
REMARK                            x       y       z     vdW  Elec       q    Type
REMARK                         _______ _______ _______ _____ _____    ______ ____
ROOT
ATOM      1  C   UNL     1      -0.957  11.353  18.611  0.00  0.00    +0.000 A 
ATOM      2  N   UNL     1      -1.410  11.001  17.363  0.00  0.00    +0.000 NA
ATOM      3  C   UNL     1      -2.695  11.150  16.945  0.00  0.00    +0.000 A 
ATOM      4  C   UNL     1      -3.089  10.796  15.550  0.00  0.00    +0.000 C 
ATOM      5  N   UNL     1      -3.626  11.633  17.797  0.00  0.00    +0.000 NA
ATOM      6  C   UNL     1      -3.252  11.975  19.046  0.00  0.00    +0.000 A 
ATOM      7  C   UNL     1      -4.087  12.442  20.017  0.00  0.00    +0.000 A 
ATOM      8  C   UNL     1      -3.286  12.639  21.105  0.00  0.00    +0.000 A 
ATOM      9  N   UNL     1      -1.988  12.307  20.852  0.00  0.00    +0.000 N 
ATOM     10  C   UNL     1      -1.957  11.877  19.535  0.00  0.00    +0.000 A 
ENDROOT
BRANCH   9  11
ATOM     11  C   UNL     1      -0.976  12.489  21.913  0.00  0.00    +0.000 C 
ATOM     12  C   UNL     1      -1.319  13.759  22.725  0.00  0.00    +0.000 C 
ATOM     13  C   UNL     1      -0.862  11.285  22.847  0.00  0.00    +0.000 C 
ENDBRANCH   9  11
BRANCH   1  14
ATOM     14  N   UNL     1       0.444  11.093  18.865  0.00  0.00    +0.000 N 
ATOM     15  C   UNL     1       1.307  12.262  19.028  0.00  0.00    +0.000 C 
BRANCH  14  19
ATOM     16  C   UNL     1       2.282   7.305  19.487  0.00  0.00    +0.000 A 
ATOM     17  C   UNL     1       2.274   7.903  18.226  0.00  0.00    +0.000 A 
ATOM     18  C   UNL     1       1.636   9.128  18.011  0.00  0.00    +0.000 A 
ATOM     19  C   UNL     1       0.985   9.783  19.065  0.00  0.00    +0.000 A 
ATOM     20  C   UNL     1       0.923   9.143  20.330  0.00  0.00    +0.000 A 
ATOM     21  C   UNL     1       1.575   7.918  20.538  0.00  0.00    +0.000 A 
BRANCH  16  23
ATOM     22  C   UNL     1       2.636   5.010  20.262  0.00  0.00    +0.000 C 
ATOM     23  O   UNL     1       3.023   6.178  19.641  0.00  0.00    +0.000 OA
ENDBRANCH  16  23
ENDBRANCH  14  19
ENDBRANCH   1  14
TORSDOF 4
ENDMDL
MODEL 6
REMARK VINA RESULT:      -6.3      1.253      3.635
REMARK  Name = 
REMARK  9 active torsions:
REMARK  status: ('A' for Active; 'I' for Inactive)
REMARK    1  A    between atoms: C_1  and  O_2
REMARK    2  A    between atoms: O_2  and  C_3
REMARK    3  A    between atoms: C_6  and  N_7
REMARK    4  A    between atoms: N_7  and  C_8
REMARK    5  A    between atoms: N_7  and  C_9
REMARK    6  A    between atoms: C_11  and  C_12
REMARK    7  A    between atoms: N_17  and  C_18
REMARK    8  A    between atoms: C_18  and  C_19
REMARK    9  A    between atoms: C_18  and  C_20
REMARK                            x       y       z     vdW  Elec       q    Type
REMARK                         _______ _______ _______ _____ _____    ______ ____
ROOT
ATOM      1  C   UNL     1       4.867   4.199  19.203  0.00  0.00    +0.000 A 
ATOM      2  N   UNL     1       5.251   2.932  19.569  0.00  0.00    +0.000 NA
ATOM      3  C   UNL     1       4.510   2.102  20.351  0.00  0.00    +0.000 A 
ATOM      4  C   UNL     1       4.979   0.718  20.651  0.00  0.00    +0.000 C 
ATOM      5  N   UNL     1       3.332   2.531  20.854  0.00  0.00    +0.000 NA
ATOM      6  C   UNL     1       2.907   3.774  20.553  0.00  0.00    +0.000 A 
ATOM      7  C   UNL     1       1.760   4.346  21.016  0.00  0.00    +0.000 A 
ATOM      8  C   UNL     1       1.747   5.597  20.470  0.00  0.00    +0.000 A 
ATOM      9  N   UNL     1       2.842   5.829  19.693  0.00  0.00    +0.000 N 
ATOM     10  C   UNL     1       3.594   4.666  19.743  0.00  0.00    +0.000 A 
ENDROOT
BRANCH   9  11
ATOM     11  C   UNL     1       2.974   7.126  18.997  0.00  0.00    +0.000 C 
ATOM     12  C   UNL     1       2.967   6.882  17.471  0.00  0.00    +0.000 C 
ATOM     13  C   UNL     1       1.877   8.122  19.373  0.00  0.00    +0.000 C 
ENDBRANCH   9  11
BRANCH   1  14
ATOM     14  N   UNL     1       5.810   4.928  18.383  0.00  0.00    +0.000 N 
ATOM     15  C   UNL     1       6.625   5.935  19.060  0.00  0.00    +0.000 C 
BRANCH  14  19
ATOM     16  C   UNL     1       6.382   4.281  14.216  0.00  0.00    +0.000 A 
ATOM     17  C   UNL     1       5.225   3.842  14.860  0.00  0.00    +0.000 A 
ATOM     18  C   UNL     1       5.053   4.018  16.235  0.00  0.00    +0.000 A 
ATOM     19  C   UNL     1       6.048   4.640  17.001  0.00  0.00    +0.000 A 
ATOM     20  C   UNL     1       7.259   5.018  16.366  0.00  0.00    +0.000 A 
ATOM     21  C   UNL     1       7.418   4.846  14.982  0.00  0.00    +0.000 A 
BRANCH  16  23
ATOM     22  C   UNL     1       5.890   3.173  12.089  0.00  0.00    +0.000 C 
ATOM     23  O   UNL     1       6.422   4.183  12.862  0.00  0.00    +0.000 OA
ENDBRANCH  16  23
ENDBRANCH  14  19
ENDBRANCH   1  14
TORSDOF 4
ENDMDL
MODEL 7
REMARK VINA RESULT:      -6.3      5.390      8.861
REMARK  Name = 
REMARK  9 active torsions:
REMARK  status: ('A' for Active; 'I' for Inactive)
REMARK    1  A    between atoms: C_1  and  O_2
REMARK    2  A    between atoms: O_2  and  C_3
REMARK    3  A    between atoms: C_6  and  N_7
REMARK    4  A    between atoms: N_7  and  C_8
REMARK    5  A    between atoms: N_7  and  C_9
REMARK    6  A    between atoms: C_11  and  C_12
REMARK    7  A    between atoms: N_17  and  C_18
REMARK    8  A    between atoms: C_18  and  C_19
REMARK    9  A    between atoms: C_18  and  C_20
REMARK                            x       y       z     vdW  Elec       q    Type
REMARK                         _______ _______ _______ _____ _____    ______ ____
ROOT
ATOM      1  C   UNL     1      -0.989  11.137  18.422  0.00  0.00    +0.000 A 
ATOM      2  N   UNL     1      -1.363  10.501  17.263  0.00  0.00    +0.000 NA
ATOM      3  C   UNL     1      -2.637  10.458  16.789  0.00  0.00    +0.000 A 
ATOM      4  C   UNL     1      -2.944   9.795  15.489  0.00  0.00    +0.000 C 
ATOM      5  N   UNL     1      -3.635  11.032  17.497  0.00  0.00    +0.000 NA
ATOM      6  C   UNL     1      -3.339  11.652  18.657  0.00  0.00    +0.000 A 
ATOM      7  C   UNL     1      -4.247  12.241  19.486  0.00  0.00    +0.000 A 
ATOM      8  C   UNL     1      -3.508  12.720  20.530  0.00  0.00    +0.000 A 
ATOM      9  N   UNL     1      -2.181  12.447  20.386  0.00  0.00    +0.000 N 
ATOM     10  C   UNL     1      -2.064  11.759  19.189  0.00  0.00    +0.000 A 
ENDROOT
BRANCH   9  11
ATOM     11  C   UNL     1      -1.230  12.924  21.413  0.00  0.00    +0.000 C 
ATOM     12  C   UNL     1      -1.871  14.097  22.188  0.00  0.00    +0.000 C 
ATOM     13  C   UNL     1      -0.797  11.827  22.385  0.00  0.00    +0.000 C 
ENDBRANCH   9  11
BRANCH   1  14
ATOM     14  N   UNL     1       0.414  11.047  18.762  0.00  0.00    +0.000 N 
ATOM     15  C   UNL     1       1.129  12.311  18.930  0.00  0.00    +0.000 C 
BRANCH  14  19
ATOM     16  C   UNL     1       2.190   7.261  19.553  0.00  0.00    +0.000 A 
ATOM     17  C   UNL     1       1.560   7.986  20.565  0.00  0.00    +0.000 A 
ATOM     18  C   UNL     1       1.012   9.247  20.317  0.00  0.00    +0.000 A 
ATOM     19  C   UNL     1       1.087   9.813  19.037  0.00  0.00    +0.000 A 
ATOM     20  C   UNL     1       1.794   9.116  18.024  0.00  0.00    +0.000 A 
ATOM     21  C   UNL     1       2.332   7.846  18.281  0.00  0.00    +0.000 A 
BRANCH  16  23
ATOM     22  C   UNL     1       3.811   5.426  19.555  0.00  0.00    +0.000 C 
ATOM     23  O   UNL     1       2.589   5.996  19.844  0.00  0.00    +0.000 OA
ENDBRANCH  16  23
ENDBRANCH  14  19
ENDBRANCH   1  14
TORSDOF 4
ENDMDL
MODEL 8
REMARK VINA RESULT:      -6.3      3.059      6.138
REMARK  Name = 
REMARK  9 active torsions:
REMARK  status: ('A' for Active; 'I' for Inactive)
REMARK    1  A    between atoms: C_1  and  O_2
REMARK    2  A    between atoms: O_2  and  C_3
REMARK    3  A    between atoms: C_6  and  N_7
REMARK    4  A    between atoms: N_7  and  C_8
REMARK    5  A    between atoms: N_7  and  C_9
REMARK    6  A    between atoms: C_11  and  C_12
REMARK    7  A    between atoms: N_17  and  C_18
REMARK    8  A    between atoms: C_18  and  C_19
REMARK    9  A    between atoms: C_18  and  C_20
REMARK                            x       y       z     vdW  Elec       q    Type
REMARK                         _______ _______ _______ _____ _____    ______ ____
ROOT
ATOM      1  C   UNL     1       4.643   6.033  18.082  0.00  0.00    +0.000 A 
ATOM      2  N   UNL     1       5.618   6.996  18.170  0.00  0.00    +0.000 NA
ATOM      3  C   UNL     1       6.726   7.041  17.382  0.00  0.00    +0.000 A 
ATOM      4  C   UNL     1       7.706   8.158  17.507  0.00  0.00    +0.000 C 
ATOM      5  N   UNL     1       6.937   6.068  16.468  0.00  0.00    +0.000 NA
ATOM      6  C   UNL     1       6.029   5.079  16.346  0.00  0.00    +0.000 A 
ATOM      7  C   UNL     1       6.130   4.020  15.493  0.00  0.00    +0.000 A 
ATOM      8  C   UNL     1       5.007   3.278  15.721  0.00  0.00    +0.000 A 
ATOM      9  N   UNL     1       4.217   3.828  16.686  0.00  0.00    +0.000 N 
ATOM     10  C   UNL     1       4.866   4.981  17.095  0.00  0.00    +0.000 A 
ENDROOT
BRANCH   9  11
ATOM     11  C   UNL     1       2.941   3.169  17.036  0.00  0.00    +0.000 C 
ATOM     12  C   UNL     1       3.173   2.229  18.241  0.00  0.00    +0.000 C 
ATOM     13  C   UNL     1       1.821   4.160  17.353  0.00  0.00    +0.000 C 
ENDBRANCH   9  11
BRANCH   1  14
ATOM     14  N   UNL     1       3.555   6.154  19.028  0.00  0.00    +0.000 N 
ATOM     15  C   UNL     1       3.495   5.149  20.087  0.00  0.00    +0.000 C 
BRANCH  14  19
ATOM     16  C   UNL     1       0.976   9.537  19.147  0.00  0.00    +0.000 A 
ATOM     17  C   UNL     1       1.155   8.729  20.270  0.00  0.00    +0.000 A 
ATOM     18  C   UNL     1       1.970   7.595  20.221  0.00  0.00    +0.000 A 
ATOM     19  C   UNL     1       2.626   7.243  19.034  0.00  0.00    +0.000 A 
ATOM     20  C   UNL     1       2.387   8.017  17.869  0.00  0.00    +0.000 A 
ATOM     21  C   UNL     1       1.575   9.160  17.931  0.00  0.00    +0.000 A 
BRANCH  16  23
ATOM     22  C   UNL     1      -1.095  10.842  19.179  0.00  0.00    +0.000 C 
ATOM     23  O   UNL     1       0.268  10.685  19.308  0.00  0.00    +0.000 OA
ENDBRANCH  16  23
ENDBRANCH  14  19
ENDBRANCH   1  14
TORSDOF 4
ENDMDL
MODEL 9
REMARK VINA RESULT:      -6.2      6.065      9.123
REMARK  Name = 
REMARK  9 active torsions:
REMARK  status: ('A' for Active; 'I' for Inactive)
REMARK    1  A    between atoms: C_1  and  O_2
REMARK    2  A    between atoms: O_2  and  C_3
REMARK    3  A    between atoms: C_6  and  N_7
REMARK    4  A    between atoms: N_7  and  C_8
REMARK    5  A    between atoms: N_7  and  C_9
REMARK    6  A    between atoms: C_11  and  C_12
REMARK    7  A    between atoms: N_17  and  C_18
REMARK    8  A    between atoms: C_18  and  C_19
REMARK    9  A    between atoms: C_18  and  C_20
REMARK                            x       y       z     vdW  Elec       q    Type
REMARK                         _______ _______ _______ _____ _____    ______ ____
ROOT
ATOM      1  C   UNL     1      -0.989  11.379  20.184  0.00  0.00    +0.000 A 
ATOM      2  N   UNL     1      -1.750  11.892  21.205  0.00  0.00    +0.000 NA
ATOM      3  C   UNL     1      -1.677  11.478  22.499  0.00  0.00    +0.000 A 
ATOM      4  C   UNL     1      -2.501  12.133  23.556  0.00  0.00    +0.000 C 
ATOM      5  N   UNL     1      -0.843  10.468  22.833  0.00  0.00    +0.000 NA
ATOM      6  C   UNL     1      -0.085   9.903  21.872  0.00  0.00    +0.000 A 
ATOM      7  C   UNL     1       0.771   8.859  22.059  0.00  0.00    +0.000 A 
ATOM      8  C   UNL     1       1.304   8.617  20.826  0.00  0.00    +0.000 A 
ATOM      9  N   UNL     1       0.809   9.463  19.879  0.00  0.00    +0.000 N 
ATOM     10  C   UNL     1      -0.085  10.290  20.540  0.00  0.00    +0.000 A 
ENDROOT
BRANCH   9  11
ATOM     11  C   UNL     1       1.304   9.362  18.490  0.00  0.00    +0.000 C 
ATOM     12  C   UNL     1       2.080  10.651  18.136  0.00  0.00    +0.000 C 
ATOM     13  C   UNL     1       2.187   8.137  18.255  0.00  0.00    +0.000 C 
ENDBRANCH   9  11
BRANCH   1  14
ATOM     14  N   UNL     1      -1.233  11.944  18.875  0.00  0.00    +0.000 N 
ATOM     15  C   UNL     1      -0.520  13.178  18.551  0.00  0.00    +0.000 C 
BRANCH  14  19
ATOM     16  C   UNL     1      -3.559  10.247  15.741  0.00  0.00    +0.000 A 
ATOM     17  C   UNL     1      -4.078  11.252  16.559  0.00  0.00    +0.000 A 
ATOM     18  C   UNL     1      -3.330  11.782  17.613  0.00  0.00    +0.000 A 
ATOM     19  C   UNL     1      -2.037  11.310  17.874  0.00  0.00    +0.000 A 
ATOM     20  C   UNL     1      -1.534  10.235  17.095  0.00  0.00    +0.000 A 
ATOM     21  C   UNL     1      -2.289   9.717  16.032  0.00  0.00    +0.000 A 
BRANCH  16  23
ATOM     22  C   UNL     1      -3.914   9.907  13.342  0.00  0.00    +0.000 C 
ATOM     23  O   UNL     1      -4.298   9.870  14.666  0.00  0.00    +0.000 OA
ENDBRANCH  16  23
ENDBRANCH  14  19
ENDBRANCH   1  14
TORSDOF 4
ENDMDL
