MODEL 1
REMARK VINA RESULT:      -7.5      0.000      0.000
REMARK  Name = 
REMARK  4 active torsions:
REMARK  status: ('A' for Active; 'I' for Inactive)
REMARK    1  A    between atoms: C_1  and  N_2
REMARK    2  A    between atoms: C_9  and  N_10
REMARK    3  A    between atoms: N_10  and  C_11
REMARK    4  A    between atoms: C_17  and  C_18
REMARK                            x       y       z     vdW  Elec       q    Type
REMARK                         _______ _______ _______ _____ _____    ______ ____
ROOT
ATOM      1  C   UNL     1       0.368  11.741  18.215  0.00  0.00    +0.000 C 
ATOM      2  N   UNL     1       0.182  10.432  18.843  0.00  0.00    +0.000 NA
ATOM      3  C   UNL     1       0.735  10.440  20.203  0.00  0.00    +0.000 C 
ATOM      4  C   UNL     1       0.856   9.078  20.891  0.00  0.00    +0.000 C 
ATOM      5  C   UNL     1       2.167   8.379  20.550  0.00  0.00    +0.000 C 
ATOM      6  N   UNL     1       2.182   7.877  19.186  0.00  0.00    +0.000 N 
ATOM      7  C   UNL     1       2.344   6.535  18.915  0.00  0.00    +0.000 A 
ATOM      8  C   UNL     1       1.409   5.553  19.557  0.00  0.00    +0.000 A 
ATOM      9  C   UNL     1       1.581   4.244  19.307  0.00  0.00    +0.000 A 
ATOM     10  N   UNL     1       2.644   3.875  18.448  0.00  0.00    +0.000 N 
ATOM     11  N   UNL     1       3.011   2.608  18.083  0.00  0.00    +0.000 NA
ATOM     12  C   UNL     1       4.081   2.789  17.306  0.00  0.00    +0.000 A 
ATOM     13  C   UNL     1       4.441   4.142  17.164  0.00  0.00    +0.000 A 
ATOM     14  C   UNL     1       3.486   4.835  17.883  0.00  0.00    +0.000 A 
ATOM     15  N   UNL     1       3.310   6.171  18.107  0.00  0.00    +0.000 NA
ATOM     16  C   UNL     1       2.096   8.861  18.103  0.00  0.00    +0.000 C 
ATOM     17  C   UNL     1       0.635   9.342  17.957  0.00  0.00    +0.000 C 
ENDROOT
BRANCH  13  18
ATOM     18  C   UNL     1       5.557   4.671  16.440  0.00  0.00    +0.000 C 
ATOM     19  C   UNL     1       5.882   4.427  15.167  0.00  0.00    +0.000 C 
ATOM     20  N   UNL     1       5.251   3.607  14.275  0.00  0.00    +0.000 N 
ATOM     21  C   UNL     1       5.888   3.645  13.052  0.00  0.00    +0.000 C 
ATOM     22  O   UNL     1       5.590   3.002  12.061  0.00  0.00    +0.000 OA
ATOM     23  N   UNL     1       6.930   4.531  13.157  0.00  0.00    +0.000 N 
ATOM     24  C   UNL     1       7.026   5.041  14.423  0.00  0.00    +0.000 C 
ATOM     25  O   UNL     1       7.858   5.811  14.860  0.00  0.00    +0.000 OA
ATOM     26  H   UNL     1       4.499   2.970  14.518  0.00  0.00    +0.000 HD
ATOM     27  H   UNL     1       7.571   4.730  12.411  0.00  0.00    +0.000 HD
ENDBRANCH  13  18
BRANCH   9  28
ATOM     28  N   UNL     1       0.785   3.215  19.816  0.00  0.00    +0.000 N 
ATOM     29  H   UNL     1       0.585   2.527  19.080  0.00  0.00    +0.000 HD
BRANCH  28  30
ATOM     30  C   UNL     1       1.037   2.694  21.160  0.00  0.00    +0.000 C 
ATOM     31  C   UNL     1       2.303   1.960  21.508  0.00  0.00    +0.000 C 
ATOM     32  C   UNL     1       2.087   3.358  22.007  0.00  0.00    +0.000 C 
ENDBRANCH  28  30
ENDBRANCH   9  28
TORSDOF 3
ENDMDL
MODEL 2
REMARK VINA RESULT:      -7.4      1.517      2.178
REMARK  Name = 
REMARK  4 active torsions:
REMARK  status: ('A' for Active; 'I' for Inactive)
REMARK    1  A    between atoms: C_1  and  N_2
REMARK    2  A    between atoms: C_9  and  N_10
REMARK    3  A    between atoms: N_10  and  C_11
REMARK    4  A    between atoms: C_17  and  C_18
REMARK                            x       y       z     vdW  Elec       q    Type
REMARK                         _______ _______ _______ _____ _____    ______ ____
ROOT
ATOM      1  C   UNL     1       0.182  11.730  18.723  0.00  0.00    +0.000 C 
ATOM      2  N   UNL     1       0.060  10.426  19.376  0.00  0.00    +0.000 NA
ATOM      3  C   UNL     1       0.821  10.415  20.631  0.00  0.00    +0.000 C 
ATOM      4  C   UNL     1       1.010   9.050  21.295  0.00  0.00    +0.000 C 
ATOM      5  C   UNL     1       2.231   8.314  20.754  0.00  0.00    +0.000 C 
ATOM      6  N   UNL     1       2.017   7.814  19.405  0.00  0.00    +0.000 N 
ATOM      7  C   UNL     1       2.095   6.469  19.116  0.00  0.00    +0.000 A 
ATOM      8  C   UNL     1       1.246   5.513  19.900  0.00  0.00    +0.000 A 
ATOM      9  C   UNL     1       1.339   4.200  19.629  0.00  0.00    +0.000 A 
ATOM     10  N   UNL     1       2.242   3.803  18.614  0.00  0.00    +0.000 N 
ATOM     11  N   UNL     1       2.512   2.527  18.199  0.00  0.00    +0.000 NA
ATOM     12  C   UNL     1       3.450   2.678  17.262  0.00  0.00    +0.000 A 
ATOM     13  C   UNL     1       3.821   4.022  17.062  0.00  0.00    +0.000 A 
ATOM     14  C   UNL     1       3.012   4.740  17.921  0.00  0.00    +0.000 A 
ATOM     15  N   UNL     1       2.911   6.080  18.166  0.00  0.00    +0.000 NA
ATOM     16  C   UNL     1       1.788   8.803  18.347  0.00  0.00    +0.000 C 
ATOM     17  C   UNL     1       0.337   9.325  18.433  0.00  0.00    +0.000 C 
ENDROOT
BRANCH  13  18
ATOM     18  C   UNL     1       4.823   4.520  16.169  0.00  0.00    +0.000 C 
ATOM     19  C   UNL     1       5.867   5.295  16.478  0.00  0.00    +0.000 C 
ATOM     20  N   UNL     1       6.206   5.810  17.698  0.00  0.00    +0.000 N 
ATOM     21  C   UNL     1       7.370   6.544  17.602  0.00  0.00    +0.000 C 
ATOM     22  O   UNL     1       7.914   7.157  18.504  0.00  0.00    +0.000 OA
ATOM     23  N   UNL     1       7.798   6.473  16.300  0.00  0.00    +0.000 N 
ATOM     24  C   UNL     1       6.928   5.754  15.528  0.00  0.00    +0.000 C 
ATOM     25  O   UNL     1       6.987   5.539  14.334  0.00  0.00    +0.000 OA
ATOM     26  H   UNL     1       5.618   5.759  18.522  0.00  0.00    +0.000 HD
ATOM     27  H   UNL     1       8.616   6.941  15.956  0.00  0.00    +0.000 HD
ENDBRANCH  13  18
BRANCH   9  28
ATOM     28  N   UNL     1       0.605   3.193  20.260  0.00  0.00    +0.000 N 
ATOM     29  H   UNL     1       0.168   2.584  19.559  0.00  0.00    +0.000 HD
BRANCH  28  30
ATOM     30  C   UNL     1       1.135   2.547  21.462  0.00  0.00    +0.000 C 
ATOM     31  C   UNL     1       2.536   2.004  21.525  0.00  0.00    +0.000 C 
ATOM     32  C   UNL     1       2.187   3.263  22.262  0.00  0.00    +0.000 C 
ENDBRANCH  28  30
ENDBRANCH   9  28
TORSDOF 3
ENDMDL
MODEL 3
REMARK VINA RESULT:      -7.4      1.075      1.138
REMARK  Name = 
REMARK  4 active torsions:
REMARK  status: ('A' for Active; 'I' for Inactive)
REMARK    1  A    between atoms: C_1  and  N_2
REMARK    2  A    between atoms: C_9  and  N_10
REMARK    3  A    between atoms: N_10  and  C_11
REMARK    4  A    between atoms: C_17  and  C_18
REMARK                            x       y       z     vdW  Elec       q    Type
REMARK                         _______ _______ _______ _____ _____    ______ ____
ROOT
ATOM      1  C   UNL     1      -0.389  11.902  19.031  0.00  0.00    +0.000 C 
ATOM      2  N   UNL     1      -0.520  10.549  19.574  0.00  0.00    +0.000 NA
ATOM      3  C   UNL     1      -0.124  10.530  20.987  0.00  0.00    +0.000 C 
ATOM      4  C   UNL     1       0.046   9.149  21.623  0.00  0.00    +0.000 C 
ATOM      5  C   UNL     1       1.445   8.587  21.405  0.00  0.00    +0.000 C 
ATOM      6  N   UNL     1       1.659   8.164  20.030  0.00  0.00    +0.000 N 
ATOM      7  C   UNL     1       1.974   6.859  19.719  0.00  0.00    +0.000 A 
ATOM      8  C   UNL     1       1.069   5.765  20.205  0.00  0.00    +0.000 A 
ATOM      9  C   UNL     1       1.389   4.491  19.917  0.00  0.00    +0.000 A 
ATOM     10  N   UNL     1       2.570   4.265  19.170  0.00  0.00    +0.000 N 
ATOM     11  N   UNL     1       3.092   3.057  18.794  0.00  0.00    +0.000 NA
ATOM     12  C   UNL     1       4.220   3.374  18.154  0.00  0.00    +0.000 A 
ATOM     13  C   UNL     1       4.465   4.759  18.115  0.00  0.00    +0.000 A 
ATOM     14  C   UNL     1       3.376   5.325  18.750  0.00  0.00    +0.000 A 
ATOM     15  N   UNL     1       3.053   6.626  19.012  0.00  0.00    +0.000 NA
ATOM     16  C   UNL     1       1.601   9.195  18.990  0.00  0.00    +0.000 C 
ATOM     17  C   UNL     1       0.127   9.554  18.698  0.00  0.00    +0.000 C 
ENDROOT
BRANCH  13  18
ATOM     18  C   UNL     1       5.600   5.423  17.549  0.00  0.00    +0.000 C 
ATOM     19  C   UNL     1       6.132   5.222  16.339  0.00  0.00    +0.000 C 
ATOM     20  N   UNL     1       5.741   4.331  15.380  0.00  0.00    +0.000 N 
ATOM     21  C   UNL     1       6.537   4.449  14.260  0.00  0.00    +0.000 C 
ATOM     22  O   UNL     1       6.467   3.775  13.248  0.00  0.00    +0.000 OA
ATOM     23  N   UNL     1       7.437   5.458  14.498  0.00  0.00    +0.000 N 
ATOM     24  C   UNL     1       7.287   5.973  15.756  0.00  0.00    +0.000 C 
ATOM     25  O   UNL     1       7.947   6.840  16.294  0.00  0.00    +0.000 OA
ATOM     26  H   UNL     1       5.046   3.606  15.525  0.00  0.00    +0.000 HD
ATOM     27  H   UNL     1       8.149   5.735  13.848  0.00  0.00    +0.000 HD
ENDBRANCH  13  18
BRANCH   9  28
ATOM     28  N   UNL     1       0.641   3.370  20.285  0.00  0.00    +0.000 N 
ATOM     29  H   UNL     1       0.412   2.812  19.454  0.00  0.00    +0.000 HD
BRANCH  28  30
ATOM     30  C   UNL     1       0.978   2.636  21.505  0.00  0.00    +0.000 C 
ATOM     31  C   UNL     1       2.217   1.790  21.612  0.00  0.00    +0.000 C 
ATOM     32  C   UNL     1       2.143   3.105  22.332  0.00  0.00    +0.000 C 
ENDBRANCH  28  30
ENDBRANCH   9  28
TORSDOF 3
ENDMDL
MODEL 4
REMARK VINA RESULT:      -7.2      9.243     11.598
REMARK  Name = 
REMARK  4 active torsions:
REMARK  status: ('A' for Active; 'I' for Inactive)
REMARK    1  A    between atoms: C_1  and  N_2
REMARK    2  A    between atoms: C_9  and  N_10
REMARK    3  A    between atoms: N_10  and  C_11
REMARK    4  A    between atoms: C_17  and  C_18
REMARK                            x       y       z     vdW  Elec       q    Type
REMARK                         _______ _______ _______ _____ _____    ______ ____
ROOT
ATOM      1  C   UNL     1       5.217  10.988  26.241  0.00  0.00    +0.000 C 
ATOM      2  N   UNL     1       6.434  11.280  25.482  0.00  0.00    +0.000 NA
ATOM      3  C   UNL     1       7.244  12.280  26.189  0.00  0.00    +0.000 C 
ATOM      4  C   UNL     1       8.410  12.883  25.403  0.00  0.00    +0.000 C 
ATOM      5  C   UNL     1       7.977  14.082  24.567  0.00  0.00    +0.000 C 
ATOM      6  N   UNL     1       7.186  13.688  23.412  0.00  0.00    +0.000 N 
ATOM      7  C   UNL     1       7.595  13.976  22.128  0.00  0.00    +0.000 A 
ATOM      8  C   UNL     1       8.959  13.530  21.690  0.00  0.00    +0.000 A 
ATOM      9  C   UNL     1       9.362  13.829  20.443  0.00  0.00    +0.000 A 
ATOM     10  N   UNL     1       8.467  14.553  19.620  0.00  0.00    +0.000 N 
ATOM     11  N   UNL     1       8.683  14.982  18.339  0.00  0.00    +0.000 NA
ATOM     12  C   UNL     1       7.568  15.644  18.022  0.00  0.00    +0.000 A 
ATOM     13  C   UNL     1       6.629  15.680  19.070  0.00  0.00    +0.000 A 
ATOM     14  C   UNL     1       7.210  14.946  20.086  0.00  0.00    +0.000 A 
ATOM     15  N   UNL     1       6.774  14.629  21.341  0.00  0.00    +0.000 NA
ATOM     16  C   UNL     1       5.897  13.039  23.667  0.00  0.00    +0.000 C 
ATOM     17  C   UNL     1       6.130  11.565  24.067  0.00  0.00    +0.000 C 
ENDROOT
BRANCH  13  18
ATOM     18  C   UNL     1       5.360  16.342  19.074  0.00  0.00    +0.000 C 
ATOM     19  C   UNL     1       4.168  15.803  18.800  0.00  0.00    +0.000 C 
ATOM     20  N   UNL     1       3.884  14.518  18.432  0.00  0.00    +0.000 N 
ATOM     21  C   UNL     1       2.525  14.356  18.260  0.00  0.00    +0.000 C 
ATOM     22  O   UNL     1       1.958  13.339  17.901  0.00  0.00    +0.000 OA
ATOM     23  N   UNL     1       1.926  15.555  18.553  0.00  0.00    +0.000 N 
ATOM     24  C   UNL     1       2.851  16.512  18.867  0.00  0.00    +0.000 C 
ATOM     25  O   UNL     1       2.659  17.683  19.130  0.00  0.00    +0.000 OA
ATOM     26  H   UNL     1       4.586  13.823  18.200  0.00  0.00    +0.000 HD
ATOM     27  H   UNL     1       0.937  15.715  18.487  0.00  0.00    +0.000 HD
ENDBRANCH  13  18
BRANCH   9  28
ATOM     28  N   UNL     1      10.593  13.470  19.887  0.00  0.00    +0.000 N 
ATOM     29  H   UNL     1      11.343  14.038  20.298  0.00  0.00    +0.000 HD
BRANCH  28  30
ATOM     30  C   UNL     1      10.893  12.062  19.626  0.00  0.00    +0.000 C 
ATOM     31  C   UNL     1      11.411  11.589  18.296  0.00  0.00    +0.000 C 
ATOM     32  C   UNL     1      12.330  11.645  19.480  0.00  0.00    +0.000 C 
ENDBRANCH  28  30
ENDBRANCH   9  28
TORSDOF 3
ENDMDL
MODEL 5
REMARK VINA RESULT:      -7.1      6.768     10.652
REMARK  Name = 
REMARK  4 active torsions:
REMARK  status: ('A' for Active; 'I' for Inactive)
REMARK    1  A    between atoms: C_1  and  N_2
REMARK    2  A    between atoms: C_9  and  N_10
REMARK    3  A    between atoms: N_10  and  C_11
REMARK    4  A    between atoms: C_17  and  C_18
REMARK                            x       y       z     vdW  Elec       q    Type
REMARK                         _______ _______ _______ _____ _____    ______ ____
ROOT
ATOM      1  C   UNL     1      -1.037  15.145  24.320  0.00  0.00    +0.000 C 
ATOM      2  N   UNL     1      -0.360  14.313  23.324  0.00  0.00    +0.000 NA
ATOM      3  C   UNL     1       0.461  15.149  22.440  0.00  0.00    +0.000 C 
ATOM      4  C   UNL     1       1.020  14.465  21.191  0.00  0.00    +0.000 C 
ATOM      5  C   UNL     1       0.037  14.507  20.027  0.00  0.00    +0.000 C 
ATOM      6  N   UNL     1      -1.085  13.603  20.223  0.00  0.00    +0.000 N 
ATOM      7  C   UNL     1      -1.346  12.578  19.339  0.00  0.00    +0.000 A 
ATOM      8  C   UNL     1      -0.254  11.597  19.031  0.00  0.00    +0.000 A 
ATOM      9  C   UNL     1      -0.505  10.610  18.154  0.00  0.00    +0.000 A 
ATOM     10  N   UNL     1      -1.795  10.564  17.572  0.00  0.00    +0.000 N 
ATOM     11  N   UNL     1      -2.251   9.668  16.643  0.00  0.00    +0.000 NA
ATOM     12  C   UNL     1      -3.499  10.069  16.388  0.00  0.00    +0.000 A 
ATOM     13  C   UNL     1      -3.870  11.219  17.110  0.00  0.00    +0.000 A 
ATOM     14  C   UNL     1      -2.770  11.510  17.894  0.00  0.00    +0.000 A 
ATOM     15  N   UNL     1      -2.540  12.504  18.802  0.00  0.00    +0.000 NA
ATOM     16  C   UNL     1      -1.975  13.867  21.357  0.00  0.00    +0.000 C 
ATOM     17  C   UNL     1      -1.304  13.391  22.664  0.00  0.00    +0.000 C 
ENDROOT
BRANCH  13  18
ATOM     18  C   UNL     1      -5.113  11.925  17.035  0.00  0.00    +0.000 C 
ATOM     19  C   UNL     1      -5.985  12.131  18.027  0.00  0.00    +0.000 C 
ATOM     20  N   UNL     1      -5.912  11.702  19.322  0.00  0.00    +0.000 N 
ATOM     21  C   UNL     1      -7.005  12.144  20.037  0.00  0.00    +0.000 C 
ATOM     22  O   UNL     1      -7.250  11.902  21.207  0.00  0.00    +0.000 OA
ATOM     23  N   UNL     1      -7.778  12.896  19.189  0.00  0.00    +0.000 N 
ATOM     24  C   UNL     1      -7.251  12.923  17.927  0.00  0.00    +0.000 C 
ATOM     25  O   UNL     1      -7.708  13.458  16.936  0.00  0.00    +0.000 OA
ATOM     26  H   UNL     1      -5.216  11.050  19.668  0.00  0.00    +0.000 HD
ATOM     27  H   UNL     1      -8.648  13.320  19.455  0.00  0.00    +0.000 HD
ENDBRANCH  13  18
BRANCH   9  28
ATOM     28  N   UNL     1       0.401   9.616  17.779  0.00  0.00    +0.000 N 
ATOM     29  H   UNL     1       0.472   9.573  16.756  0.00  0.00    +0.000 HD
BRANCH  28  30
ATOM     30  C   UNL     1       1.638   9.432  18.538  0.00  0.00    +0.000 C 
ATOM     31  C   UNL     1       1.967   8.136  19.228  0.00  0.00    +0.000 C 
ATOM     32  C   UNL     1       2.701   8.527  17.980  0.00  0.00    +0.000 C 
ENDBRANCH  28  30
ENDBRANCH   9  28
TORSDOF 3
ENDMDL
MODEL 6
REMARK VINA RESULT:      -7.0      1.651      1.888
REMARK  Name = 
REMARK  4 active torsions:
REMARK  status: ('A' for Active; 'I' for Inactive)
REMARK    1  A    between atoms: C_1  and  N_2
REMARK    2  A    between atoms: C_9  and  N_10
REMARK    3  A    between atoms: N_10  and  C_11
REMARK    4  A    between atoms: C_17  and  C_18
REMARK                            x       y       z     vdW  Elec       q    Type
REMARK                         _______ _______ _______ _____ _____    ______ ____
ROOT
ATOM      1  C   UNL     1      -0.872  11.586  18.828  0.00  0.00    +0.000 C 
ATOM      2  N   UNL     1      -0.815  10.319  19.558  0.00  0.00    +0.000 NA
ATOM      3  C   UNL     1      -0.410  10.552  20.949  0.00  0.00    +0.000 C 
ATOM      4  C   UNL     1      -0.050   9.309  21.766  0.00  0.00    +0.000 C 
ATOM      5  C   UNL     1       1.411   8.913  21.591  0.00  0.00    +0.000 C 
ATOM      6  N   UNL     1       1.669   8.331  20.283  0.00  0.00    +0.000 N 
ATOM      7  C   UNL     1       2.154   7.048  20.149  0.00  0.00    +0.000 A 
ATOM      8  C   UNL     1       1.409   5.924  20.806  0.00  0.00    +0.000 A 
ATOM      9  C   UNL     1       1.895   4.676  20.690  0.00  0.00    +0.000 A 
ATOM     10  N   UNL     1       3.091   4.505  19.951  0.00  0.00    +0.000 N 
ATOM     11  N   UNL     1       3.768   3.336  19.733  0.00  0.00    +0.000 NA
ATOM     12  C   UNL     1       4.838   3.705  19.026  0.00  0.00    +0.000 A 
ATOM     13  C   UNL     1       4.894   5.092  18.788  0.00  0.00    +0.000 A 
ATOM     14  C   UNL     1       3.744   5.593  19.367  0.00  0.00    +0.000 A 
ATOM     15  N   UNL     1       3.250   6.863  19.453  0.00  0.00    +0.000 NA
ATOM     16  C   UNL     1       1.465   9.188  19.111  0.00  0.00    +0.000 C 
ATOM     17  C   UNL     1      -0.046   9.304  18.812  0.00  0.00    +0.000 C 
ENDROOT
BRANCH  13  18
ATOM     18  C   UNL     1       5.925   5.813  18.105  0.00  0.00    +0.000 C 
ATOM     19  C   UNL     1       6.417   5.559  16.888  0.00  0.00    +0.000 C 
ATOM     20  N   UNL     1       6.076   4.552  16.031  0.00  0.00    +0.000 N 
ATOM     21  C   UNL     1       6.802   4.650  14.862  0.00  0.00    +0.000 C 
ATOM     22  O   UNL     1       6.754   3.884  13.915  0.00  0.00    +0.000 OA
ATOM     23  N   UNL     1       7.601   5.760  14.963  0.00  0.00    +0.000 N 
ATOM     24  C   UNL     1       7.458   6.368  16.180  0.00  0.00    +0.000 C 
ATOM     25  O   UNL     1       8.048   7.341  16.606  0.00  0.00    +0.000 OA
ATOM     26  H   UNL     1       5.469   3.777  16.274  0.00  0.00    +0.000 HD
ATOM     27  H   UNL     1       8.248   6.049  14.252  0.00  0.00    +0.000 HD
ENDBRANCH  13  18
BRANCH   9  28
ATOM     28  N   UNL     1       1.308   3.530  21.230  0.00  0.00    +0.000 N 
ATOM     29  H   UNL     1       0.942   3.731  22.168  0.00  0.00    +0.000 HD
BRANCH  28  30
ATOM     30  C   UNL     1       0.507   2.650  20.379  0.00  0.00    +0.000 C 
ATOM     31  C   UNL     1       0.388   2.865  18.895  0.00  0.00    +0.000 C 
ATOM     32  C   UNL     1       1.213   1.729  19.423  0.00  0.00    +0.000 C 
ENDBRANCH  28  30
ENDBRANCH   9  28
TORSDOF 3
ENDMDL
MODEL 7
REMARK VINA RESULT:      -7.0      2.916      5.685
REMARK  Name = 
REMARK  4 active torsions:
REMARK  status: ('A' for Active; 'I' for Inactive)
REMARK    1  A    between atoms: C_1  and  N_2
REMARK    2  A    between atoms: C_9  and  N_10
REMARK    3  A    between atoms: N_10  and  C_11
REMARK    4  A    between atoms: C_17  and  C_18
REMARK                            x       y       z     vdW  Elec       q    Type
REMARK                         _______ _______ _______ _____ _____    ______ ____
ROOT
ATOM      1  C   UNL     1       1.030   2.337  21.110  0.00  0.00    +0.000 C 
ATOM      2  N   UNL     1       2.124   3.302  20.995  0.00  0.00    +0.000 NA
ATOM      3  C   UNL     1       1.595   4.671  20.993  0.00  0.00    +0.000 C 
ATOM      4  C   UNL     1       2.582   5.777  20.615  0.00  0.00    +0.000 C 
ATOM      5  C   UNL     1       2.653   5.990  19.108  0.00  0.00    +0.000 C 
ATOM      6  N   UNL     1       3.351   4.908  18.433  0.00  0.00    +0.000 N 
ATOM      7  C   UNL     1       4.493   5.137  17.695  0.00  0.00    +0.000 A 
ATOM      8  C   UNL     1       5.645   5.839  18.351  0.00  0.00    +0.000 A 
ATOM      9  C   UNL     1       6.750   6.078  17.624  0.00  0.00    +0.000 A 
ATOM     10  N   UNL     1       6.751   5.651  16.274  0.00  0.00    +0.000 N 
ATOM     11  N   UNL     1       7.751   5.817  15.356  0.00  0.00    +0.000 NA
ATOM     12  C   UNL     1       7.258   5.285  14.235  0.00  0.00    +0.000 A 
ATOM     13  C   UNL     1       5.948   4.791  14.386  0.00  0.00    +0.000 A 
ATOM     14  C   UNL     1       5.644   5.007  15.717  0.00  0.00    +0.000 A 
ATOM     15  N   UNL     1       4.524   4.733  16.448  0.00  0.00    +0.000 NA
ATOM     16  C   UNL     1       2.753   3.572  18.503  0.00  0.00    +0.000 C 
ATOM     17  C   UNL     1       3.035   2.951  19.889  0.00  0.00    +0.000 C 
ENDROOT
BRANCH  13  18
ATOM     18  C   UNL     1       5.122   4.204  13.376  0.00  0.00    +0.000 C 
ATOM     19  C   UNL     1       5.481   3.289  12.470  0.00  0.00    +0.000 C 
ATOM     20  N   UNL     1       6.710   2.725  12.279  0.00  0.00    +0.000 N 
ATOM     21  C   UNL     1       6.662   1.805  11.252  0.00  0.00    +0.000 C 
ATOM     22  O   UNL     1       7.599   1.158  10.816  0.00  0.00    +0.000 OA
ATOM     23  N   UNL     1       5.368   1.760  10.797  0.00  0.00    +0.000 N 
ATOM     24  C   UNL     1       4.575   2.655  11.461  0.00  0.00    +0.000 C 
ATOM     25  O   UNL     1       3.399   2.897  11.274  0.00  0.00    +0.000 OA
ATOM     26  H   UNL     1       7.557   3.032  12.745  0.00  0.00    +0.000 HD
ATOM     27  H   UNL     1       5.065   1.184  10.034  0.00  0.00    +0.000 HD
ENDBRANCH  13  18
BRANCH   9  28
ATOM     28  N   UNL     1       7.905   6.705  18.097  0.00  0.00    +0.000 N 
ATOM     29  H   UNL     1       8.705   6.464  17.500  0.00  0.00    +0.000 HD
BRANCH  28  30
ATOM     30  C   UNL     1       7.839   8.079  18.595  0.00  0.00    +0.000 C 
ATOM     31  C   UNL     1       9.013   9.016  18.516  0.00  0.00    +0.000 C 
ATOM     32  C   UNL     1       7.838   9.208  17.602  0.00  0.00    +0.000 C 
ENDBRANCH  28  30
ENDBRANCH   9  28
TORSDOF 3
ENDMDL
MODEL 8
REMARK VINA RESULT:      -7.0      7.468     10.735
REMARK  Name = 
REMARK  4 active torsions:
REMARK  status: ('A' for Active; 'I' for Inactive)
REMARK    1  A    between atoms: C_1  and  N_2
REMARK    2  A    between atoms: C_9  and  N_10
REMARK    3  A    between atoms: N_10  and  C_11
REMARK    4  A    between atoms: C_17  and  C_18
REMARK                            x       y       z     vdW  Elec       q    Type
REMARK                         _______ _______ _______ _____ _____    ______ ____
ROOT
ATOM      1  C   UNL     1      -2.897  15.730  25.359  0.00  0.00    +0.000 C 
ATOM      2  N   UNL     1      -1.884  14.969  24.625  0.00  0.00    +0.000 NA
ATOM      3  C   UNL     1      -0.971  15.883  23.928  0.00  0.00    +0.000 C 
ATOM      4  C   UNL     1      -0.024  15.245  22.910  0.00  0.00    +0.000 C 
ATOM      5  C   UNL     1      -0.665  15.116  21.533  0.00  0.00    +0.000 C 
ATOM      6  N   UNL     1      -1.677  14.073  21.494  0.00  0.00    +0.000 N 
ATOM      7  C   UNL     1      -1.568  12.996  20.641  0.00  0.00    +0.000 A 
ATOM      8  C   UNL     1      -0.319  12.165  20.687  0.00  0.00    +0.000 A 
ATOM      9  C   UNL     1      -0.207  11.127  19.841  0.00  0.00    +0.000 A 
ATOM     10  N   UNL     1      -1.283  10.886  18.953  0.00  0.00    +0.000 N 
ATOM     11  N   UNL     1      -1.364   9.909  17.998  0.00  0.00    +0.000 NA
ATOM     12  C   UNL     1      -2.542  10.127  17.407  0.00  0.00    +0.000 A 
ATOM     13  C   UNL     1      -3.230  11.236  17.935  0.00  0.00    +0.000 A 
ATOM     14  C   UNL     1      -2.419  11.699  18.953  0.00  0.00    +0.000 A 
ATOM     15  N   UNL     1      -2.560  12.742  19.823  0.00  0.00    +0.000 NA
ATOM     16  C   UNL     1      -2.859  14.247  22.344  0.00  0.00    +0.000 C 
ATOM     17  C   UNL     1      -2.499  13.906  23.807  0.00  0.00    +0.000 C 
ENDROOT
BRANCH  13  18
ATOM     18  C   UNL     1      -4.488  11.762  17.499  0.00  0.00    +0.000 C 
ATOM     19  C   UNL     1      -5.594  11.922  18.232  0.00  0.00    +0.000 C 
ATOM     20  N   UNL     1      -5.792  11.601  19.546  0.00  0.00    +0.000 N 
ATOM     21  C   UNL     1      -7.069  11.944  19.937  0.00  0.00    +0.000 C 
ATOM     22  O   UNL     1      -7.564  11.757  21.035  0.00  0.00    +0.000 OA
ATOM     23  N   UNL     1      -7.691  12.522  18.858  0.00  0.00    +0.000 N 
ATOM     24  C   UNL     1      -6.877  12.527  17.759  0.00  0.00    +0.000 C 
ATOM     25  O   UNL     1      -7.134  12.923  16.639  0.00  0.00    +0.000 OA
ATOM     26  H   UNL     1      -5.133  11.075  20.110  0.00  0.00    +0.000 HD
ATOM     27  H   UNL     1      -8.641  12.844  18.869  0.00  0.00    +0.000 HD
ENDBRANCH  13  18
BRANCH   9  28
ATOM     28  N   UNL     1       0.883  10.256  19.775  0.00  0.00    +0.000 N 
ATOM     29  H   UNL     1       1.760  10.786  19.824  0.00  0.00    +0.000 HD
BRANCH  28  30
ATOM     30  C   UNL     1       0.839   8.977  20.486  0.00  0.00    +0.000 C 
ATOM     31  C   UNL     1       1.270   8.846  21.921  0.00  0.00    +0.000 C 
ATOM     32  C   UNL     1      -0.187   8.787  21.568  0.00  0.00    +0.000 C 
ENDBRANCH  28  30
ENDBRANCH   9  28
TORSDOF 3
ENDMDL
MODEL 9
REMARK VINA RESULT:      -6.9      4.141      7.964
REMARK  Name = 
REMARK  4 active torsions:
REMARK  status: ('A' for Active; 'I' for Inactive)
REMARK    1  A    between atoms: C_1  and  N_2
REMARK    2  A    between atoms: C_9  and  N_10
REMARK    3  A    between atoms: N_10  and  C_11
REMARK    4  A    between atoms: C_17  and  C_18
REMARK                            x       y       z     vdW  Elec       q    Type
REMARK                         _______ _______ _______ _____ _____    ______ ____
ROOT
ATOM      1  C   UNL     1       5.823  17.140  18.743  0.00  0.00    +0.000 C 
ATOM      2  N   UNL     1       4.452  16.853  19.167  0.00  0.00    +0.000 NA
ATOM      3  C   UNL     1       4.401  16.657  20.620  0.00  0.00    +0.000 C 
ATOM      4  C   UNL     1       3.095  16.091  21.181  0.00  0.00    +0.000 C 
ATOM      5  C   UNL     1       3.071  14.568  21.152  0.00  0.00    +0.000 C 
ATOM      6  N   UNL     1       2.912  14.047  19.803  0.00  0.00    +0.000 N 
ATOM      7  C   UNL     1       1.837  13.255  19.460  0.00  0.00    +0.000 A 
ATOM      8  C   UNL     1       0.452  13.769  19.722  0.00  0.00    +0.000 A 
ATOM      9  C   UNL     1      -0.594  12.986  19.404  0.00  0.00    +0.000 A 
ATOM     10  N   UNL     1      -0.316  11.717  18.842  0.00  0.00    +0.000 N 
ATOM     11  N   UNL     1      -1.221  10.759  18.474  0.00  0.00    +0.000 NA
ATOM     12  C   UNL     1      -0.467   9.744  18.044  0.00  0.00    +0.000 A 
ATOM     13  C   UNL     1       0.914  10.002  18.138  0.00  0.00    +0.000 A 
ATOM     14  C   UNL     1       0.997  11.291  18.628  0.00  0.00    +0.000 A 
ATOM     15  N   UNL     1       2.070  12.083  18.921  0.00  0.00    +0.000 NA
ATOM     16  C   UNL     1       3.977  14.334  18.839  0.00  0.00    +0.000 C 
ATOM     17  C   UNL     1       3.846  15.790  18.341  0.00  0.00    +0.000 C 
ENDROOT
BRANCH  13  18
ATOM     18  C   UNL     1       1.985   9.113  17.805  0.00  0.00    +0.000 C 
ATOM     19  C   UNL     1       2.321   7.982  18.434  0.00  0.00    +0.000 C 
ATOM     20  N   UNL     1       1.746   7.427  19.542  0.00  0.00    +0.000 N 
ATOM     21  C   UNL     1       2.373   6.242  19.866  0.00  0.00    +0.000 C 
ATOM     22  O   UNL     1       2.117   5.526  20.819  0.00  0.00    +0.000 OA
ATOM     23  N   UNL     1       3.349   6.021  18.928  0.00  0.00    +0.000 N 
ATOM     24  C   UNL     1       3.415   7.046  18.025  0.00  0.00    +0.000 C 
ATOM     25  O   UNL     1       4.192   7.182  17.101  0.00  0.00    +0.000 OA
ATOM     26  H   UNL     1       1.043   7.887  20.111  0.00  0.00    +0.000 HD
ATOM     27  H   UNL     1       3.970   5.233  18.945  0.00  0.00    +0.000 HD
ENDBRANCH  13  18
BRANCH   9  28
ATOM     28  N   UNL     1      -1.937  13.329  19.572  0.00  0.00    +0.000 N 
ATOM     29  H   UNL     1      -2.530  12.724  18.992  0.00  0.00    +0.000 HD
BRANCH  28  30
ATOM     30  C   UNL     1      -2.442  13.675  20.902  0.00  0.00    +0.000 C 
ATOM     31  C   UNL     1      -3.773  13.187  21.404  0.00  0.00    +0.000 C 
ATOM     32  C   UNL     1      -2.505  12.602  21.952  0.00  0.00    +0.000 C 
ENDBRANCH  28  30
ENDBRANCH   9  28
TORSDOF 3
ENDMDL
