MODEL 1
REMARK VINA RESULT:      -6.9      0.000      0.000
REMARK  Name = 
REMARK  6 active torsions:
REMARK  status: ('A' for Active; 'I' for Inactive)
REMARK    1  A    between atoms: C_2  and  C_3
REMARK    2  A    between atoms: C_7  and  N_8
REMARK    3  A    between atoms: C_9  and  C_11
REMARK    4  A    between atoms: C_11  and  O_12
REMARK    5  A    between atoms: O_12  and  C_13
REMARK    6  A    between atoms: C_13  and  C_15
REMARK                            x       y       z     vdW  Elec       q    Type
REMARK                         _______ _______ _______ _____ _____    ______ ____
ROOT
ATOM      1  N   UNL     1       3.408   3.157  17.583  0.00  0.00    +0.000 N 
ATOM      2  C   UNL     1       3.959   4.376  17.224  0.00  0.00    +0.000 C 
ATOM      3  O   UNL     1       3.868   5.413  17.876  0.00  0.00    +0.000 OA
ATOM      4  H   UNL     1       3.074   2.583  16.811  0.00  0.00    +0.000 HD
ENDROOT
BRANCH   1   9
ATOM      5  C   UNL     1       2.988   2.672  20.045  0.00  0.00    +0.000 A 
ATOM      6  C   UNL     1       1.851   2.838  20.906  0.00  0.00    +0.000 A 
ATOM      7  C   UNL     1       0.750   3.314  20.231  0.00  0.00    +0.000 A 
ATOM      8  S   UNL     1       1.047   3.470  18.558  0.00  0.00    +0.000 S 
ATOM      9  C   UNL     1       2.686   3.049  18.756  0.00  0.00    +0.000 A 
BRANCH   5  11
ATOM     10  N   UNL     1       5.216   1.647  20.901  0.00  0.00    +0.000 NA
ATOM     11  C   UNL     1       4.234   2.102  20.481  0.00  0.00    +0.000 C 
ENDBRANCH   5  11
ENDBRANCH   1   9
BRANCH   2  12
ATOM     12  C   UNL     1       4.638   4.357  15.850  0.00  0.00    +0.000 C 
BRANCH  12  13
ATOM     13  O   UNL     1       5.424   5.517  15.603  0.00  0.00    +0.000 OA
BRANCH  13  14
ATOM     14  C   UNL     1       6.774   5.322  15.731  0.00  0.00    +0.000 C 
ATOM     15  O   UNL     1       7.427   4.630  14.959  0.00  0.00    +0.000 OA
BRANCH  14  16
ATOM     16  C   UNL     1       7.266   6.038  16.886  0.00  0.00    +0.000 A 
ATOM     17  C   UNL     1       7.483   5.659  18.201  0.00  0.00    +0.000 A 
ATOM     18  C   UNL     1       7.963   6.803  18.887  0.00  0.00    +0.000 A 
ATOM     19  C   UNL     1       8.018   7.811  17.955  0.00  0.00    +0.000 A 
ATOM     20 BR   UNL     1       8.579   9.558  18.295  0.00  0.00    +0.000 Br
ATOM     21  O   UNL     1       7.603   7.361  16.741  0.00  0.00    +0.000 OA
ENDBRANCH  14  16
ENDBRANCH  13  14
ENDBRANCH  12  13
ENDBRANCH   2  12
TORSDOF 6
ENDMDL
MODEL 2
REMARK VINA RESULT:      -6.8      2.740      3.794
REMARK  Name = 
REMARK  6 active torsions:
REMARK  status: ('A' for Active; 'I' for Inactive)
REMARK    1  A    between atoms: C_2  and  C_3
REMARK    2  A    between atoms: C_7  and  N_8
REMARK    3  A    between atoms: C_9  and  C_11
REMARK    4  A    between atoms: C_11  and  O_12
REMARK    5  A    between atoms: O_12  and  C_13
REMARK    6  A    between atoms: C_13  and  C_15
REMARK                            x       y       z     vdW  Elec       q    Type
REMARK                         _______ _______ _______ _____ _____    ______ ____
ROOT
ATOM      1  N   UNL     1       4.018   4.952  19.703  0.00  0.00    +0.000 N 
ATOM      2  C   UNL     1       5.250   4.358  19.483  0.00  0.00    +0.000 C 
ATOM      3  O   UNL     1       5.457   3.148  19.457  0.00  0.00    +0.000 OA
ATOM      4  H   UNL     1       4.040   5.827  20.223  0.00  0.00    +0.000 HD
ENDROOT
BRANCH   1   9
ATOM      5  C   UNL     1       2.072   3.424  19.109  0.00  0.00    +0.000 A 
ATOM      6  C   UNL     1       1.103   2.708  19.889  0.00  0.00    +0.000 A 
ATOM      7  C   UNL     1       1.237   2.948  21.238  0.00  0.00    +0.000 A 
ATOM      8  S   UNL     1       2.456   4.100  21.560  0.00  0.00    +0.000 S 
ATOM      9  C   UNL     1       2.905   4.163  19.918  0.00  0.00    +0.000 A 
BRANCH   5  11
ATOM     10  N   UNL     1       2.156   3.469  16.513  0.00  0.00    +0.000 NA
ATOM     11  C   UNL     1       2.089   3.421  17.670  0.00  0.00    +0.000 C 
ENDBRANCH   5  11
ENDBRANCH   1   9
BRANCH   2  12
ATOM     12  C   UNL     1       6.400   5.365  19.365  0.00  0.00    +0.000 C 
BRANCH  12  13
ATOM     13  O   UNL     1       6.690   5.720  18.018  0.00  0.00    +0.000 OA
BRANCH  13  14
ATOM     14  C   UNL     1       7.345   4.750  17.307  0.00  0.00    +0.000 C 
ATOM     15  O   UNL     1       8.331   4.158  17.733  0.00  0.00    +0.000 OA
BRANCH  14  16
ATOM     16  C   UNL     1       6.704   4.561  16.026  0.00  0.00    +0.000 A 
ATOM     17  C   UNL     1       5.382   4.360  15.661  0.00  0.00    +0.000 A 
ATOM     18  C   UNL     1       5.361   4.222  14.250  0.00  0.00    +0.000 A 
ATOM     19  C   UNL     1       6.663   4.353  13.834  0.00  0.00    +0.000 A 
ATOM     20 BR   UNL     1       7.238   4.255  12.061  0.00  0.00    +0.000 Br
ATOM     21  O   UNL     1       7.484   4.562  14.897  0.00  0.00    +0.000 OA
ENDBRANCH  14  16
ENDBRANCH  13  14
ENDBRANCH  12  13
ENDBRANCH   2  12
TORSDOF 6
ENDMDL
MODEL 3
REMARK VINA RESULT:      -6.7      3.286      4.499
REMARK  Name = 
REMARK  6 active torsions:
REMARK  status: ('A' for Active; 'I' for Inactive)
REMARK    1  A    between atoms: C_2  and  C_3
REMARK    2  A    between atoms: C_7  and  N_8
REMARK    3  A    between atoms: C_9  and  C_11
REMARK    4  A    between atoms: C_11  and  O_12
REMARK    5  A    between atoms: O_12  and  C_13
REMARK    6  A    between atoms: C_13  and  C_15
REMARK                            x       y       z     vdW  Elec       q    Type
REMARK                         _______ _______ _______ _____ _____    ______ ____
ROOT
ATOM      1  N   UNL     1       5.207   3.832  18.279  0.00  0.00    +0.000 N 
ATOM      2  C   UNL     1       6.274   4.614  18.689  0.00  0.00    +0.000 C 
ATOM      3  O   UNL     1       6.288   5.320  19.694  0.00  0.00    +0.000 OA
ATOM      4  H   UNL     1       5.082   3.756  17.271  0.00  0.00    +0.000 HD
ENDROOT
BRANCH   1   9
ATOM      5  C   UNL     1       2.932   4.623  19.098  0.00  0.00    +0.000 A 
ATOM      6  C   UNL     1       1.957   4.070  19.996  0.00  0.00    +0.000 A 
ATOM      7  C   UNL     1       2.379   2.889  20.562  0.00  0.00    +0.000 A 
ATOM      8  S   UNL     1       3.972   2.492  20.095  0.00  0.00    +0.000 S 
ATOM      9  C   UNL     1       4.043   3.814  19.022  0.00  0.00    +0.000 A 
BRANCH   5  11
ATOM     10  N   UNL     1       2.684   6.957  17.987  0.00  0.00    +0.000 NA
ATOM     11  C   UNL     1       2.779   5.898  18.450  0.00  0.00    +0.000 C 
ENDBRANCH   5  11
ENDBRANCH   1   9
BRANCH   2  12
ATOM     12  C   UNL     1       7.450   4.607  17.705  0.00  0.00    +0.000 C 
BRANCH  12  13
ATOM     13  O   UNL     1       7.069   4.222  16.389  0.00  0.00    +0.000 OA
BRANCH  13  14
ATOM     14  C   UNL     1       6.860   5.271  15.533  0.00  0.00    +0.000 C 
ATOM     15  O   UNL     1       6.643   6.416  15.916  0.00  0.00    +0.000 OA
BRANCH  14  16
ATOM     16  C   UNL     1       6.932   4.811  14.165  0.00  0.00    +0.000 A 
ATOM     17  C   UNL     1       7.679   5.227  13.075  0.00  0.00    +0.000 A 
ATOM     18  C   UNL     1       7.308   4.402  11.982  0.00  0.00    +0.000 A 
ATOM     19  C   UNL     1       6.365   3.529  12.466  0.00  0.00    +0.000 A 
ATOM     20 BR   UNL     1       5.513   2.205  11.464  0.00  0.00    +0.000 Br
ATOM     21  O   UNL     1       6.131   3.763  13.785  0.00  0.00    +0.000 OA
ENDBRANCH  14  16
ENDBRANCH  13  14
ENDBRANCH  12  13
ENDBRANCH   2  12
TORSDOF 6
ENDMDL
MODEL 4
REMARK VINA RESULT:      -6.7      1.886      2.354
REMARK  Name = 
REMARK  6 active torsions:
REMARK  status: ('A' for Active; 'I' for Inactive)
REMARK    1  A    between atoms: C_2  and  C_3
REMARK    2  A    between atoms: C_7  and  N_8
REMARK    3  A    between atoms: C_9  and  C_11
REMARK    4  A    between atoms: C_11  and  O_12
REMARK    5  A    between atoms: O_12  and  C_13
REMARK    6  A    between atoms: C_13  and  C_15
REMARK                            x       y       z     vdW  Elec       q    Type
REMARK                         _______ _______ _______ _____ _____    ______ ____
ROOT
ATOM      1  N   UNL     1       4.112   4.292  18.325  0.00  0.00    +0.000 N 
ATOM      2  C   UNL     1       3.581   3.859  17.122  0.00  0.00    +0.000 C 
ATOM      3  O   UNL     1       2.497   3.295  16.990  0.00  0.00    +0.000 OA
ATOM      4  H   UNL     1       5.125   4.222  18.407  0.00  0.00    +0.000 HD
ENDROOT
BRANCH   1   9
ATOM      5  C   UNL     1       2.564   4.866  20.261  0.00  0.00    +0.000 A 
ATOM      6  C   UNL     1       2.028   4.109  21.358  0.00  0.00    +0.000 A 
ATOM      7  C   UNL     1       2.501   2.816  21.380  0.00  0.00    +0.000 A 
ATOM      8  S   UNL     1       3.653   2.538  20.152  0.00  0.00    +0.000 S 
ATOM      9  C   UNL     1       3.410   4.093  19.498  0.00  0.00    +0.000 A 
BRANCH   5  11
ATOM     10  N   UNL     1       2.043   7.379  19.861  0.00  0.00    +0.000 NA
ATOM     11  C   UNL     1       2.305   6.267  20.065  0.00  0.00    +0.000 C 
ENDBRANCH   5  11
ENDBRANCH   1   9
BRANCH   2  12
ATOM     12  C   UNL     1       4.524   4.059  15.931  0.00  0.00    +0.000 C 
BRANCH  12  13
ATOM     13  O   UNL     1       5.793   4.582  16.310  0.00  0.00    +0.000 OA
BRANCH  13  14
ATOM     14  C   UNL     1       5.944   5.922  16.071  0.00  0.00    +0.000 C 
ATOM     15  O   UNL     1       5.392   6.504  15.144  0.00  0.00    +0.000 OA
BRANCH  14  16
ATOM     16  C   UNL     1       6.832   6.499  17.054  0.00  0.00    +0.000 A 
ATOM     17  C   UNL     1       7.469   5.971  18.166  0.00  0.00    +0.000 A 
ATOM     18  C   UNL     1       8.204   7.028  18.761  0.00  0.00    +0.000 A 
ATOM     19  C   UNL     1       7.982   8.134  17.979  0.00  0.00    +0.000 A 
ATOM     20 BR   UNL     1       8.700   9.829  18.288  0.00  0.00    +0.000 Br
ATOM     21  O   UNL     1       7.157   7.828  16.942  0.00  0.00    +0.000 OA
ENDBRANCH  14  16
ENDBRANCH  13  14
ENDBRANCH  12  13
ENDBRANCH   2  12
TORSDOF 6
ENDMDL
MODEL 5
REMARK VINA RESULT:      -6.7      3.367      4.419
REMARK  Name = 
REMARK  6 active torsions:
REMARK  status: ('A' for Active; 'I' for Inactive)
REMARK    1  A    between atoms: C_2  and  C_3
REMARK    2  A    between atoms: C_7  and  N_8
REMARK    3  A    between atoms: C_9  and  C_11
REMARK    4  A    between atoms: C_11  and  O_12
REMARK    5  A    between atoms: O_12  and  C_13
REMARK    6  A    between atoms: C_13  and  C_15
REMARK                            x       y       z     vdW  Elec       q    Type
REMARK                         _______ _______ _______ _____ _____    ______ ____
ROOT
ATOM      1  N   UNL     1       4.559   4.546  19.382  0.00  0.00    +0.000 N 
ATOM      2  C   UNL     1       4.840   4.303  18.048  0.00  0.00    +0.000 C 
ATOM      3  O   UNL     1       4.034   3.885  17.221  0.00  0.00    +0.000 OA
ATOM      4  H   UNL     1       5.318   4.351  20.033  0.00  0.00    +0.000 HD
ENDROOT
BRANCH   1   9
ATOM      5  C   UNL     1       2.170   5.090  20.069  0.00  0.00    +0.000 A 
ATOM      6  C   UNL     1       1.066   4.294  20.527  0.00  0.00    +0.000 A 
ATOM      7  C   UNL     1       1.402   2.966  20.665  0.00  0.00    +0.000 A 
ATOM      8  S   UNL     1       3.055   2.691  20.341  0.00  0.00    +0.000 S 
ATOM      9  C   UNL     1       3.288   4.312  19.871  0.00  0.00    +0.000 A 
BRANCH   5  11
ATOM     10  N   UNL     1       2.121   7.671  19.778  0.00  0.00    +0.000 NA
ATOM     11  C   UNL     1       2.111   6.521  19.933  0.00  0.00    +0.000 C 
ENDBRANCH   5  11
ENDBRANCH   1   9
BRANCH   2  12
ATOM     12  C   UNL     1       6.314   4.512  17.688  0.00  0.00    +0.000 C 
BRANCH  12  13
ATOM     13  O   UNL     1       6.625   4.101  16.361  0.00  0.00    +0.000 OA
BRANCH  13  14
ATOM     14  C   UNL     1       7.036   5.116  15.538  0.00  0.00    +0.000 C 
ATOM     15  O   UNL     1       7.452   6.191  15.956  0.00  0.00    +0.000 OA
BRANCH  14  16
ATOM     16  C   UNL     1       6.895   4.716  14.157  0.00  0.00    +0.000 A 
ATOM     17  C   UNL     1       7.712   4.871  13.048  0.00  0.00    +0.000 A 
ATOM     18  C   UNL     1       7.032   4.285  11.950  0.00  0.00    +0.000 A 
ATOM     19  C   UNL     1       5.848   3.801  12.449  0.00  0.00    +0.000 A 
ATOM     20 BR   UNL     1       4.540   2.923  11.448  0.00  0.00    +0.000 Br
ATOM     21  O   UNL     1       5.753   4.052  13.782  0.00  0.00    +0.000 OA
ENDBRANCH  14  16
ENDBRANCH  13  14
ENDBRANCH  12  13
ENDBRANCH   2  12
TORSDOF 6
ENDMDL
MODEL 6
REMARK VINA RESULT:      -6.6      1.485      1.967
REMARK  Name = 
REMARK  6 active torsions:
REMARK  status: ('A' for Active; 'I' for Inactive)
REMARK    1  A    between atoms: C_2  and  C_3
REMARK    2  A    between atoms: C_7  and  N_8
REMARK    3  A    between atoms: C_9  and  C_11
REMARK    4  A    between atoms: C_11  and  O_12
REMARK    5  A    between atoms: O_12  and  C_13
REMARK    6  A    between atoms: C_13  and  C_15
REMARK                            x       y       z     vdW  Elec       q    Type
REMARK                         _______ _______ _______ _____ _____    ______ ____
ROOT
ATOM      1  N   UNL     1       2.976   3.689  17.546  0.00  0.00    +0.000 N 
ATOM      2  C   UNL     1       4.334   3.960  17.521  0.00  0.00    +0.000 C 
ATOM      3  O   UNL     1       5.025   4.196  18.509  0.00  0.00    +0.000 OA
ATOM      4  H   UNL     1       2.444   4.042  16.751  0.00  0.00    +0.000 HD
ENDROOT
BRANCH   1   9
ATOM      5  C   UNL     1       1.857   4.644  19.622  0.00  0.00    +0.000 A 
ATOM      6  C   UNL     1       1.112   4.060  20.701  0.00  0.00    +0.000 A 
ATOM      7  C   UNL     1       1.039   2.689  20.604  0.00  0.00    +0.000 A 
ATOM      8  S   UNL     1       1.939   2.096  19.280  0.00  0.00    +0.000 S 
ATOM      9  C   UNL     1       2.300   3.675  18.750  0.00  0.00    +0.000 A 
BRANCH   5  11
ATOM     10  N   UNL     1       2.421   7.178  19.542  0.00  0.00    +0.000 NA
ATOM     11  C   UNL     1       2.161   6.047  19.538  0.00  0.00    +0.000 C 
ENDBRANCH   5  11
ENDBRANCH   1   9
BRANCH   2  12
ATOM     12  C   UNL     1       4.914   4.041  16.105  0.00  0.00    +0.000 C 
BRANCH  12  13
ATOM     13  O   UNL     1       5.449   5.324  15.798  0.00  0.00    +0.000 OA
BRANCH  13  14
ATOM     14  C   UNL     1       6.817   5.363  15.731  0.00  0.00    +0.000 C 
ATOM     15  O   UNL     1       7.459   4.839  14.828  0.00  0.00    +0.000 OA
BRANCH  14  16
ATOM     16  C   UNL     1       7.342   6.092  16.863  0.00  0.00    +0.000 A 
ATOM     17  C   UNL     1       7.677   5.708  18.152  0.00  0.00    +0.000 A 
ATOM     18  C   UNL     1       8.128   6.871  18.825  0.00  0.00    +0.000 A 
ATOM     19  C   UNL     1       8.052   7.894  17.912  0.00  0.00    +0.000 A 
ATOM     20 BR   UNL     1       8.520   9.670  18.247  0.00  0.00    +0.000 Br
ATOM     21  O   UNL     1       7.581   7.437  16.721  0.00  0.00    +0.000 OA
ENDBRANCH  14  16
ENDBRANCH  13  14
ENDBRANCH  12  13
ENDBRANCH   2  12
TORSDOF 6
ENDMDL
MODEL 7
REMARK VINA RESULT:      -6.6      2.716      3.771
REMARK  Name = 
REMARK  6 active torsions:
REMARK  status: ('A' for Active; 'I' for Inactive)
REMARK    1  A    between atoms: C_2  and  C_3
REMARK    2  A    between atoms: C_7  and  N_8
REMARK    3  A    between atoms: C_9  and  C_11
REMARK    4  A    between atoms: C_11  and  O_12
REMARK    5  A    between atoms: O_12  and  C_13
REMARK    6  A    between atoms: C_13  and  C_15
REMARK                            x       y       z     vdW  Elec       q    Type
REMARK                         _______ _______ _______ _____ _____    ______ ____
ROOT
ATOM      1  N   UNL     1       4.161   5.360  19.146  0.00  0.00    +0.000 N 
ATOM      2  C   UNL     1       5.353   4.672  19.302  0.00  0.00    +0.000 C 
ATOM      3  O   UNL     1       5.451   3.499  19.653  0.00  0.00    +0.000 OA
ATOM      4  H   UNL     1       4.189   6.347  19.393  0.00  0.00    +0.000 HD
ENDROOT
BRANCH   1   9
ATOM      5  C   UNL     1       2.218   3.768  18.739  0.00  0.00    +0.000 A 
ATOM      6  C   UNL     1       1.070   3.389  19.514  0.00  0.00    +0.000 A 
ATOM      7  C   UNL     1       0.993   4.078  20.704  0.00  0.00    +0.000 A 
ATOM      8  S   UNL     1       2.234   5.241  20.848  0.00  0.00    +0.000 S 
ATOM      9  C   UNL     1       2.961   4.722  19.397  0.00  0.00    +0.000 A 
BRANCH   5  11
ATOM     10  N   UNL     1       2.756   2.840  16.374  0.00  0.00    +0.000 NA
ATOM     11  C   UNL     1       2.480   3.267  17.416  0.00  0.00    +0.000 C 
ENDBRANCH   5  11
ENDBRANCH   1   9
BRANCH   2  12
ATOM     12  C   UNL     1       6.593   5.546  19.087  0.00  0.00    +0.000 C 
BRANCH  12  13
ATOM     13  O   UNL     1       7.357   5.154  17.952  0.00  0.00    +0.000 OA
BRANCH  13  14
ATOM     14  C   UNL     1       7.257   6.006  16.883  0.00  0.00    +0.000 C 
ATOM     15  O   UNL     1       7.623   7.175  16.921  0.00  0.00    +0.000 OA
BRANCH  14  16
ATOM     16  C   UNL     1       6.665   5.316  15.760  0.00  0.00    +0.000 A 
ATOM     17  C   UNL     1       5.428   4.719  15.572  0.00  0.00    +0.000 A 
ATOM     18  C   UNL     1       5.424   4.182  14.260  0.00  0.00    +0.000 A 
ATOM     19  C   UNL     1       6.650   4.485  13.720  0.00  0.00    +0.000 A 
ATOM     20 BR   UNL     1       7.210   4.020  12.002  0.00  0.00    +0.000 Br
ATOM     21  O   UNL     1       7.408   5.173  14.615  0.00  0.00    +0.000 OA
ENDBRANCH  14  16
ENDBRANCH  13  14
ENDBRANCH  12  13
ENDBRANCH   2  12
TORSDOF 6
ENDMDL
MODEL 8
REMARK VINA RESULT:      -6.6      3.078      4.263
REMARK  Name = 
REMARK  6 active torsions:
REMARK  status: ('A' for Active; 'I' for Inactive)
REMARK    1  A    between atoms: C_2  and  C_3
REMARK    2  A    between atoms: C_7  and  N_8
REMARK    3  A    between atoms: C_9  and  C_11
REMARK    4  A    between atoms: C_11  and  O_12
REMARK    5  A    between atoms: O_12  and  C_13
REMARK    6  A    between atoms: C_13  and  C_15
REMARK                            x       y       z     vdW  Elec       q    Type
REMARK                         _______ _______ _______ _____ _____    ______ ____
ROOT
ATOM      1  N   UNL     1       4.425   3.124  18.814  0.00  0.00    +0.000 N 
ATOM      2  C   UNL     1       5.083   4.337  18.691  0.00  0.00    +0.000 C 
ATOM      3  O   UNL     1       4.710   5.396  19.189  0.00  0.00    +0.000 OA
ATOM      4  H   UNL     1       4.474   2.515  17.998  0.00  0.00    +0.000 HD
ENDROOT
BRANCH   1   9
ATOM      5  C   UNL     1       1.925   3.281  19.259  0.00  0.00    +0.000 A 
ATOM      6  C   UNL     1       1.098   2.948  20.384  0.00  0.00    +0.000 A 
ATOM      7  C   UNL     1       1.833   2.498  21.458  0.00  0.00    +0.000 A 
ATOM      8  S   UNL     1       3.511   2.564  21.152  0.00  0.00    +0.000 S 
ATOM      9  C   UNL     1       3.252   3.048  19.539  0.00  0.00    +0.000 A 
BRANCH   5  11
ATOM     10  N   UNL     1       1.038   4.394  17.086  0.00  0.00    +0.000 NA
ATOM     11  C   UNL     1       1.415   3.863  18.046  0.00  0.00    +0.000 C 
ENDBRANCH   5  11
ENDBRANCH   1   9
BRANCH   2  12
ATOM     12  C   UNL     1       6.307   4.277  17.772  0.00  0.00    +0.000 C 
BRANCH  12  13
ATOM     13  O   UNL     1       5.980   4.457  16.399  0.00  0.00    +0.000 OA
BRANCH  13  14
ATOM     14  C   UNL     1       6.873   5.227  15.702  0.00  0.00    +0.000 C 
ATOM     15  O   UNL     1       7.512   6.140  16.214  0.00  0.00    +0.000 OA
BRANCH  14  16
ATOM     16  C   UNL     1       6.922   4.797  14.324  0.00  0.00    +0.000 A 
ATOM     17  C   UNL     1       7.693   5.197  13.244  0.00  0.00    +0.000 A 
ATOM     18  C   UNL     1       7.279   4.421  12.132  0.00  0.00    +0.000 A 
ATOM     19  C   UNL     1       6.290   3.589  12.594  0.00  0.00    +0.000 A 
ATOM     20 BR   UNL     1       5.369   2.337  11.560  0.00  0.00    +0.000 Br
ATOM     21  O   UNL     1       6.066   3.803  13.918  0.00  0.00    +0.000 OA
ENDBRANCH  14  16
ENDBRANCH  13  14
ENDBRANCH  12  13
ENDBRANCH   2  12
TORSDOF 6
ENDMDL
MODEL 9
REMARK VINA RESULT:      -6.6      2.540      3.314
REMARK  Name = 
REMARK  6 active torsions:
REMARK  status: ('A' for Active; 'I' for Inactive)
REMARK    1  A    between atoms: C_2  and  C_3
REMARK    2  A    between atoms: C_7  and  N_8
REMARK    3  A    between atoms: C_9  and  C_11
REMARK    4  A    between atoms: C_11  and  O_12
REMARK    5  A    between atoms: O_12  and  C_13
REMARK    6  A    between atoms: C_13  and  C_15
REMARK                            x       y       z     vdW  Elec       q    Type
REMARK                         _______ _______ _______ _____ _____    ______ ____
ROOT
ATOM      1  N   UNL     1       3.811   5.061  18.396  0.00  0.00    +0.000 N 
ATOM      2  C   UNL     1       5.100   5.456  18.712  0.00  0.00    +0.000 C 
ATOM      3  O   UNL     1       5.666   5.232  19.779  0.00  0.00    +0.000 OA
ATOM      4  H   UNL     1       3.287   5.707  17.807  0.00  0.00    +0.000 HD
ENDROOT
BRANCH   1   9
ATOM      5  C   UNL     1       2.888   3.028  19.616  0.00  0.00    +0.000 A 
ATOM      6  C   UNL     1       2.042   2.863  20.764  0.00  0.00    +0.000 A 
ATOM      7  C   UNL     1       1.606   4.067  21.269  0.00  0.00    +0.000 A 
ATOM      8  S   UNL     1       2.129   5.384  20.316  0.00  0.00    +0.000 S 
ATOM      9  C   UNL     1       3.060   4.361  19.320  0.00  0.00    +0.000 A 
BRANCH   5  11
ATOM     10  N   UNL     1       3.840   1.011  18.284  0.00  0.00    +0.000 NA
ATOM     11  C   UNL     1       3.400   1.927  18.845  0.00  0.00    +0.000 C 
ENDBRANCH   5  11
ENDBRANCH   1   9
BRANCH   2  12
ATOM     12  C   UNL     1       5.761   6.309  17.624  0.00  0.00    +0.000 C 
BRANCH  12  13
ATOM     13  O   UNL     1       7.172   6.133  17.561  0.00  0.00    +0.000 OA
BRANCH  13  14
ATOM     14  C   UNL     1       7.567   4.886  17.155  0.00  0.00    +0.000 C 
ATOM     15  O   UNL     1       8.257   4.144  17.845  0.00  0.00    +0.000 OA
BRANCH  14  16
ATOM     16  C   UNL     1       7.055   4.615  15.831  0.00  0.00    +0.000 A 
ATOM     17  C   UNL     1       6.002   3.839  15.374  0.00  0.00    +0.000 A 
ATOM     18  C   UNL     1       5.994   3.947  13.960  0.00  0.00    +0.000 A 
ATOM     19  C   UNL     1       7.033   4.784  13.635  0.00  0.00    +0.000 A 
ATOM     20 BR   UNL     1       7.504   5.287  11.900  0.00  0.00    +0.000 Br
ATOM     21  O   UNL     1       7.681   5.198  14.757  0.00  0.00    +0.000 OA
ENDBRANCH  14  16
ENDBRANCH  13  14
ENDBRANCH  12  13
ENDBRANCH   2  12
TORSDOF 6
ENDMDL
