MODEL 1
REMARK VINA RESULT:      -7.9      0.000      0.000
REMARK  Name = 
REMARK  11 active torsions:
REMARK  status: ('A' for Active; 'I' for Inactive)
REMARK    1  A    between atoms: C_1  and  C_2
REMARK    2  A    between atoms: C_2  and  C_3
REMARK    3  A    between atoms: C_3  and  C_4
REMARK    4  A    between atoms: C_12  and  C_13
REMARK    5  A    between atoms: C_13  and  C_15
REMARK    6  A    between atoms: C_15  and  C_16
REMARK    7  A    between atoms: C_15  and  C_17
REMARK    8  A    between atoms: C_17  and  C_18
REMARK    9  A    between atoms: C_19  and  O_20
REMARK   10  A    between atoms: C_23  and  C_24
REMARK   11  A    between atoms: C_23  and  C_25
REMARK                            x       y       z     vdW  Elec       q    Type
REMARK                         _______ _______ _______ _____ _____    ______ ____
ROOT
ATOM      1  C   UNL     1       1.685   7.919  19.997  0.00  0.00    +0.000 A 
ATOM      2  C   UNL     1       1.537   9.136  19.450  0.00  0.00    +0.000 A 
ATOM      3  C   UNL     1       2.188   9.555  18.208  0.00  0.00    +0.000 A 
ATOM      4  O   UNL     1       2.073  10.697  17.782  0.00  0.00    +0.000 OA
ATOM      5  O   UNL     1       2.884   8.572  17.530  0.00  0.00    +0.000 OA
ATOM      6  C   UNL     1       3.098   7.285  18.075  0.00  0.00    +0.000 A 
ATOM      7  C   UNL     1       3.901   6.410  17.321  0.00  0.00    +0.000 A 
ATOM      8  C   UNL     1       4.209   5.146  17.841  0.00  0.00    +0.000 A 
ATOM      9  C   UNL     1       3.677   4.736  19.074  0.00  0.00    +0.000 A 
ATOM     10  C   UNL     1       2.914   5.660  19.829  0.00  0.00    +0.000 A 
ATOM     11  C   UNL     1       2.572   6.936  19.330  0.00  0.00    +0.000 A 
ATOM     12  O   UNL     1       5.058   4.295  17.175  0.00  0.00    +0.000 OA
ATOM     13  C   UNL     1       5.994   4.892  16.251  0.00  0.00    +0.000 C 
ATOM     14  C   UNL     1       7.224   5.355  17.048  0.00  0.00    +0.000 C 
ATOM     15  C   UNL     1       6.401   3.771  15.288  0.00  0.00    +0.000 C 
ATOM     16  C   UNL     1       5.405   6.052  15.486  0.00  0.00    +0.000 C 
ATOM     17  C   UNL     1       4.404   6.783  16.002  0.00  0.00    +0.000 C 
ENDROOT
BRANCH   9  18
ATOM     18  C   UNL     1       3.898   3.370  19.645  0.00  0.00    +0.000 C 
ATOM     19  O   UNL     1       4.925   3.188  20.309  0.00  0.00    +0.000 OA
BRANCH  18  20
ATOM     20  C   UNL     1       2.850   2.267  19.508  0.00  0.00    +0.000 C 
ATOM     21  C   UNL     1       2.030   2.227  20.800  0.00  0.00    +0.000 C 
BRANCH  20  22
ATOM     22  C   UNL     1       1.923   2.522  18.306  0.00  0.00    +0.000 C 
ATOM     23  C   UNL     1       0.494   2.853  18.713  0.00  0.00    +0.000 C 
ENDBRANCH  20  22
ENDBRANCH  18  20
ENDBRANCH   9  18
BRANCH  10  24
ATOM     24  O   UNL     1       2.505   5.328  21.101  0.00  0.00    +0.000 OA
ATOM     25  H   UNL     1       1.528   5.433  21.165  0.00  0.00    +0.000 HD
ENDBRANCH  10  24
BRANCH   1  26
ATOM     26  C   UNL     1       0.853   7.558  21.208  0.00  0.00    +0.000 C 
BRANCH  26  28
ATOM     27  C   UNL     1       0.243   9.356  22.852  0.00  0.00    +0.000 C 
ATOM     28  C   UNL     1      -0.176   8.625  21.585  0.00  0.00    +0.000 C 
ENDBRANCH  26  28
ENDBRANCH   1  26
TORSDOF 6
ENDMDL
MODEL 2
REMARK VINA RESULT:      -7.7      1.664      4.788
REMARK  Name = 
REMARK  11 active torsions:
REMARK  status: ('A' for Active; 'I' for Inactive)
REMARK    1  A    between atoms: C_1  and  C_2
REMARK    2  A    between atoms: C_2  and  C_3
REMARK    3  A    between atoms: C_3  and  C_4
REMARK    4  A    between atoms: C_12  and  C_13
REMARK    5  A    between atoms: C_13  and  C_15
REMARK    6  A    between atoms: C_15  and  C_16
REMARK    7  A    between atoms: C_15  and  C_17
REMARK    8  A    between atoms: C_17  and  C_18
REMARK    9  A    between atoms: C_19  and  O_20
REMARK   10  A    between atoms: C_23  and  C_24
REMARK   11  A    between atoms: C_23  and  C_25
REMARK                            x       y       z     vdW  Elec       q    Type
REMARK                         _______ _______ _______ _____ _____    ______ ____
ROOT
ATOM      1  C   UNL     1       1.622   9.023  19.050  0.00  0.00    +0.000 A 
ATOM      2  C   UNL     1       0.659   9.244  19.960  0.00  0.00    +0.000 A 
ATOM      3  C   UNL     1       0.243   8.261  20.961  0.00  0.00    +0.000 A 
ATOM      4  O   UNL     1      -0.684   8.486  21.727  0.00  0.00    +0.000 OA
ATOM      5  O   UNL     1       0.992   7.101  21.016  0.00  0.00    +0.000 OA
ATOM      6  C   UNL     1       1.995   6.803  20.063  0.00  0.00    +0.000 A 
ATOM      7  C   UNL     1       2.618   5.548  20.182  0.00  0.00    +0.000 A 
ATOM      8  C   UNL     1       3.569   5.164  19.226  0.00  0.00    +0.000 A 
ATOM      9  C   UNL     1       3.934   6.043  18.195  0.00  0.00    +0.000 A 
ATOM     10  C   UNL     1       3.250   7.278  18.077  0.00  0.00    +0.000 A 
ATOM     11  C   UNL     1       2.298   7.703  19.029  0.00  0.00    +0.000 A 
ATOM     12  O   UNL     1       4.139   3.914  19.258  0.00  0.00    +0.000 OA
ATOM     13  C   UNL     1       3.399   2.872  19.932  0.00  0.00    +0.000 C 
ATOM     14  C   UNL     1       2.382   2.287  18.938  0.00  0.00    +0.000 C 
ATOM     15  C   UNL     1       4.431   1.799  20.298  0.00  0.00    +0.000 C 
ATOM     16  C   UNL     1       2.690   3.363  21.171  0.00  0.00    +0.000 C 
ATOM     17  C   UNL     1       2.312   4.645  21.288  0.00  0.00    +0.000 C 
ENDROOT
BRANCH   9  18
ATOM     18  C   UNL     1       5.001   5.729  17.193  0.00  0.00    +0.000 C 
ATOM     19  O   UNL     1       4.644   5.490  16.034  0.00  0.00    +0.000 OA
BRANCH  18  20
ATOM     20  C   UNL     1       6.483   5.804  17.554  0.00  0.00    +0.000 C 
ATOM     21  C   UNL     1       7.203   4.648  16.855  0.00  0.00    +0.000 C 
BRANCH  20  22
ATOM     22  C   UNL     1       7.099   7.146  17.117  0.00  0.00    +0.000 C 
ATOM     23  C   UNL     1       8.077   7.713  18.137  0.00  0.00    +0.000 C 
ENDBRANCH  20  22
ENDBRANCH  18  20
ENDBRANCH   9  18
BRANCH  10  24
ATOM     24  O   UNL     1       3.492   8.090  16.992  0.00  0.00    +0.000 OA
ATOM     25  H   UNL     1       4.305   7.781  16.530  0.00  0.00    +0.000 HD
ENDBRANCH  10  24
BRANCH   1  26
ATOM     26  C   UNL     1       2.058  10.164  18.158  0.00  0.00    +0.000 C 
BRANCH  26  28
ATOM     27  C   UNL     1       2.508  12.635  18.120  0.00  0.00    +0.000 C 
ATOM     28  C   UNL     1       1.596  11.537  18.649  0.00  0.00    +0.000 C 
ENDBRANCH  26  28
ENDBRANCH   1  26
TORSDOF 6
ENDMDL
MODEL 3
REMARK VINA RESULT:      -7.4      0.788      1.088
REMARK  Name = 
REMARK  11 active torsions:
REMARK  status: ('A' for Active; 'I' for Inactive)
REMARK    1  A    between atoms: C_1  and  C_2
REMARK    2  A    between atoms: C_2  and  C_3
REMARK    3  A    between atoms: C_3  and  C_4
REMARK    4  A    between atoms: C_12  and  C_13
REMARK    5  A    between atoms: C_13  and  C_15
REMARK    6  A    between atoms: C_15  and  C_16
REMARK    7  A    between atoms: C_15  and  C_17
REMARK    8  A    between atoms: C_17  and  C_18
REMARK    9  A    between atoms: C_19  and  O_20
REMARK   10  A    between atoms: C_23  and  C_24
REMARK   11  A    between atoms: C_23  and  C_25
REMARK                            x       y       z     vdW  Elec       q    Type
REMARK                         _______ _______ _______ _____ _____    ______ ____
ROOT
ATOM      1  C   UNL     1       1.362   8.530  20.026  0.00  0.00    +0.000 A 
ATOM      2  C   UNL     1       1.389   9.749  19.465  0.00  0.00    +0.000 A 
ATOM      3  C   UNL     1       2.183  10.083  18.282  0.00  0.00    +0.000 A 
ATOM      4  O   UNL     1       2.225  11.226  17.846  0.00  0.00    +0.000 OA
ATOM      5  O   UNL     1       2.827   9.026  17.669  0.00  0.00    +0.000 OA
ATOM      6  C   UNL     1       2.858   7.729  18.234  0.00  0.00    +0.000 A 
ATOM      7  C   UNL     1       3.626   6.767  17.553  0.00  0.00    +0.000 A 
ATOM      8  C   UNL     1       3.755   5.484  18.101  0.00  0.00    +0.000 A 
ATOM      9  C   UNL     1       3.081   5.146  19.285  0.00  0.00    +0.000 A 
ATOM     10  C   UNL     1       2.357   6.153  19.969  0.00  0.00    +0.000 A 
ATOM     11  C   UNL     1       2.195   7.452  19.440  0.00  0.00    +0.000 A 
ATOM     12  O   UNL     1       4.563   4.541  17.512  0.00  0.00    +0.000 OA
ATOM     13  C   UNL     1       5.632   5.027  16.670  0.00  0.00    +0.000 C 
ATOM     14  C   UNL     1       6.832   5.369  17.568  0.00  0.00    +0.000 C 
ATOM     15  C   UNL     1       5.999   3.859  15.748  0.00  0.00    +0.000 C 
ATOM     16  C   UNL     1       5.235   6.234  15.854  0.00  0.00    +0.000 C 
ATOM     17  C   UNL     1       4.275   7.070  16.281  0.00  0.00    +0.000 C 
ENDROOT
BRANCH   9  18
ATOM     18  C   UNL     1       3.108   3.770  19.876  0.00  0.00    +0.000 C 
ATOM     19  O   UNL     1       3.932   3.550  20.771  0.00  0.00    +0.000 OA
BRANCH  18  20
ATOM     20  C   UNL     1       2.091   2.706  19.472  0.00  0.00    +0.000 C 
ATOM     21  C   UNL     1       0.713   3.368  19.398  0.00  0.00    +0.000 C 
BRANCH  20  22
ATOM     22  C   UNL     1       2.446   2.080  18.111  0.00  0.00    +0.000 C 
ATOM     23  C   UNL     1       3.733   1.265  18.147  0.00  0.00    +0.000 C 
ENDBRANCH  20  22
ENDBRANCH  18  20
ENDBRANCH   9  18
BRANCH  10  24
ATOM     24  O   UNL     1       1.810   5.880  21.203  0.00  0.00    +0.000 OA
ATOM     25  H   UNL     1       2.098   6.568  21.845  0.00  0.00    +0.000 HD
ENDBRANCH  10  24
BRANCH   1  26
ATOM     26  C   UNL     1       0.397   8.271  21.163  0.00  0.00    +0.000 C 
BRANCH  26  28
ATOM     27  C   UNL     1      -0.517   9.923  22.819  0.00  0.00    +0.000 C 
ATOM     28  C   UNL     1       0.694   9.093  22.418  0.00  0.00    +0.000 C 
ENDBRANCH  26  28
ENDBRANCH   1  26
TORSDOF 6
ENDMDL
MODEL 4
REMARK VINA RESULT:      -7.4      0.725      1.014
REMARK  Name = 
REMARK  11 active torsions:
REMARK  status: ('A' for Active; 'I' for Inactive)
REMARK    1  A    between atoms: C_1  and  C_2
REMARK    2  A    between atoms: C_2  and  C_3
REMARK    3  A    between atoms: C_3  and  C_4
REMARK    4  A    between atoms: C_12  and  C_13
REMARK    5  A    between atoms: C_13  and  C_15
REMARK    6  A    between atoms: C_15  and  C_16
REMARK    7  A    between atoms: C_15  and  C_17
REMARK    8  A    between atoms: C_17  and  C_18
REMARK    9  A    between atoms: C_19  and  O_20
REMARK   10  A    between atoms: C_23  and  C_24
REMARK   11  A    between atoms: C_23  and  C_25
REMARK                            x       y       z     vdW  Elec       q    Type
REMARK                         _______ _______ _______ _____ _____    ______ ____
ROOT
ATOM      1  C   UNL     1       1.466   8.548  19.929  0.00  0.00    +0.000 A 
ATOM      2  C   UNL     1       1.457   9.792  19.423  0.00  0.00    +0.000 A 
ATOM      3  C   UNL     1       2.211  10.192  18.234  0.00  0.00    +0.000 A 
ATOM      4  O   UNL     1       2.221  11.354  17.848  0.00  0.00    +0.000 OA
ATOM      5  O   UNL     1       2.854   9.175  17.556  0.00  0.00    +0.000 OA
ATOM      6  C   UNL     1       2.923   7.855  18.061  0.00  0.00    +0.000 A 
ATOM      7  C   UNL     1       3.686   6.938  17.316  0.00  0.00    +0.000 A 
ATOM      8  C   UNL     1       3.852   5.634  17.802  0.00  0.00    +0.000 A 
ATOM      9  C   UNL     1       3.219   5.232  18.988  0.00  0.00    +0.000 A 
ATOM     10  C   UNL     1       2.499   6.195  19.738  0.00  0.00    +0.000 A 
ATOM     11  C   UNL     1       2.299   7.512  19.272  0.00  0.00    +0.000 A 
ATOM     12  O   UNL     1       4.658   4.733  17.149  0.00  0.00    +0.000 OA
ATOM     13  C   UNL     1       5.694   5.275  16.299  0.00  0.00    +0.000 C 
ATOM     14  C   UNL     1       6.914   5.598  17.177  0.00  0.00    +0.000 C 
ATOM     15  C   UNL     1       6.053   4.155  15.316  0.00  0.00    +0.000 C 
ATOM     16  C   UNL     1       5.253   6.509  15.550  0.00  0.00    +0.000 C 
ATOM     17  C   UNL     1       4.293   7.308  16.041  0.00  0.00    +0.000 C 
ENDROOT
BRANCH   9  18
ATOM     18  C   UNL     1       3.286   3.832  19.516  0.00  0.00    +0.000 C 
ATOM     19  O   UNL     1       4.153   3.582  20.361  0.00  0.00    +0.000 OA
BRANCH  18  20
ATOM     20  C   UNL     1       2.260   2.776  19.113  0.00  0.00    +0.000 C 
ATOM     21  C   UNL     1       2.961   1.416  19.086  0.00  0.00    +0.000 C 
BRANCH  20  22
ATOM     22  C   UNL     1       1.078   2.738  20.100  0.00  0.00    +0.000 C 
ATOM     23  C   UNL     1       1.514   2.537  21.545  0.00  0.00    +0.000 C 
ENDBRANCH  20  22
ENDBRANCH  18  20
ENDBRANCH   9  18
BRANCH  10  24
ATOM     24  O   UNL     1       1.992   5.857  20.973  0.00  0.00    +0.000 OA
ATOM     25  H   UNL     1       1.273   5.194  20.858  0.00  0.00    +0.000 HD
ENDBRANCH  10  24
BRANCH   1  26
ATOM     26  C   UNL     1       0.540   8.223  21.080  0.00  0.00    +0.000 C 
BRANCH  26  28
ATOM     27  C   UNL     1      -0.093   9.520  23.136  0.00  0.00    +0.000 C 
ATOM     28  C   UNL     1      -0.216   9.438  21.621  0.00  0.00    +0.000 C 
ENDBRANCH  26  28
ENDBRANCH   1  26
TORSDOF 6
ENDMDL
MODEL 5
REMARK VINA RESULT:      -7.0      0.963      1.079
REMARK  Name = 
REMARK  11 active torsions:
REMARK  status: ('A' for Active; 'I' for Inactive)
REMARK    1  A    between atoms: C_1  and  C_2
REMARK    2  A    between atoms: C_2  and  C_3
REMARK    3  A    between atoms: C_3  and  C_4
REMARK    4  A    between atoms: C_12  and  C_13
REMARK    5  A    between atoms: C_13  and  C_15
REMARK    6  A    between atoms: C_15  and  C_16
REMARK    7  A    between atoms: C_15  and  C_17
REMARK    8  A    between atoms: C_17  and  C_18
REMARK    9  A    between atoms: C_19  and  O_20
REMARK   10  A    between atoms: C_23  and  C_24
REMARK   11  A    between atoms: C_23  and  C_25
REMARK                            x       y       z     vdW  Elec       q    Type
REMARK                         _______ _______ _______ _____ _____    ______ ____
ROOT
ATOM      1  C   UNL     1       1.346   8.442  20.006  0.00  0.00    +0.000 A 
ATOM      2  C   UNL     1       1.334   9.655  19.430  0.00  0.00    +0.000 A 
ATOM      3  C   UNL     1       2.129  10.005  18.252  0.00  0.00    +0.000 A 
ATOM      4  O   UNL     1       2.133  11.143  17.803  0.00  0.00    +0.000 OA
ATOM      5  O   UNL     1       2.820   8.966  17.660  0.00  0.00    +0.000 OA
ATOM      6  C   UNL     1       2.894   7.678  18.241  0.00  0.00    +0.000 A 
ATOM      7  C   UNL     1       3.706   6.739  17.581  0.00  0.00    +0.000 A 
ATOM      8  C   UNL     1       3.877   5.467  18.146  0.00  0.00    +0.000 A 
ATOM      9  C   UNL     1       3.202   5.118  19.326  0.00  0.00    +0.000 A 
ATOM     10  C   UNL     1       2.433   6.105  19.989  0.00  0.00    +0.000 A 
ATOM     11  C   UNL     1       2.227   7.390  19.442  0.00  0.00    +0.000 A 
ATOM     12  O   UNL     1       4.728   4.550  17.578  0.00  0.00    +0.000 OA
ATOM     13  C   UNL     1       5.788   5.066  16.742  0.00  0.00    +0.000 C 
ATOM     14  C   UNL     1       6.963   5.464  17.650  0.00  0.00    +0.000 C 
ATOM     15  C   UNL     1       6.210   3.902  15.839  0.00  0.00    +0.000 C 
ATOM     16  C   UNL     1       5.354   6.247  15.908  0.00  0.00    +0.000 C 
ATOM     17  C   UNL     1       4.359   7.051  16.313  0.00  0.00    +0.000 C 
ENDROOT
BRANCH   9  18
ATOM     18  C   UNL     1       3.275   3.752  19.934  0.00  0.00    +0.000 C 
ATOM     19  O   UNL     1       2.545   3.519  20.904  0.00  0.00    +0.000 OA
BRANCH  18  20
ATOM     20  C   UNL     1       4.134   2.649  19.321  0.00  0.00    +0.000 C 
ATOM     21  C   UNL     1       4.913   1.968  20.450  0.00  0.00    +0.000 C 
BRANCH  20  22
ATOM     22  C   UNL     1       3.270   1.612  18.581  0.00  0.00    +0.000 C 
ATOM     23  C   UNL     1       2.220   2.245  17.678  0.00  0.00    +0.000 C 
ENDBRANCH  20  22
ENDBRANCH  18  20
ENDBRANCH   9  18
BRANCH  10  24
ATOM     24  O   UNL     1       1.881   5.825  21.220  0.00  0.00    +0.000 OA
ATOM     25  H   UNL     1       2.448   5.170  21.688  0.00  0.00    +0.000 HD
ENDBRANCH  10  24
BRANCH   1  26
ATOM     26  C   UNL     1       0.379   8.160  21.134  0.00  0.00    +0.000 C 
BRANCH  26  28
ATOM     27  C   UNL     1      -0.005   9.490  23.230  0.00  0.00    +0.000 C 
ATOM     28  C   UNL     1      -0.252   9.420  21.729  0.00  0.00    +0.000 C 
ENDBRANCH  26  28
ENDBRANCH   1  26
TORSDOF 6
ENDMDL
MODEL 6
REMARK VINA RESULT:      -7.0      1.884      4.818
REMARK  Name = 
REMARK  11 active torsions:
REMARK  status: ('A' for Active; 'I' for Inactive)
REMARK    1  A    between atoms: C_1  and  C_2
REMARK    2  A    between atoms: C_2  and  C_3
REMARK    3  A    between atoms: C_3  and  C_4
REMARK    4  A    between atoms: C_12  and  C_13
REMARK    5  A    between atoms: C_13  and  C_15
REMARK    6  A    between atoms: C_15  and  C_16
REMARK    7  A    between atoms: C_15  and  C_17
REMARK    8  A    between atoms: C_17  and  C_18
REMARK    9  A    between atoms: C_19  and  O_20
REMARK   10  A    between atoms: C_23  and  C_24
REMARK   11  A    between atoms: C_23  and  C_25
REMARK                            x       y       z     vdW  Elec       q    Type
REMARK                         _______ _______ _______ _____ _____    ______ ____
ROOT
ATOM      1  C   UNL     1       1.093   9.622  19.608  0.00  0.00    +0.000 A 
ATOM      2  C   UNL     1       0.212   9.647  20.620  0.00  0.00    +0.000 A 
ATOM      3  C   UNL     1      -0.085   8.493  21.470  0.00  0.00    +0.000 A 
ATOM      4  O   UNL     1      -0.944   8.547  22.340  0.00  0.00    +0.000 OA
ATOM      5  O   UNL     1       0.697   7.373  21.262  0.00  0.00    +0.000 OA
ATOM      6  C   UNL     1       1.616   7.281  20.190  0.00  0.00    +0.000 A 
ATOM      7  C   UNL     1       2.281   6.051  20.039  0.00  0.00    +0.000 A 
ATOM      8  C   UNL     1       3.150   5.873  18.954  0.00  0.00    +0.000 A 
ATOM      9  C   UNL     1       3.397   6.928  18.061  0.00  0.00    +0.000 A 
ATOM     10  C   UNL     1       2.672   8.135  18.215  0.00  0.00    +0.000 A 
ATOM     11  C   UNL     1       1.800   8.354  19.304  0.00  0.00    +0.000 A 
ATOM     12  O   UNL     1       3.755   4.661  18.723  0.00  0.00    +0.000 OA
ATOM     13  C   UNL     1       3.107   3.490  19.269  0.00  0.00    +0.000 C 
ATOM     14  C   UNL     1       2.020   3.039  18.281  0.00  0.00    +0.000 C 
ATOM     15  C   UNL     1       4.196   2.415  19.358  0.00  0.00    +0.000 C 
ATOM     16  C   UNL     1       2.501   3.735  20.630  0.00  0.00    +0.000 C 
ATOM     17  C   UNL     1       2.101   4.963  20.997  0.00  0.00    +0.000 C 
ENDROOT
BRANCH   9  18
ATOM     18  C   UNL     1       4.376   6.831  16.933  0.00  0.00    +0.000 C 
ATOM     19  O   UNL     1       4.059   7.348  15.856  0.00  0.00    +0.000 OA
BRANCH  18  20
ATOM     20  C   UNL     1       5.760   6.214  17.127  0.00  0.00    +0.000 C 
ATOM     21  C   UNL     1       6.084   5.372  15.890  0.00  0.00    +0.000 C 
BRANCH  20  22
ATOM     22  C   UNL     1       6.835   7.300  17.319  0.00  0.00    +0.000 C 
ATOM     23  C   UNL     1       7.899   6.913  18.338  0.00  0.00    +0.000 C 
ENDBRANCH  20  22
ENDBRANCH  18  20
ENDBRANCH   9  18
BRANCH  10  24
ATOM     24  O   UNL     1       2.793   9.127  17.268  0.00  0.00    +0.000 OA
ATOM     25  H   UNL     1       3.408   9.820  17.601  0.00  0.00    +0.000 HD
ENDBRANCH  10  24
BRANCH   1  26
ATOM     26  C   UNL     1       1.416  10.914  18.890  0.00  0.00    +0.000 C 
BRANCH  26  28
ATOM     27  C   UNL     1       0.730  13.285  18.428  0.00  0.00    +0.000 C 
ATOM     28  C   UNL     1       0.253  11.906  18.862  0.00  0.00    +0.000 C 
ENDBRANCH  26  28
ENDBRANCH   1  26
TORSDOF 6
ENDMDL
MODEL 7
REMARK VINA RESULT:      -6.8      1.658      4.493
REMARK  Name = 
REMARK  11 active torsions:
REMARK  status: ('A' for Active; 'I' for Inactive)
REMARK    1  A    between atoms: C_1  and  C_2
REMARK    2  A    between atoms: C_2  and  C_3
REMARK    3  A    between atoms: C_3  and  C_4
REMARK    4  A    between atoms: C_12  and  C_13
REMARK    5  A    between atoms: C_13  and  C_15
REMARK    6  A    between atoms: C_15  and  C_16
REMARK    7  A    between atoms: C_15  and  C_17
REMARK    8  A    between atoms: C_17  and  C_18
REMARK    9  A    between atoms: C_19  and  O_20
REMARK   10  A    between atoms: C_23  and  C_24
REMARK   11  A    between atoms: C_23  and  C_25
REMARK                            x       y       z     vdW  Elec       q    Type
REMARK                         _______ _______ _______ _____ _____    ______ ____
ROOT
ATOM      1  C   UNL     1       1.495   9.013  19.144  0.00  0.00    +0.000 A 
ATOM      2  C   UNL     1       0.541   9.201  20.069  0.00  0.00    +0.000 A 
ATOM      3  C   UNL     1       0.166   8.199  21.068  0.00  0.00    +0.000 A 
ATOM      4  O   UNL     1      -0.755   8.392  21.850  0.00  0.00    +0.000 OA
ATOM      5  O   UNL     1       0.947   7.060  21.102  0.00  0.00    +0.000 OA
ATOM      6  C   UNL     1       1.943   6.796  20.132  0.00  0.00    +0.000 A 
ATOM      7  C   UNL     1       2.601   5.557  20.230  0.00  0.00    +0.000 A 
ATOM      8  C   UNL     1       3.547   5.207  19.257  0.00  0.00    +0.000 A 
ATOM      9  C   UNL     1       3.873   6.104  18.228  0.00  0.00    +0.000 A 
ATOM     10  C   UNL     1       3.155   7.321  18.131  0.00  0.00    +0.000 A 
ATOM     11  C   UNL     1       2.206   7.713  19.101  0.00  0.00    +0.000 A 
ATOM     12  O   UNL     1       4.152   3.973  19.270  0.00  0.00    +0.000 OA
ATOM     13  C   UNL     1       3.450   2.905  19.946  0.00  0.00    +0.000 C 
ATOM     14  C   UNL     1       2.434   2.302  18.963  0.00  0.00    +0.000 C 
ATOM     15  C   UNL     1       4.516   1.858  20.288  0.00  0.00    +0.000 C 
ATOM     16  C   UNL     1       2.747   3.367  21.199  0.00  0.00    +0.000 C 
ATOM     17  C   UNL     1       2.337   4.638  21.333  0.00  0.00    +0.000 C 
ENDROOT
BRANCH   9  18
ATOM     18  C   UNL     1       4.933   5.826  17.208  0.00  0.00    +0.000 C 
ATOM     19  O   UNL     1       5.603   6.784  16.806  0.00  0.00    +0.000 OA
BRANCH  18  20
ATOM     20  C   UNL     1       5.254   4.404  16.755  0.00  0.00    +0.000 C 
ATOM     21  C   UNL     1       4.091   3.904  15.895  0.00  0.00    +0.000 C 
BRANCH  20  22
ATOM     22  C   UNL     1       6.564   4.355  15.947  0.00  0.00    +0.000 C 
ATOM     23  C   UNL     1       6.335   4.201  14.449  0.00  0.00    +0.000 C 
ENDBRANCH  20  22
ENDBRANCH  18  20
ENDBRANCH   9  18
BRANCH  10  24
ATOM     24  O   UNL     1       3.358   8.148  17.049  0.00  0.00    +0.000 OA
ATOM     25  H   UNL     1       3.314   9.086  17.346  0.00  0.00    +0.000 HD
ENDBRANCH  10  24
BRANCH   1  26
ATOM     26  C   UNL     1       1.887  10.173  18.255  0.00  0.00    +0.000 C 
BRANCH  26  28
ATOM     27  C   UNL     1       2.338  12.643  18.293  0.00  0.00    +0.000 C 
ATOM     28  C   UNL     1       1.419  11.531  18.778  0.00  0.00    +0.000 C 
ENDBRANCH  26  28
ENDBRANCH   1  26
TORSDOF 6
ENDMDL
MODEL 8
REMARK VINA RESULT:      -6.8      6.226     10.785
REMARK  Name = 
REMARK  11 active torsions:
REMARK  status: ('A' for Active; 'I' for Inactive)
REMARK    1  A    between atoms: C_1  and  C_2
REMARK    2  A    between atoms: C_2  and  C_3
REMARK    3  A    between atoms: C_3  and  C_4
REMARK    4  A    between atoms: C_12  and  C_13
REMARK    5  A    between atoms: C_13  and  C_15
REMARK    6  A    between atoms: C_15  and  C_16
REMARK    7  A    between atoms: C_15  and  C_17
REMARK    8  A    between atoms: C_17  and  C_18
REMARK    9  A    between atoms: C_19  and  O_20
REMARK   10  A    between atoms: C_23  and  C_24
REMARK   11  A    between atoms: C_23  and  C_25
REMARK                            x       y       z     vdW  Elec       q    Type
REMARK                         _______ _______ _______ _____ _____    ______ ____
ROOT
ATOM      1  C   UNL     1      -2.022  10.541  17.821  0.00  0.00    +0.000 A 
ATOM      2  C   UNL     1      -0.761  10.081  17.796  0.00  0.00    +0.000 A 
ATOM      3  C   UNL     1       0.227  10.353  18.841  0.00  0.00    +0.000 A 
ATOM      4  O   UNL     1       1.383   9.965  18.741  0.00  0.00    +0.000 OA
ATOM      5  O   UNL     1      -0.242  11.021  19.955  0.00  0.00    +0.000 OA
ATOM      6  C   UNL     1      -1.550  11.556  20.022  0.00  0.00    +0.000 A 
ATOM      7  C   UNL     1      -1.869  12.292  21.177  0.00  0.00    +0.000 A 
ATOM      8  C   UNL     1      -3.125  12.907  21.270  0.00  0.00    +0.000 A 
ATOM      9  C   UNL     1      -4.072  12.746  20.248  0.00  0.00    +0.000 A 
ATOM     10  C   UNL     1      -3.700  12.040  19.077  0.00  0.00    +0.000 A 
ATOM     11  C   UNL     1      -2.450  11.395  18.955  0.00  0.00    +0.000 A 
ATOM     12  O   UNL     1      -3.444  13.704  22.344  0.00  0.00    +0.000 OA
ATOM     13  C   UNL     1      -2.345  14.296  23.072  0.00  0.00    +0.000 C 
ATOM     14  C   UNL     1      -1.931  15.587  22.348  0.00  0.00    +0.000 C 
ATOM     15  C   UNL     1      -2.902  14.642  24.457  0.00  0.00    +0.000 C 
ATOM     16  C   UNL     1      -1.160  13.370  23.200  0.00  0.00    +0.000 C 
ATOM     17  C   UNL     1      -0.929  12.412  22.288  0.00  0.00    +0.000 C 
ENDROOT
BRANCH   9  18
ATOM     18  C   UNL     1      -5.459  13.305  20.324  0.00  0.00    +0.000 C 
ATOM     19  O   UNL     1      -5.688  14.350  19.704  0.00  0.00    +0.000 OA
BRANCH  18  20
ATOM     20  C   UNL     1      -6.582  12.565  21.047  0.00  0.00    +0.000 C 
ATOM     21  C   UNL     1      -7.425  13.596  21.800  0.00  0.00    +0.000 C 
BRANCH  20  22
ATOM     22  C   UNL     1      -7.466  11.784  20.058  0.00  0.00    +0.000 C 
ATOM     23  C   UNL     1      -7.179  10.288  20.053  0.00  0.00    +0.000 C 
ENDBRANCH  20  22
ENDBRANCH  18  20
ENDBRANCH   9  18
BRANCH  10  24
ATOM     24  O   UNL     1      -4.564  11.993  18.006  0.00  0.00    +0.000 OA
ATOM     25  H   UNL     1      -5.004  11.112  17.983  0.00  0.00    +0.000 HD
ENDBRANCH  10  24
BRANCH   1  26
ATOM     26  C   UNL     1      -2.989  10.078  16.754  0.00  0.00    +0.000 C 
BRANCH  26  28
ATOM     27  C   UNL     1      -3.625  10.062  14.324  0.00  0.00    +0.000 C 
ATOM     28  C   UNL     1      -2.710  10.676  15.374  0.00  0.00    +0.000 C 
ENDBRANCH  26  28
ENDBRANCH   1  26
TORSDOF 6
ENDMDL
MODEL 9
REMARK VINA RESULT:      -6.8      1.335      1.636
REMARK  Name = 
REMARK  11 active torsions:
REMARK  status: ('A' for Active; 'I' for Inactive)
REMARK    1  A    between atoms: C_1  and  C_2
REMARK    2  A    between atoms: C_2  and  C_3
REMARK    3  A    between atoms: C_3  and  C_4
REMARK    4  A    between atoms: C_12  and  C_13
REMARK    5  A    between atoms: C_13  and  C_15
REMARK    6  A    between atoms: C_15  and  C_16
REMARK    7  A    between atoms: C_15  and  C_17
REMARK    8  A    between atoms: C_17  and  C_18
REMARK    9  A    between atoms: C_19  and  O_20
REMARK   10  A    between atoms: C_23  and  C_24
REMARK   11  A    between atoms: C_23  and  C_25
REMARK                            x       y       z     vdW  Elec       q    Type
REMARK                         _______ _______ _______ _____ _____    ______ ____
ROOT
ATOM      1  C   UNL     1       1.110   9.120  19.856  0.00  0.00    +0.000 A 
ATOM      2  C   UNL     1       1.343  10.338  19.343  0.00  0.00    +0.000 A 
ATOM      3  C   UNL     1       2.286  10.596  18.253  0.00  0.00    +0.000 A 
ATOM      4  O   UNL     1       2.512  11.734  17.863  0.00  0.00    +0.000 OA
ATOM      5  O   UNL     1       2.851   9.480  17.667  0.00  0.00    +0.000 OA
ATOM      6  C   UNL     1       2.665   8.177  18.187  0.00  0.00    +0.000 A 
ATOM      7  C   UNL     1       3.371   7.141  17.549  0.00  0.00    +0.000 A 
ATOM      8  C   UNL     1       3.285   5.840  18.061  0.00  0.00    +0.000 A 
ATOM      9  C   UNL     1       2.461   5.563  19.163  0.00  0.00    +0.000 A 
ATOM     10  C   UNL     1       1.804   6.638  19.811  0.00  0.00    +0.000 A 
ATOM     11  C   UNL     1       1.856   7.959  19.314  0.00  0.00    +0.000 A 
ATOM     12  O   UNL     1       4.024   4.816  17.519  0.00  0.00    +0.000 OA
ATOM     13  C   UNL     1       5.223   5.181  16.800  0.00  0.00    +0.000 C 
ATOM     14  C   UNL     1       6.361   5.348  17.819  0.00  0.00    +0.000 C 
ATOM     15  C   UNL     1       5.532   3.997  15.877  0.00  0.00    +0.000 C 
ATOM     16  C   UNL     1       5.060   6.446  15.993  0.00  0.00    +0.000 C 
ATOM     17  C   UNL     1       4.175   7.388  16.355  0.00  0.00    +0.000 C 
ENDROOT
BRANCH   9  18
ATOM     18  C   UNL     1       2.259   4.182  19.706  0.00  0.00    +0.000 C 
ATOM     19  O   UNL     1       1.258   3.562  19.331  0.00  0.00    +0.000 OA
BRANCH  18  20
ATOM     20  C   UNL     1       3.299   3.517  20.605  0.00  0.00    +0.000 C 
ATOM     21  C   UNL     1       2.562   2.623  21.606  0.00  0.00    +0.000 C 
BRANCH  20  22
ATOM     22  C   UNL     1       4.294   2.677  19.784  0.00  0.00    +0.000 C 
ATOM     23  C   UNL     1       3.610   1.678  18.859  0.00  0.00    +0.000 C 
ENDBRANCH  20  22
ENDBRANCH  18  20
ENDBRANCH   9  18
BRANCH  10  24
ATOM     24  O   UNL     1       1.108   6.409  20.977  0.00  0.00    +0.000 OA
ATOM     25  H   UNL     1       0.197   6.107  20.756  0.00  0.00    +0.000 HD
ENDBRANCH  10  24
BRANCH   1  26
ATOM     26  C   UNL     1       0.013   8.960  20.886  0.00  0.00    +0.000 C 
BRANCH  26  28
ATOM     27  C   UNL     1      -0.578   9.955  23.116  0.00  0.00    +0.000 C 
ATOM     28  C   UNL     1      -0.304  10.248  21.647  0.00  0.00    +0.000 C 
ENDBRANCH  26  28
ENDBRANCH   1  26
TORSDOF 6
ENDMDL
