MODEL 1
REMARK VINA RESULT:      -8.1      0.000      0.000
REMARK  Name = 
REMARK  7 active torsions:
REMARK  status: ('A' for Active; 'I' for Inactive)
REMARK    1  A    between atoms: C_1  and  O_2
REMARK    2  A    between atoms: O_2  and  C_3
REMARK    3  A    between atoms: C_6  and  C_7
REMARK    4  A    between atoms: C_7  and  C_9
REMARK    5  A    between atoms: C_9  and  N_10
REMARK    6  A    between atoms: N_13  and  C_14
REMARK    7  A    between atoms: C_16  and  C_17
REMARK                            x       y       z     vdW  Elec       q    Type
REMARK                         _______ _______ _______ _____ _____    ______ ____
ROOT
ATOM      1  N   UNL     1       1.651   2.885  18.904  0.00  0.00    +0.000 NA
ATOM      2  C   UNL     1       1.731   3.614  17.635  0.00  0.00    +0.000 C 
ATOM      3  C   UNL     1       3.079   4.252  17.157  0.00  0.00    +0.000 C 
ATOM      4  N   UNL     1       4.375   3.558  17.542  0.00  0.00    +0.000 N 
ATOM      5  C   UNL     1       4.320   3.102  18.935  0.00  0.00    +0.000 C 
ATOM      6  C   UNL     1       2.979   2.308  19.239  0.00  0.00    +0.000 C 
ENDROOT
BRANCH   4   7
ATOM      7  C   UNL     1       5.543   3.992  16.832  0.00  0.00    +0.000 A 
ATOM      8  C   UNL     1       6.451   4.702  17.640  0.00  0.00    +0.000 A 
ATOM      9  C   UNL     1       6.974   5.836  17.101  0.00  0.00    +0.000 A 
ATOM     10  C   UNL     1       6.104   7.082  17.086  0.00  0.00    +0.000 C 
ATOM     11  N   UNL     1       7.607   5.721  15.942  0.00  0.00    +0.000 NA
ATOM     12  C   UNL     1       7.005   4.922  15.071  0.00  0.00    +0.000 A 
ATOM     13  C   UNL     1       7.426   5.227  13.790  0.00  0.00    +0.000 A 
ATOM     14  C   UNL     1       6.910   4.578  12.691  0.00  0.00    +0.000 A 
ATOM     15  C   UNL     1       5.989   3.567  12.915  0.00  0.00    +0.000 A 
ATOM     16  C   UNL     1       5.483   3.293  14.224  0.00  0.00    +0.000 A 
ATOM     17  C   UNL     1       5.933   4.001  15.404  0.00  0.00    +0.000 A 
ENDBRANCH   4   7
BRANCH   1  18
ATOM     18  C   UNL     1       0.959   3.571  20.018  0.00  0.00    +0.000 C 
BRANCH  18  19
ATOM     19  C   UNL     1       1.772   4.660  20.781  0.00  0.00    +0.000 C 
ATOM     20  O   UNL     1       2.452   4.335  21.762  0.00  0.00    +0.000 OA
BRANCH  19  24
ATOM     21  C   UNL     1       1.464   8.889  19.741  0.00  0.00    +0.000 A 
ATOM     22  C   UNL     1       2.211   8.010  18.956  0.00  0.00    +0.000 A 
ATOM     23  C   UNL     1       2.312   6.653  19.316  0.00  0.00    +0.000 A 
ATOM     24  C   UNL     1       1.679   6.141  20.472  0.00  0.00    +0.000 A 
ATOM     25  C   UNL     1       0.984   7.045  21.277  0.00  0.00    +0.000 A 
ATOM     26  C   UNL     1       0.872   8.404  20.912  0.00  0.00    +0.000 A 
BRANCH  21  28
ATOM     27  C   UNL     1       1.927  10.422  17.989  0.00  0.00    +0.000 C 
ATOM     28  O   UNL     1       1.390  10.180  19.289  0.00  0.00    +0.000 OA
ENDBRANCH  21  28
ENDBRANCH  19  24
ENDBRANCH  18  19
ENDBRANCH   1  18
TORSDOF 5
ENDMDL
MODEL 2
REMARK VINA RESULT:      -8.1      3.415      5.517
REMARK  Name = 
REMARK  7 active torsions:
REMARK  status: ('A' for Active; 'I' for Inactive)
REMARK    1  A    between atoms: C_1  and  O_2
REMARK    2  A    between atoms: O_2  and  C_3
REMARK    3  A    between atoms: C_6  and  C_7
REMARK    4  A    between atoms: C_7  and  C_9
REMARK    5  A    between atoms: C_9  and  N_10
REMARK    6  A    between atoms: N_13  and  C_14
REMARK    7  A    between atoms: C_16  and  C_17
REMARK                            x       y       z     vdW  Elec       q    Type
REMARK                         _______ _______ _______ _____ _____    ______ ____
ROOT
ATOM      1  N   UNL     1       1.064   9.268  20.570  0.00  0.00    +0.000 NA
ATOM      2  C   UNL     1       1.489   7.949  21.049  0.00  0.00    +0.000 C 
ATOM      3  C   UNL     1       1.909   6.826  20.041  0.00  0.00    +0.000 C 
ATOM      4  N   UNL     1       2.575   7.243  18.741  0.00  0.00    +0.000 N 
ATOM      5  C   UNL     1       1.903   8.417  18.174  0.00  0.00    +0.000 C 
ATOM      6  C   UNL     1       1.702   9.558  19.259  0.00  0.00    +0.000 C 
ENDROOT
BRANCH   4   7
ATOM      7  C   UNL     1       3.214   6.190  18.007  0.00  0.00    +0.000 A 
ATOM      8  C   UNL     1       2.406   5.047  17.859  0.00  0.00    +0.000 A 
ATOM      9  C   UNL     1       3.012   3.850  18.081  0.00  0.00    +0.000 A 
ATOM     10  C   UNL     1       3.243   3.427  19.522  0.00  0.00    +0.000 C 
ATOM     11  N   UNL     1       4.088   3.572  17.358  0.00  0.00    +0.000 NA
ATOM     12  C   UNL     1       4.921   4.593  17.207  0.00  0.00    +0.000 A 
ATOM     13  C   UNL     1       6.182   4.123  16.891  0.00  0.00    +0.000 A 
ATOM     14  C   UNL     1       7.249   4.980  16.735  0.00  0.00    +0.000 A 
ATOM     15  C   UNL     1       7.005   6.339  16.851  0.00  0.00    +0.000 A 
ATOM     16  C   UNL     1       5.726   6.837  17.256  0.00  0.00    +0.000 A 
ATOM     17  C   UNL     1       4.593   5.974  17.512  0.00  0.00    +0.000 A 
ENDBRANCH   4   7
BRANCH   1  18
ATOM     18  C   UNL     1      -0.383   9.567  20.652  0.00  0.00    +0.000 C 
BRANCH  18  19
ATOM     19  C   UNL     1      -0.869  10.869  19.946  0.00  0.00    +0.000 C 
ATOM     20  O   UNL     1      -0.619  11.968  20.457  0.00  0.00    +0.000 OA
BRANCH  19  24
ATOM     21  C   UNL     1      -3.419  10.713  16.406  0.00  0.00    +0.000 A 
ATOM     22  C   UNL     1      -2.214  10.011  16.453  0.00  0.00    +0.000 A 
ATOM     23  C   UNL     1      -1.397  10.085  17.597  0.00  0.00    +0.000 A 
ATOM     24  C   UNL     1      -1.757  10.870  18.717  0.00  0.00    +0.000 A 
ATOM     25  C   UNL     1      -2.935  11.611  18.631  0.00  0.00    +0.000 A 
ATOM     26  C   UNL     1      -3.761  11.529  17.489  0.00  0.00    +0.000 A 
BRANCH  21  28
ATOM     27  C   UNL     1      -3.463  10.062  14.123  0.00  0.00    +0.000 C 
ATOM     28  O   UNL     1      -4.164  10.546  15.270  0.00  0.00    +0.000 OA
ENDBRANCH  21  28
ENDBRANCH  19  24
ENDBRANCH  18  19
ENDBRANCH   1  18
TORSDOF 5
ENDMDL
MODEL 3
REMARK VINA RESULT:      -8.0      3.720      8.369
REMARK  Name = 
REMARK  7 active torsions:
REMARK  status: ('A' for Active; 'I' for Inactive)
REMARK    1  A    between atoms: C_1  and  O_2
REMARK    2  A    between atoms: O_2  and  C_3
REMARK    3  A    between atoms: C_6  and  C_7
REMARK    4  A    between atoms: C_7  and  C_9
REMARK    5  A    between atoms: C_9  and  N_10
REMARK    6  A    between atoms: N_13  and  C_14
REMARK    7  A    between atoms: C_16  and  C_17
REMARK                            x       y       z     vdW  Elec       q    Type
REMARK                         _______ _______ _______ _____ _____    ______ ____
ROOT
ATOM      1  N   UNL     1       3.069   6.030  19.083  0.00  0.00    +0.000 NA
ATOM      2  C   UNL     1       2.200   6.399  20.205  0.00  0.00    +0.000 C 
ATOM      3  C   UNL     1       1.669   7.865  20.361  0.00  0.00    +0.000 C 
ATOM      4  N   UNL     1       1.407   8.669  19.099  0.00  0.00    +0.000 N 
ATOM      5  C   UNL     1       2.482   8.460  18.124  0.00  0.00    +0.000 C 
ATOM      6  C   UNL     1       2.798   6.917  17.922  0.00  0.00    +0.000 C 
ENDROOT
BRANCH   4   7
ATOM      7  C   UNL     1       0.639   9.867  19.278  0.00  0.00    +0.000 A 
ATOM      8  C   UNL     1       1.123  10.687  20.314  0.00  0.00    +0.000 A 
ATOM      9  C   UNL     1       0.188  11.203  21.158  0.00  0.00    +0.000 A 
ATOM     10  C   UNL     1      -0.384  10.288  22.229  0.00  0.00    +0.000 C 
ATOM     11  N   UNL     1      -0.787  11.920  20.618  0.00  0.00    +0.000 NA
ATOM     12  C   UNL     1      -1.277  11.412  19.494  0.00  0.00    +0.000 A 
ATOM     13  C   UNL     1      -2.547  11.911  19.272  0.00  0.00    +0.000 A 
ATOM     14  C   UNL     1      -3.302  11.499  18.198  0.00  0.00    +0.000 A 
ATOM     15  C   UNL     1      -2.725  10.604  17.310  0.00  0.00    +0.000 A 
ATOM     16  C   UNL     1      -1.445  10.018  17.567  0.00  0.00    +0.000 A 
ATOM     17  C   UNL     1      -0.645  10.356  18.724  0.00  0.00    +0.000 A 
ENDBRANCH   4   7
BRANCH   1  18
ATOM     18  C   UNL     1       4.499   5.814  19.397  0.00  0.00    +0.000 C 
BRANCH  18  19
ATOM     19  C   UNL     1       5.183   4.583  18.730  0.00  0.00    +0.000 C 
ATOM     20  O   UNL     1       5.511   3.616  19.428  0.00  0.00    +0.000 OA
BRANCH  19  24
ATOM     21  C   UNL     1       6.508   4.403  14.574  0.00  0.00    +0.000 A 
ATOM     22  C   UNL     1       7.361   4.861  15.579  0.00  0.00    +0.000 A 
ATOM     23  C   UNL     1       6.911   4.927  16.911  0.00  0.00    +0.000 A 
ATOM     24  C   UNL     1       5.597   4.547  17.272  0.00  0.00    +0.000 A 
ATOM     25  C   UNL     1       4.740   4.146  16.246  0.00  0.00    +0.000 A 
ATOM     26  C   UNL     1       5.193   4.069  14.912  0.00  0.00    +0.000 A 
BRANCH  21  28
ATOM     27  C   UNL     1       6.328   3.550  12.366  0.00  0.00    +0.000 C 
ATOM     28  O   UNL     1       7.047   4.335  13.317  0.00  0.00    +0.000 OA
ENDBRANCH  21  28
ENDBRANCH  19  24
ENDBRANCH  18  19
ENDBRANCH   1  18
TORSDOF 5
ENDMDL
MODEL 4
REMARK VINA RESULT:      -8.0      0.469      1.059
REMARK  Name = 
REMARK  7 active torsions:
REMARK  status: ('A' for Active; 'I' for Inactive)
REMARK    1  A    between atoms: C_1  and  O_2
REMARK    2  A    between atoms: O_2  and  C_3
REMARK    3  A    between atoms: C_6  and  C_7
REMARK    4  A    between atoms: C_7  and  C_9
REMARK    5  A    between atoms: C_9  and  N_10
REMARK    6  A    between atoms: N_13  and  C_14
REMARK    7  A    between atoms: C_16  and  C_17
REMARK                            x       y       z     vdW  Elec       q    Type
REMARK                         _______ _______ _______ _____ _____    ______ ____
ROOT
ATOM      1  N   UNL     1       1.791   2.746  18.961  0.00  0.00    +0.000 NA
ATOM      2  C   UNL     1       1.833   3.402  17.650  0.00  0.00    +0.000 C 
ATOM      3  C   UNL     1       3.141   4.098  17.141  0.00  0.00    +0.000 C 
ATOM      4  N   UNL     1       4.476   3.514  17.572  0.00  0.00    +0.000 N 
ATOM      5  C   UNL     1       4.439   3.140  18.990  0.00  0.00    +0.000 C 
ATOM      6  C   UNL     1       3.151   2.279  19.335  0.00  0.00    +0.000 C 
ENDROOT
BRANCH   4   7
ATOM      7  C   UNL     1       5.619   3.981  16.843  0.00  0.00    +0.000 A 
ATOM      8  C   UNL     1       6.514   4.728  17.633  0.00  0.00    +0.000 A 
ATOM      9  C   UNL     1       6.991   5.875  17.077  0.00  0.00    +0.000 A 
ATOM     10  C   UNL     1       6.079   7.091  17.064  0.00  0.00    +0.000 C 
ATOM     11  N   UNL     1       7.611   5.771  15.910  0.00  0.00    +0.000 NA
ATOM     12  C   UNL     1       7.024   4.945  15.054  0.00  0.00    +0.000 A 
ATOM     13  C   UNL     1       7.417   5.254  13.765  0.00  0.00    +0.000 A 
ATOM     14  C   UNL     1       6.908   4.579  12.678  0.00  0.00    +0.000 A 
ATOM     15  C   UNL     1       6.025   3.539  12.923  0.00  0.00    +0.000 A 
ATOM     16  C   UNL     1       5.547   3.260  14.242  0.00  0.00    +0.000 A 
ATOM     17  C   UNL     1       5.988   3.992  15.409  0.00  0.00    +0.000 A 
ENDBRANCH   4   7
BRANCH   1  18
ATOM     18  C   UNL     1       1.046   3.450  20.028  0.00  0.00    +0.000 C 
BRANCH  18  19
ATOM     19  C   UNL     1       1.799   4.600  20.764  0.00  0.00    +0.000 C 
ATOM     20  O   UNL     1       2.433   4.349  21.796  0.00  0.00    +0.000 OA
BRANCH  19  24
ATOM     21  C   UNL     1       1.543   8.838  19.747  0.00  0.00    +0.000 A 
ATOM     22  C   UNL     1       0.902   8.333  20.879  0.00  0.00    +0.000 A 
ATOM     23  C   UNL     1       0.983   6.961  21.183  0.00  0.00    +0.000 A 
ATOM     24  C   UNL     1       1.695   6.058  20.360  0.00  0.00    +0.000 A 
ATOM     25  C   UNL     1       2.281   6.570  19.201  0.00  0.00    +0.000 A 
ATOM     26  C   UNL     1       2.211   7.947  18.902  0.00  0.00    +0.000 A 
BRANCH  21  28
ATOM     27  C   UNL     1       0.473  10.868  20.357  0.00  0.00    +0.000 C 
ATOM     28  O   UNL     1       1.443  10.191  19.557  0.00  0.00    +0.000 OA
ENDBRANCH  21  28
ENDBRANCH  19  24
ENDBRANCH  18  19
ENDBRANCH   1  18
TORSDOF 5
ENDMDL
MODEL 5
REMARK VINA RESULT:      -7.8      3.681      8.321
REMARK  Name = 
REMARK  7 active torsions:
REMARK  status: ('A' for Active; 'I' for Inactive)
REMARK    1  A    between atoms: C_1  and  O_2
REMARK    2  A    between atoms: O_2  and  C_3
REMARK    3  A    between atoms: C_6  and  C_7
REMARK    4  A    between atoms: C_7  and  C_9
REMARK    5  A    between atoms: C_9  and  N_10
REMARK    6  A    between atoms: N_13  and  C_14
REMARK    7  A    between atoms: C_16  and  C_17
REMARK                            x       y       z     vdW  Elec       q    Type
REMARK                         _______ _______ _______ _____ _____    ______ ____
ROOT
ATOM      1  N   UNL     1       2.940   5.895  19.163  0.00  0.00    +0.000 NA
ATOM      2  C   UNL     1       2.102   6.299  20.296  0.00  0.00    +0.000 C 
ATOM      3  C   UNL     1       1.611   7.779  20.446  0.00  0.00    +0.000 C 
ATOM      4  N   UNL     1       1.345   8.576  19.180  0.00  0.00    +0.000 N 
ATOM      5  C   UNL     1       2.397   8.330  18.188  0.00  0.00    +0.000 C 
ATOM      6  C   UNL     1       2.670   6.777  17.997  0.00  0.00    +0.000 C 
ENDROOT
BRANCH   4   7
ATOM      7  C   UNL     1       0.611   9.795  19.360  0.00  0.00    +0.000 A 
ATOM      8  C   UNL     1       1.096  10.584  20.420  0.00  0.00    +0.000 A 
ATOM      9  C   UNL     1       0.158  11.116  21.249  0.00  0.00    +0.000 A 
ATOM     10  C   UNL     1      -0.468  10.204  22.292  0.00  0.00    +0.000 C 
ATOM     11  N   UNL     1      -0.781  11.872  20.698  0.00  0.00    +0.000 NA
ATOM     12  C   UNL     1      -1.259  11.397  19.555  0.00  0.00    +0.000 A 
ATOM     13  C   UNL     1      -2.508  11.939  19.312  0.00  0.00    +0.000 A 
ATOM     14  C   UNL     1      -3.250  11.567  18.213  0.00  0.00    +0.000 A 
ATOM     15  C   UNL     1      -2.679  10.669  17.326  0.00  0.00    +0.000 A 
ATOM     16  C   UNL     1      -1.425  10.038  17.603  0.00  0.00    +0.000 A 
ATOM     17  C   UNL     1      -0.642  10.333  18.784  0.00  0.00    +0.000 A 
ENDBRANCH   4   7
BRANCH   1  18
ATOM     18  C   UNL     1       4.369   5.647  19.453  0.00  0.00    +0.000 C 
BRANCH  18  19
ATOM     19  C   UNL     1       5.018   4.409  18.762  0.00  0.00    +0.000 C 
ATOM     20  O   UNL     1       5.182   3.368  19.409  0.00  0.00    +0.000 OA
BRANCH  19  24
ATOM     21  C   UNL     1       6.533   4.581  14.671  0.00  0.00    +0.000 A 
ATOM     22  C   UNL     1       5.240   4.131  14.938  0.00  0.00    +0.000 A 
ATOM     23  C   UNL     1       4.773   4.067  16.264  0.00  0.00    +0.000 A 
ATOM     24  C   UNL     1       5.589   4.441  17.358  0.00  0.00    +0.000 A 
ATOM     25  C   UNL     1       6.898   4.833  17.078  0.00  0.00    +0.000 A 
ATOM     26  C   UNL     1       7.363   4.908  15.747  0.00  0.00    +0.000 A 
BRANCH  21  28
ATOM     27  C   UNL     1       8.115   5.306  13.056  0.00  0.00    +0.000 C 
ATOM     28  O   UNL     1       6.882   4.646  13.348  0.00  0.00    +0.000 OA
ENDBRANCH  21  28
ENDBRANCH  19  24
ENDBRANCH  18  19
ENDBRANCH   1  18
TORSDOF 5
ENDMDL
MODEL 6
REMARK VINA RESULT:      -7.7      3.841      6.144
REMARK  Name = 
REMARK  7 active torsions:
REMARK  status: ('A' for Active; 'I' for Inactive)
REMARK    1  A    between atoms: C_1  and  O_2
REMARK    2  A    between atoms: O_2  and  C_3
REMARK    3  A    between atoms: C_6  and  C_7
REMARK    4  A    between atoms: C_7  and  C_9
REMARK    5  A    between atoms: C_9  and  N_10
REMARK    6  A    between atoms: N_13  and  C_14
REMARK    7  A    between atoms: C_16  and  C_17
REMARK                            x       y       z     vdW  Elec       q    Type
REMARK                         _______ _______ _______ _____ _____    ______ ____
ROOT
ATOM      1  N   UNL     1       0.682   9.874  19.936  0.00  0.00    +0.000 NA
ATOM      2  C   UNL     1       1.177   8.901  20.915  0.00  0.00    +0.000 C 
ATOM      3  C   UNL     1       1.709   7.500  20.458  0.00  0.00    +0.000 C 
ATOM      4  N   UNL     1       2.391   7.401  19.104  0.00  0.00    +0.000 N 
ATOM      5  C   UNL     1       1.662   8.187  18.102  0.00  0.00    +0.000 C 
ATOM      6  C   UNL     1       1.346   9.652  18.625  0.00  0.00    +0.000 C 
ENDROOT
BRANCH   4   7
ATOM      7  C   UNL     1       3.127   6.193  18.869  0.00  0.00    +0.000 A 
ATOM      8  C   UNL     1       4.504   6.410  18.676  0.00  0.00    +0.000 A 
ATOM      9  C   UNL     1       5.081   5.731  17.648  0.00  0.00    +0.000 A 
ATOM     10  C   UNL     1       4.861   6.256  16.239  0.00  0.00    +0.000 C 
ATOM     11  N   UNL     1       4.968   4.410  17.653  0.00  0.00    +0.000 NA
ATOM     12  C   UNL     1       3.766   3.969  18.002  0.00  0.00    +0.000 A 
ATOM     13  C   UNL     1       3.586   2.683  17.527  0.00  0.00    +0.000 A 
ATOM     14  C   UNL     1       2.397   2.012  17.706  0.00  0.00    +0.000 A 
ATOM     15  C   UNL     1       1.400   2.650  18.427  0.00  0.00    +0.000 A 
ATOM     16  C   UNL     1       1.540   4.008  18.855  0.00  0.00    +0.000 A 
ATOM     17  C   UNL     1       2.738   4.785  18.622  0.00  0.00    +0.000 A 
ENDBRANCH   4   7
BRANCH   1  18
ATOM     18  C   UNL     1      -0.783  10.069  19.881  0.00  0.00    +0.000 C 
BRANCH  18  19
ATOM     19  C   UNL     1      -1.301  11.226  18.974  0.00  0.00    +0.000 C 
ATOM     20  O   UNL     1      -1.100  12.400  19.311  0.00  0.00    +0.000 OA
BRANCH  19  24
ATOM     21  C   UNL     1      -3.767  10.428  15.461  0.00  0.00    +0.000 A 
ATOM     22  C   UNL     1      -2.505   9.848  15.598  0.00  0.00    +0.000 A 
ATOM     23  C   UNL     1      -1.717  10.130  16.730  0.00  0.00    +0.000 A 
ATOM     24  C   UNL     1      -2.165  11.004  17.748  0.00  0.00    +0.000 A 
ATOM     25  C   UNL     1      -3.403  11.620  17.568  0.00  0.00    +0.000 A 
ATOM     26  C   UNL     1      -4.199  11.330  16.438  0.00  0.00    +0.000 A 
BRANCH  21  28
ATOM     27  C   UNL     1      -3.704   9.744  13.189  0.00  0.00    +0.000 C 
ATOM     28  O   UNL     1      -4.475  10.063  14.347  0.00  0.00    +0.000 OA
ENDBRANCH  21  28
ENDBRANCH  19  24
ENDBRANCH  18  19
ENDBRANCH   1  18
TORSDOF 5
ENDMDL
MODEL 7
REMARK VINA RESULT:      -7.7      3.819      8.401
REMARK  Name = 
REMARK  7 active torsions:
REMARK  status: ('A' for Active; 'I' for Inactive)
REMARK    1  A    between atoms: C_1  and  O_2
REMARK    2  A    between atoms: O_2  and  C_3
REMARK    3  A    between atoms: C_6  and  C_7
REMARK    4  A    between atoms: C_7  and  C_9
REMARK    5  A    between atoms: C_9  and  N_10
REMARK    6  A    between atoms: N_13  and  C_14
REMARK    7  A    between atoms: C_16  and  C_17
REMARK                            x       y       z     vdW  Elec       q    Type
REMARK                         _______ _______ _______ _____ _____    ______ ____
ROOT
ATOM      1  N   UNL     1       2.764   6.418  19.575  0.00  0.00    +0.000 NA
ATOM      2  C   UNL     1       2.677   7.432  18.520  0.00  0.00    +0.000 C 
ATOM      3  C   UNL     1       1.571   8.541  18.559  0.00  0.00    +0.000 C 
ATOM      4  N   UNL     1       1.101   9.035  19.917  0.00  0.00    +0.000 N 
ATOM      5  C   UNL     1       0.939   7.910  20.845  0.00  0.00    +0.000 C 
ATOM      6  C   UNL     1       2.212   6.961  20.843  0.00  0.00    +0.000 C 
ENDROOT
BRANCH   4   7
ATOM      7  C   UNL     1       0.333  10.245  19.903  0.00  0.00    +0.000 A 
ATOM      8  C   UNL     1       0.785  11.200  20.834  0.00  0.00    +0.000 A 
ATOM      9  C   UNL     1      -0.177  11.826  21.565  0.00  0.00    +0.000 A 
ATOM     10  C   UNL     1      -0.791  11.066  22.730  0.00  0.00    +0.000 C 
ATOM     11  N   UNL     1      -1.129  12.462  20.898  0.00  0.00    +0.000 NA
ATOM     12  C   UNL     1      -1.581  11.806  19.838  0.00  0.00    +0.000 A 
ATOM     13  C   UNL     1      -2.840  12.269  19.505  0.00  0.00    +0.000 A 
ATOM     14  C   UNL     1      -3.559  11.715  18.470  0.00  0.00    +0.000 A 
ATOM     15  C   UNL     1      -2.955  10.707  17.735  0.00  0.00    +0.000 A 
ATOM     16  C   UNL     1      -1.688  10.162  18.114  0.00  0.00    +0.000 A 
ATOM     17  C   UNL     1      -0.927  10.654  19.242  0.00  0.00    +0.000 A 
ENDBRANCH   4   7
BRANCH   1  18
ATOM     18  C   UNL     1       2.314   5.054  19.220  0.00  0.00    +0.000 C 
BRANCH  18  19
ATOM     19  C   UNL     1       3.426   3.984  19.003  0.00  0.00    +0.000 C 
ATOM     20  O   UNL     1       3.428   2.959  19.696  0.00  0.00    +0.000 OA
BRANCH  19  24
ATOM     21  C   UNL     1       6.727   4.648  16.223  0.00  0.00    +0.000 A 
ATOM     22  C   UNL     1       5.473   4.243  15.764  0.00  0.00    +0.000 A 
ATOM     23  C   UNL     1       4.425   4.018  16.676  0.00  0.00    +0.000 A 
ATOM     24  C   UNL     1       4.604   4.183  18.069  0.00  0.00    +0.000 A 
ATOM     25  C   UNL     1       5.879   4.532  18.516  0.00  0.00    +0.000 A 
ATOM     26  C   UNL     1       6.928   4.768  17.602  0.00  0.00    +0.000 A 
BRANCH  21  28
ATOM     27  C   UNL     1       7.206   4.867  13.908  0.00  0.00    +0.000 C 
ATOM     28  O   UNL     1       7.671   4.881  15.259  0.00  0.00    +0.000 OA
ENDBRANCH  21  28
ENDBRANCH  19  24
ENDBRANCH  18  19
ENDBRANCH   1  18
TORSDOF 5
ENDMDL
MODEL 8
REMARK VINA RESULT:      -7.7      3.557      8.603
REMARK  Name = 
REMARK  7 active torsions:
REMARK  status: ('A' for Active; 'I' for Inactive)
REMARK    1  A    between atoms: C_1  and  O_2
REMARK    2  A    between atoms: O_2  and  C_3
REMARK    3  A    between atoms: C_6  and  C_7
REMARK    4  A    between atoms: C_7  and  C_9
REMARK    5  A    between atoms: C_9  and  N_10
REMARK    6  A    between atoms: N_13  and  C_14
REMARK    7  A    between atoms: C_16  and  C_17
REMARK                            x       y       z     vdW  Elec       q    Type
REMARK                         _______ _______ _______ _____ _____    ______ ____
ROOT
ATOM      1  N   UNL     1       3.208   6.037  18.907  0.00  0.00    +0.000 NA
ATOM      2  C   UNL     1       2.275   6.211  20.025  0.00  0.00    +0.000 C 
ATOM      3  C   UNL     1       1.668   7.617  20.355  0.00  0.00    +0.000 C 
ATOM      4  N   UNL     1       1.422   8.577  19.204  0.00  0.00    +0.000 N 
ATOM      5  C   UNL     1       2.547   8.551  18.263  0.00  0.00    +0.000 C 
ATOM      6  C   UNL     1       2.945   7.066  17.867  0.00  0.00    +0.000 C 
ENDROOT
BRANCH   4   7
ATOM      7  C   UNL     1       0.590   9.706  19.507  0.00  0.00    +0.000 A 
ATOM      8  C   UNL     1       0.476  10.614  18.437  0.00  0.00    +0.000 A 
ATOM      9  C   UNL     1       0.593  11.932  18.755  0.00  0.00    +0.000 A 
ATOM     10  C   UNL     1       1.989  12.483  18.997  0.00  0.00    +0.000 C 
ATOM     11  N   UNL     1      -0.239  12.413  19.667  0.00  0.00    +0.000 NA
ATOM     12  C   UNL     1      -0.431  11.610  20.705  0.00  0.00    +0.000 A 
ATOM     13  C   UNL     1      -0.884  12.344  21.785  0.00  0.00    +0.000 A 
ATOM     14  C   UNL     1      -1.110  11.756  23.009  0.00  0.00    +0.000 A 
ATOM     15  C   UNL     1      -0.918  10.387  23.110  0.00  0.00    +0.000 A 
ATOM     16  C   UNL     1      -0.374   9.627  22.028  0.00  0.00    +0.000 A 
ATOM     17  C   UNL     1      -0.043  10.211  20.746  0.00  0.00    +0.000 A 
ENDBRANCH   4   7
BRANCH   1  18
ATOM     18  C   UNL     1       4.631   5.839  19.259  0.00  0.00    +0.000 C 
BRANCH  18  19
ATOM     19  C   UNL     1       5.358   4.639  18.581  0.00  0.00    +0.000 C 
ATOM     20  O   UNL     1       5.771   3.705  19.279  0.00  0.00    +0.000 OA
BRANCH  19  24
ATOM     21  C   UNL     1       6.512   4.454  14.375  0.00  0.00    +0.000 A 
ATOM     22  C   UNL     1       7.409   4.901  15.345  0.00  0.00    +0.000 A 
ATOM     23  C   UNL     1       7.015   4.969  16.694  0.00  0.00    +0.000 A 
ATOM     24  C   UNL     1       5.713   4.602  17.107  0.00  0.00    +0.000 A 
ATOM     25  C   UNL     1       4.811   4.212  16.117  0.00  0.00    +0.000 A 
ATOM     26  C   UNL     1       5.209   4.133  14.765  0.00  0.00    +0.000 A 
BRANCH  21  28
ATOM     27  C   UNL     1       6.361   3.443  12.231  0.00  0.00    +0.000 C 
ATOM     28  O   UNL     1       6.999   4.383  13.097  0.00  0.00    +0.000 OA
ENDBRANCH  21  28
ENDBRANCH  19  24
ENDBRANCH  18  19
ENDBRANCH   1  18
TORSDOF 5
ENDMDL
MODEL 9
REMARK VINA RESULT:      -7.7      3.720      6.356
REMARK  Name = 
REMARK  7 active torsions:
REMARK  status: ('A' for Active; 'I' for Inactive)
REMARK    1  A    between atoms: C_1  and  O_2
REMARK    2  A    between atoms: O_2  and  C_3
REMARK    3  A    between atoms: C_6  and  C_7
REMARK    4  A    between atoms: C_7  and  C_9
REMARK    5  A    between atoms: C_9  and  N_10
REMARK    6  A    between atoms: N_13  and  C_14
REMARK    7  A    between atoms: C_16  and  C_17
REMARK                            x       y       z     vdW  Elec       q    Type
REMARK                         _______ _______ _______ _____ _____    ______ ____
ROOT
ATOM      1  N   UNL     1       0.622  10.127  19.022  0.00  0.00    +0.000 NA
ATOM      2  C   UNL     1       1.173   9.426  17.858  0.00  0.00    +0.000 C 
ATOM      3  C   UNL     1       2.183   8.241  18.038  0.00  0.00    +0.000 C 
ATOM      4  N   UNL     1       2.040   7.360  19.267  0.00  0.00    +0.000 N 
ATOM      5  C   UNL     1       1.765   8.175  20.455  0.00  0.00    +0.000 C 
ATOM      6  C   UNL     1       0.593   9.213  20.194  0.00  0.00    +0.000 C 
ENDROOT
BRANCH   4   7
ATOM      7  C   UNL     1       2.769   6.125  19.230  0.00  0.00    +0.000 A 
ATOM      8  C   UNL     1       4.156   6.304  19.072  0.00  0.00    +0.000 A 
ATOM      9  C   UNL     1       4.768   5.488  18.172  0.00  0.00    +0.000 A 
ATOM     10  C   UNL     1       4.617   5.819  16.696  0.00  0.00    +0.000 C 
ATOM     11  N   UNL     1       4.637   4.181  18.350  0.00  0.00    +0.000 NA
ATOM     12  C   UNL     1       3.416   3.800  18.701  0.00  0.00    +0.000 A 
ATOM     13  C   UNL     1       3.239   2.463  18.396  0.00  0.00    +0.000 A 
ATOM     14  C   UNL     1       2.035   1.831  18.610  0.00  0.00    +0.000 A 
ATOM     15  C   UNL     1       1.016   2.568  19.193  0.00  0.00    +0.000 A 
ATOM     16  C   UNL     1       1.155   3.970  19.440  0.00  0.00    +0.000 A 
ATOM     17  C   UNL     1       2.372   4.701  19.159  0.00  0.00    +0.000 A 
ENDBRANCH   4   7
BRANCH   1  18
ATOM     18  C   UNL     1       1.149  11.484  19.287  0.00  0.00    +0.000 C 
BRANCH  18  19
ATOM     19  C   UNL     1       0.789  12.116  20.666  0.00  0.00    +0.000 C 
ATOM     20  O   UNL     1       1.696  12.497  21.415  0.00  0.00    +0.000 OA
BRANCH  19  24
ATOM     21  C   UNL     1      -3.226  12.382  22.360  0.00  0.00    +0.000 A 
ATOM     22  C   UNL     1      -2.139  12.005  23.149  0.00  0.00    +0.000 A 
ATOM     23  C   UNL     1      -0.854  11.910  22.582  0.00  0.00    +0.000 A 
ATOM     24  C   UNL     1      -0.624  12.177  21.212  0.00  0.00    +0.000 A 
ATOM     25  C   UNL     1      -1.731  12.496  20.425  0.00  0.00    +0.000 A 
ATOM     26  C   UNL     1      -3.018  12.603  20.995  0.00  0.00    +0.000 A 
BRANCH  21  28
ATOM     27  C   UNL     1      -4.371  12.513  24.436  0.00  0.00    +0.000 C 
ATOM     28  O   UNL     1      -4.427  12.487  23.009  0.00  0.00    +0.000 OA
ENDBRANCH  21  28
ENDBRANCH  19  24
ENDBRANCH  18  19
ENDBRANCH   1  18
TORSDOF 5
ENDMDL
