MODEL 1
REMARK VINA RESULT:      -7.6      0.000      0.000
REMARK  Name = 
REMARK  4 active torsions:
REMARK  status: ('A' for Active; 'I' for Inactive)
REMARK    1  A    between atoms: C_2  and  C_3
REMARK    2  A    between atoms: C_3  and  C_4
REMARK    3  A    between atoms: C_4  and  C_5
REMARK    4  A    between atoms: C_17  and  C_18
REMARK                            x       y       z     vdW  Elec       q    Type
REMARK                         _______ _______ _______ _____ _____    ______ ____
ROOT
ATOM      1  O   UNL     1       2.305   9.058  17.444  0.00  0.00    +0.000 OA
ATOM      2  C   UNL     1       2.944   8.034  17.705  0.00  0.00    +0.000 C 
ATOM      3  N   UNL     1       4.147   7.838  17.086  0.00  0.00    +0.000 N 
ATOM      4  C   UNL     1       4.990   6.739  17.130  0.00  0.00    +0.000 A 
ATOM      5  N   UNL     1       6.211   6.925  16.620  0.00  0.00    +0.000 NA
ATOM      6  C   UNL     1       7.065   5.885  16.716  0.00  0.00    +0.000 A 
ATOM      7  C   UNL     1       6.731   4.669  17.259  0.00  0.00    +0.000 A 
ATOM      8  C   UNL     1       5.438   4.560  17.704  0.00  0.00    +0.000 A 
ATOM      9  N   UNL     1       4.569   5.585  17.643  0.00  0.00    +0.000 NA
ATOM     10  H   UNL     1       4.486   8.602  16.518  0.00  0.00    +0.000 HD
ENDROOT
BRANCH   8  11
ATOM     11  C   UNL     1       4.880   3.348  18.295  0.00  0.00    +0.000 A 
ATOM     12  C   UNL     1       4.028   2.363  17.826  0.00  0.00    +0.000 A 
ATOM     13  C   UNL     1       3.830   1.452  18.889  0.00  0.00    +0.000 A 
ATOM     14  C   UNL     1       4.578   1.929  19.939  0.00  0.00    +0.000 A 
ATOM     15  O   UNL     1       5.222   3.072  19.590  0.00  0.00    +0.000 OA
ENDBRANCH   8  11
BRANCH   2  16
ATOM     16  C   UNL     1       2.481   7.074  18.787  0.00  0.00    +0.000 C 
BRANCH  16  17
ATOM     17  C   UNL     1       1.759   5.846  18.246  0.00  0.00    +0.000 C 
BRANCH  17  18
ATOM     18  C   UNL     1       1.666   4.787  19.325  0.00  0.00    +0.000 A 
ATOM     19  C   UNL     1       0.874   3.646  19.125  0.00  0.00    +0.000 A 
ATOM     20  C   UNL     1       0.750   2.689  20.133  0.00  0.00    +0.000 A 
ATOM     21  C   UNL     1       1.404   2.878  21.344  0.00  0.00    +0.000 A 
ATOM     22  F   UNL     1       1.282   1.958  22.310  0.00  0.00    +0.000 F 
ATOM     23  C   UNL     1       2.179   4.009  21.569  0.00  0.00    +0.000 A 
ATOM     24  C   UNL     1       2.312   4.963  20.560  0.00  0.00    +0.000 A 
ENDBRANCH  17  18
ENDBRANCH  16  17
ENDBRANCH   2  16
TORSDOF 4
ENDMDL
MODEL 2
REMARK VINA RESULT:      -7.6      0.074      1.011
REMARK  Name = 
REMARK  4 active torsions:
REMARK  status: ('A' for Active; 'I' for Inactive)
REMARK    1  A    between atoms: C_2  and  C_3
REMARK    2  A    between atoms: C_3  and  C_4
REMARK    3  A    between atoms: C_4  and  C_5
REMARK    4  A    between atoms: C_17  and  C_18
REMARK                            x       y       z     vdW  Elec       q    Type
REMARK                         _______ _______ _______ _____ _____    ______ ____
ROOT
ATOM      1  O   UNL     1       2.386   9.083  17.431  0.00  0.00    +0.000 OA
ATOM      2  C   UNL     1       3.009   8.048  17.686  0.00  0.00    +0.000 C 
ATOM      3  N   UNL     1       4.207   7.836  17.063  0.00  0.00    +0.000 N 
ATOM      4  C   UNL     1       5.033   6.724  17.101  0.00  0.00    +0.000 A 
ATOM      5  N   UNL     1       6.256   6.892  16.589  0.00  0.00    +0.000 NA
ATOM      6  C   UNL     1       7.094   5.839  16.679  0.00  0.00    +0.000 A 
ATOM      7  C   UNL     1       6.742   4.626  17.218  0.00  0.00    +0.000 A 
ATOM      8  C   UNL     1       5.449   4.536  17.666  0.00  0.00    +0.000 A 
ATOM      9  N   UNL     1       4.596   5.575  17.611  0.00  0.00    +0.000 NA
ATOM     10  H   UNL     1       4.556   8.597  16.498  0.00  0.00    +0.000 HD
ENDROOT
BRANCH   8  11
ATOM     11  C   UNL     1       4.874   3.331  18.254  0.00  0.00    +0.000 A 
ATOM     12  C   UNL     1       4.040   2.338  17.770  0.00  0.00    +0.000 A 
ATOM     13  C   UNL     1       3.809   1.440  18.837  0.00  0.00    +0.000 A 
ATOM     14  C   UNL     1       4.520   1.932  19.905  0.00  0.00    +0.000 A 
ATOM     15  O   UNL     1       5.173   3.072  19.563  0.00  0.00    +0.000 OA
ENDBRANCH   8  11
BRANCH   2  16
ATOM     16  C   UNL     1       2.534   7.091  18.766  0.00  0.00    +0.000 C 
BRANCH  16  17
ATOM     17  C   UNL     1       1.748   5.903  18.226  0.00  0.00    +0.000 C 
BRANCH  17  18
ATOM     18  C   UNL     1       1.601   4.850  19.305  0.00  0.00    +0.000 A 
ATOM     19  C   UNL     1       2.220   5.028  20.551  0.00  0.00    +0.000 A 
ATOM     20  C   UNL     1       2.124   4.041  21.533  0.00  0.00    +0.000 A 
ATOM     21  C   UNL     1       1.423   2.872  21.266  0.00  0.00    +0.000 A 
ATOM     22  F   UNL     1       1.334   1.926  22.210  0.00  0.00    +0.000 F 
ATOM     23  C   UNL     1       0.816   2.668  20.033  0.00  0.00    +0.000 A 
ATOM     24  C   UNL     1       0.904   3.657  19.052  0.00  0.00    +0.000 A 
ENDBRANCH  17  18
ENDBRANCH  16  17
ENDBRANCH   2  16
TORSDOF 4
ENDMDL
MODEL 3
REMARK VINA RESULT:      -7.5      3.044      5.138
REMARK  Name = 
REMARK  4 active torsions:
REMARK  status: ('A' for Active; 'I' for Inactive)
REMARK    1  A    between atoms: C_2  and  C_3
REMARK    2  A    between atoms: C_3  and  C_4
REMARK    3  A    between atoms: C_4  and  C_5
REMARK    4  A    between atoms: C_17  and  C_18
REMARK                            x       y       z     vdW  Elec       q    Type
REMARK                         _______ _______ _______ _____ _____    ______ ____
ROOT
ATOM      1  O   UNL     1       2.516   3.181  19.570  0.00  0.00    +0.000 OA
ATOM      2  C   UNL     1       3.350   3.899  19.011  0.00  0.00    +0.000 C 
ATOM      3  N   UNL     1       3.962   3.434  17.881  0.00  0.00    +0.000 N 
ATOM      4  C   UNL     1       4.991   3.996  17.143  0.00  0.00    +0.000 A 
ATOM      5  N   UNL     1       5.222   3.439  15.950  0.00  0.00    +0.000 NA
ATOM      6  C   UNL     1       6.176   4.017  15.193  0.00  0.00    +0.000 A 
ATOM      7  C   UNL     1       6.926   5.094  15.597  0.00  0.00    +0.000 A 
ATOM      8  C   UNL     1       6.651   5.559  16.858  0.00  0.00    +0.000 A 
ATOM      9  N   UNL     1       5.691   5.019  17.630  0.00  0.00    +0.000 NA
ATOM     10  H   UNL     1       3.617   2.558  17.516  0.00  0.00    +0.000 HD
ENDROOT
BRANCH   8  11
ATOM     11  C   UNL     1       7.348   6.680  17.481  0.00  0.00    +0.000 A 
ATOM     12  C   UNL     1       8.116   6.810  18.624  0.00  0.00    +0.000 A 
ATOM     13  C   UNL     1       8.496   8.168  18.712  0.00  0.00    +0.000 A 
ATOM     14  C   UNL     1       7.945   8.786  17.616  0.00  0.00    +0.000 A 
ATOM     15  O   UNL     1       7.253   7.895  16.860  0.00  0.00    +0.000 OA
ENDBRANCH   8  11
BRANCH   2  16
ATOM     16  C   UNL     1       3.601   5.322  19.480  0.00  0.00    +0.000 C 
BRANCH  16  17
ATOM     17  C   UNL     1       2.472   5.894  20.329  0.00  0.00    +0.000 C 
BRANCH  17  18
ATOM     18  C   UNL     1       2.041   7.237  19.776  0.00  0.00    +0.000 A 
ATOM     19  C   UNL     1       2.357   7.587  18.455  0.00  0.00    +0.000 A 
ATOM     20  C   UNL     1       2.001   8.840  17.955  0.00  0.00    +0.000 A 
ATOM     21  C   UNL     1       1.342   9.747  18.777  0.00  0.00    +0.000 A 
ATOM     22  F   UNL     1       1.002  10.949  18.294  0.00  0.00    +0.000 F 
ATOM     23  C   UNL     1       1.035   9.425  20.093  0.00  0.00    +0.000 A 
ATOM     24  C   UNL     1       1.383   8.170  20.593  0.00  0.00    +0.000 A 
ENDBRANCH  17  18
ENDBRANCH  16  17
ENDBRANCH   2  16
TORSDOF 4
ENDMDL
MODEL 4
REMARK VINA RESULT:      -7.5      2.270      3.211
REMARK  Name = 
REMARK  4 active torsions:
REMARK  status: ('A' for Active; 'I' for Inactive)
REMARK    1  A    between atoms: C_2  and  C_3
REMARK    2  A    between atoms: C_3  and  C_4
REMARK    3  A    between atoms: C_4  and  C_5
REMARK    4  A    between atoms: C_17  and  C_18
REMARK                            x       y       z     vdW  Elec       q    Type
REMARK                         _______ _______ _______ _____ _____    ______ ____
ROOT
ATOM      1  O   UNL     1       2.341   6.684  19.590  0.00  0.00    +0.000 OA
ATOM      2  C   UNL     1       3.216   6.134  18.915  0.00  0.00    +0.000 C 
ATOM      3  N   UNL     1       4.490   6.086  19.409  0.00  0.00    +0.000 N 
ATOM      4  C   UNL     1       5.650   5.624  18.807  0.00  0.00    +0.000 A 
ATOM      5  N   UNL     1       6.703   5.474  19.616  0.00  0.00    +0.000 NA
ATOM      6  C   UNL     1       7.819   4.964  19.059  0.00  0.00    +0.000 A 
ATOM      7  C   UNL     1       7.931   4.641  17.728  0.00  0.00    +0.000 A 
ATOM      8  C   UNL     1       6.814   4.882  16.970  0.00  0.00    +0.000 A 
ATOM      9  N   UNL     1       5.678   5.370  17.501  0.00  0.00    +0.000 NA
ATOM     10  H   UNL     1       4.615   6.423  20.353  0.00  0.00    +0.000 HD
ENDROOT
BRANCH   8  11
ATOM     11  C   UNL     1       6.733   4.627  15.536  0.00  0.00    +0.000 A 
ATOM     12  C   UNL     1       5.932   3.811  14.755  0.00  0.00    +0.000 A 
ATOM     13  C   UNL     1       6.356   3.980  13.418  0.00  0.00    +0.000 A 
ATOM     14  C   UNL     1       7.383   4.892  13.459  0.00  0.00    +0.000 A 
ATOM     15  O   UNL     1       7.616   5.295  14.734  0.00  0.00    +0.000 OA
ENDBRANCH   8  11
BRANCH   2  16
ATOM     16  C   UNL     1       2.873   5.406  17.626  0.00  0.00    +0.000 C 
BRANCH  16  17
ATOM     17  C   UNL     1       3.008   3.892  17.726  0.00  0.00    +0.000 C 
BRANCH  17  18
ATOM     18  C   UNL     1       2.460   3.413  19.055  0.00  0.00    +0.000 A 
ATOM     19  C   UNL     1       1.088   3.513  19.327  0.00  0.00    +0.000 A 
ATOM     20  C   UNL     1       0.585   3.113  20.566  0.00  0.00    +0.000 A 
ATOM     21  C   UNL     1       1.454   2.626  21.536  0.00  0.00    +0.000 A 
ATOM     22  F   UNL     1       0.969   2.245  22.724  0.00  0.00    +0.000 F 
ATOM     23  C   UNL     1       2.818   2.535  21.291  0.00  0.00    +0.000 A 
ATOM     24  C   UNL     1       3.323   2.926  20.050  0.00  0.00    +0.000 A 
ENDBRANCH  17  18
ENDBRANCH  16  17
ENDBRANCH   2  16
TORSDOF 4
ENDMDL
MODEL 5
REMARK VINA RESULT:      -7.4      2.283      3.311
REMARK  Name = 
REMARK  4 active torsions:
REMARK  status: ('A' for Active; 'I' for Inactive)
REMARK    1  A    between atoms: C_2  and  C_3
REMARK    2  A    between atoms: C_3  and  C_4
REMARK    3  A    between atoms: C_4  and  C_5
REMARK    4  A    between atoms: C_17  and  C_18
REMARK                            x       y       z     vdW  Elec       q    Type
REMARK                         _______ _______ _______ _____ _____    ______ ____
ROOT
ATOM      1  O   UNL     1       2.430   6.710  19.634  0.00  0.00    +0.000 OA
ATOM      2  C   UNL     1       3.292   6.153  18.948  0.00  0.00    +0.000 C 
ATOM      3  N   UNL     1       4.571   6.090  19.429  0.00  0.00    +0.000 N 
ATOM      4  C   UNL     1       5.719   5.619  18.813  0.00  0.00    +0.000 A 
ATOM      5  N   UNL     1       6.780   5.457  19.610  0.00  0.00    +0.000 NA
ATOM      6  C   UNL     1       7.885   4.937  19.039  0.00  0.00    +0.000 A 
ATOM      7  C   UNL     1       7.979   4.615  17.707  0.00  0.00    +0.000 A 
ATOM      8  C   UNL     1       6.856   4.869  16.962  0.00  0.00    +0.000 A 
ATOM      9  N   UNL     1       5.730   5.367  17.506  0.00  0.00    +0.000 NA
ATOM     10  H   UNL     1       4.710   6.425  20.371  0.00  0.00    +0.000 HD
ENDROOT
BRANCH   8  11
ATOM     11  C   UNL     1       6.757   4.618  15.528  0.00  0.00    +0.000 A 
ATOM     12  C   UNL     1       5.964   3.785  14.758  0.00  0.00    +0.000 A 
ATOM     13  C   UNL     1       6.360   3.970  13.414  0.00  0.00    +0.000 A 
ATOM     14  C   UNL     1       7.363   4.909  13.441  0.00  0.00    +0.000 A 
ATOM     15  O   UNL     1       7.608   5.312  14.714  0.00  0.00    +0.000 OA
ENDBRANCH   8  11
BRANCH   2  16
ATOM     16  C   UNL     1       2.928   5.431  17.662  0.00  0.00    +0.000 C 
BRANCH  16  17
ATOM     17  C   UNL     1       2.986   3.913  17.776  0.00  0.00    +0.000 C 
BRANCH  17  18
ATOM     18  C   UNL     1       2.447   3.477  19.124  0.00  0.00    +0.000 A 
ATOM     19  C   UNL     1       3.318   2.964  20.096  0.00  0.00    +0.000 A 
ATOM     20  C   UNL     1       2.821   2.521  21.323  0.00  0.00    +0.000 A 
ATOM     21  C   UNL     1       1.455   2.577  21.572  0.00  0.00    +0.000 A 
ATOM     22  F   UNL     1       0.981   2.149  22.749  0.00  0.00    +0.000 F 
ATOM     23  C   UNL     1       0.574   3.066  20.616  0.00  0.00    +0.000 A 
ATOM     24  C   UNL     1       1.069   3.517  19.391  0.00  0.00    +0.000 A 
ENDBRANCH  17  18
ENDBRANCH  16  17
ENDBRANCH   2  16
TORSDOF 4
ENDMDL
MODEL 6
REMARK VINA RESULT:      -7.2      2.946      6.374
REMARK  Name = 
REMARK  4 active torsions:
REMARK  status: ('A' for Active; 'I' for Inactive)
REMARK    1  A    between atoms: C_2  and  C_3
REMARK    2  A    between atoms: C_3  and  C_4
REMARK    3  A    between atoms: C_4  and  C_5
REMARK    4  A    between atoms: C_17  and  C_18
REMARK                            x       y       z     vdW  Elec       q    Type
REMARK                         _______ _______ _______ _____ _____    ______ ____
ROOT
ATOM      1  O   UNL     1       8.082   4.096  18.105  0.00  0.00    +0.000 OA
ATOM      2  C   UNL     1       7.031   4.654  18.435  0.00  0.00    +0.000 C 
ATOM      3  N   UNL     1       6.010   3.887  18.924  0.00  0.00    +0.000 N 
ATOM      4  C   UNL     1       4.717   4.256  19.259  0.00  0.00    +0.000 A 
ATOM      5  N   UNL     1       4.013   3.346  19.939  0.00  0.00    +0.000 NA
ATOM      6  C   UNL     1       2.776   3.716  20.330  0.00  0.00    +0.000 A 
ATOM      7  C   UNL     1       2.211   4.932  20.033  0.00  0.00    +0.000 A 
ATOM      8  C   UNL     1       2.993   5.774  19.284  0.00  0.00    +0.000 A 
ATOM      9  N   UNL     1       4.238   5.445  18.898  0.00  0.00    +0.000 NA
ATOM     10  H   UNL     1       6.219   2.911  19.075  0.00  0.00    +0.000 HD
ENDROOT
BRANCH   8  11
ATOM     11  C   UNL     1       2.571   7.101  18.847  0.00  0.00    +0.000 A 
ATOM     12  C   UNL     1       2.782   7.838  17.695  0.00  0.00    +0.000 A 
ATOM     13  C   UNL     1       2.133   9.080  17.877  0.00  0.00    +0.000 A 
ATOM     14  C   UNL     1       1.559   9.026  19.124  0.00  0.00    +0.000 A 
ATOM     15  O   UNL     1       1.811   7.832  19.718  0.00  0.00    +0.000 OA
ENDBRANCH   8  11
BRANCH   2  16
ATOM     16  C   UNL     1       6.911   6.168  18.431  0.00  0.00    +0.000 C 
BRANCH  16  17
ATOM     17  C   UNL     1       7.143   6.796  17.063  0.00  0.00    +0.000 C 
BRANCH  17  18
ATOM     18  C   UNL     1       6.654   5.859  15.977  0.00  0.00    +0.000 A 
ATOM     19  C   UNL     1       7.565   5.297  15.070  0.00  0.00    +0.000 A 
ATOM     20  C   UNL     1       7.114   4.469  14.042  0.00  0.00    +0.000 A 
ATOM     21  C   UNL     1       5.754   4.214  13.911  0.00  0.00    +0.000 A 
ATOM     22  F   UNL     1       5.324   3.419  12.922  0.00  0.00    +0.000 F 
ATOM     23  C   UNL     1       4.834   4.774  14.788  0.00  0.00    +0.000 A 
ATOM     24  C   UNL     1       5.283   5.597  15.823  0.00  0.00    +0.000 A 
ENDBRANCH  17  18
ENDBRANCH  16  17
ENDBRANCH   2  16
TORSDOF 4
ENDMDL
MODEL 7
REMARK VINA RESULT:      -7.2      2.944      6.357
REMARK  Name = 
REMARK  4 active torsions:
REMARK  status: ('A' for Active; 'I' for Inactive)
REMARK    1  A    between atoms: C_2  and  C_3
REMARK    2  A    between atoms: C_3  and  C_4
REMARK    3  A    between atoms: C_4  and  C_5
REMARK    4  A    between atoms: C_17  and  C_18
REMARK                            x       y       z     vdW  Elec       q    Type
REMARK                         _______ _______ _______ _____ _____    ______ ____
ROOT
ATOM      1  O   UNL     1       8.082   4.082  18.022  0.00  0.00    +0.000 OA
ATOM      2  C   UNL     1       7.037   4.640  18.369  0.00  0.00    +0.000 C 
ATOM      3  N   UNL     1       6.028   3.876  18.886  0.00  0.00    +0.000 N 
ATOM      4  C   UNL     1       4.741   4.245  19.244  0.00  0.00    +0.000 A 
ATOM      5  N   UNL     1       4.053   3.340  19.947  0.00  0.00    +0.000 NA
ATOM      6  C   UNL     1       2.824   3.710  20.360  0.00  0.00    +0.000 A 
ATOM      7  C   UNL     1       2.250   4.922  20.064  0.00  0.00    +0.000 A 
ATOM      8  C   UNL     1       3.014   5.760  19.293  0.00  0.00    +0.000 A 
ATOM      9  N   UNL     1       4.252   5.429  18.883  0.00  0.00    +0.000 NA
ATOM     10  H   UNL     1       6.241   2.901  19.041  0.00  0.00    +0.000 HD
ENDROOT
BRANCH   8  11
ATOM     11  C   UNL     1       2.580   7.082  18.853  0.00  0.00    +0.000 A 
ATOM     12  C   UNL     1       2.773   7.813  17.694  0.00  0.00    +0.000 A 
ATOM     13  C   UNL     1       2.121   9.053  17.877  0.00  0.00    +0.000 A 
ATOM     14  C   UNL     1       1.562   9.004  19.132  0.00  0.00    +0.000 A 
ATOM     15  O   UNL     1       1.828   7.814  19.729  0.00  0.00    +0.000 OA
ENDBRANCH   8  11
BRANCH   2  16
ATOM     16  C   UNL     1       6.913   6.154  18.355  0.00  0.00    +0.000 C 
BRANCH  16  17
ATOM     17  C   UNL     1       7.243   6.782  17.007  0.00  0.00    +0.000 C 
BRANCH  17  18
ATOM     18  C   UNL     1       6.703   5.913  15.889  0.00  0.00    +0.000 A 
ATOM     19  C   UNL     1       5.333   5.625  15.822  0.00  0.00    +0.000 A 
ATOM     20  C   UNL     1       4.837   4.790  14.819  0.00  0.00    +0.000 A 
ATOM     21  C   UNL     1       5.711   4.233  13.894  0.00  0.00    +0.000 A 
ATOM     22  F   UNL     1       5.233   3.431  12.934  0.00  0.00    +0.000 F 
ATOM     23  C   UNL     1       7.075   4.493  13.953  0.00  0.00    +0.000 A 
ATOM     24  C   UNL     1       7.572   5.334  14.950  0.00  0.00    +0.000 A 
ENDBRANCH  17  18
ENDBRANCH  16  17
ENDBRANCH   2  16
TORSDOF 4
ENDMDL
MODEL 8
REMARK VINA RESULT:      -7.2      3.280      5.018
REMARK  Name = 
REMARK  4 active torsions:
REMARK  status: ('A' for Active; 'I' for Inactive)
REMARK    1  A    between atoms: C_2  and  C_3
REMARK    2  A    between atoms: C_3  and  C_4
REMARK    3  A    between atoms: C_4  and  C_5
REMARK    4  A    between atoms: C_17  and  C_18
REMARK                            x       y       z     vdW  Elec       q    Type
REMARK                         _______ _______ _______ _____ _____    ______ ____
ROOT
ATOM      1  O   UNL     1       1.344   4.548  18.287  0.00  0.00    +0.000 OA
ATOM      2  C   UNL     1       2.454   4.969  17.948  0.00  0.00    +0.000 C 
ATOM      3  N   UNL     1       3.252   4.166  17.181  0.00  0.00    +0.000 N 
ATOM      4  C   UNL     1       4.559   4.365  16.766  0.00  0.00    +0.000 A 
ATOM      5  N   UNL     1       5.002   3.527  15.824  0.00  0.00    +0.000 NA
ATOM      6  C   UNL     1       6.249   3.749  15.363  0.00  0.00    +0.000 A 
ATOM      7  C   UNL     1       7.073   4.742  15.833  0.00  0.00    +0.000 A 
ATOM      8  C   UNL     1       6.547   5.515  16.836  0.00  0.00    +0.000 A 
ATOM      9  N   UNL     1       5.299   5.333  17.303  0.00  0.00    +0.000 NA
ATOM     10  H   UNL     1       2.837   3.305  16.856  0.00  0.00    +0.000 HD
ENDROOT
BRANCH   8  11
ATOM     11  C   UNL     1       7.266   6.607  17.484  0.00  0.00    +0.000 A 
ATOM     12  C   UNL     1       8.013   6.702  18.645  0.00  0.00    +0.000 A 
ATOM     13  C   UNL     1       8.435   8.047  18.753  0.00  0.00    +0.000 A 
ATOM     14  C   UNL     1       7.928   8.691  17.650  0.00  0.00    +0.000 A 
ATOM     15  O   UNL     1       7.224   7.829  16.872  0.00  0.00    +0.000 OA
ENDBRANCH   8  11
BRANCH   2  16
ATOM     16  C   UNL     1       2.880   6.395  18.254  0.00  0.00    +0.000 C 
BRANCH  16  17
ATOM     17  C   UNL     1       2.755   6.767  19.726  0.00  0.00    +0.000 C 
BRANCH  17  18
ATOM     18  C   UNL     1       1.782   7.917  19.886  0.00  0.00    +0.000 A 
ATOM     19  C   UNL     1       1.117   8.112  21.105  0.00  0.00    +0.000 A 
ATOM     20  C   UNL     1       0.187   9.143  21.243  0.00  0.00    +0.000 A 
ATOM     21  C   UNL     1      -0.088   9.970  20.161  0.00  0.00    +0.000 A 
ATOM     22  F   UNL     1      -0.982  10.958  20.296  0.00  0.00    +0.000 F 
ATOM     23  C   UNL     1       0.547   9.784  18.940  0.00  0.00    +0.000 A 
ATOM     24  C   UNL     1       1.484   8.758  18.801  0.00  0.00    +0.000 A 
ENDBRANCH  17  18
ENDBRANCH  16  17
ENDBRANCH   2  16
TORSDOF 4
ENDMDL
MODEL 9
REMARK VINA RESULT:      -7.0      3.692      5.732
REMARK  Name = 
REMARK  4 active torsions:
REMARK  status: ('A' for Active; 'I' for Inactive)
REMARK    1  A    between atoms: C_2  and  C_3
REMARK    2  A    between atoms: C_3  and  C_4
REMARK    3  A    between atoms: C_4  and  C_5
REMARK    4  A    between atoms: C_17  and  C_18
REMARK                            x       y       z     vdW  Elec       q    Type
REMARK                         _______ _______ _______ _____ _____    ______ ____
ROOT
ATOM      1  O   UNL     1       1.143   8.218  20.856  0.00  0.00    +0.000 OA
ATOM      2  C   UNL     1       1.843   7.392  20.264  0.00  0.00    +0.000 C 
ATOM      3  N   UNL     1       1.902   6.116  20.752  0.00  0.00    +0.000 N 
ATOM      4  C   UNL     1       2.684   5.050  20.335  0.00  0.00    +0.000 A 
ATOM      5  N   UNL     1       2.355   3.857  20.839  0.00  0.00    +0.000 NA
ATOM      6  C   UNL     1       3.065   2.801  20.393  0.00  0.00    +0.000 A 
ATOM      7  C   UNL     1       4.106   2.901  19.503  0.00  0.00    +0.000 A 
ATOM      8  C   UNL     1       4.402   4.174  19.086  0.00  0.00    +0.000 A 
ATOM      9  N   UNL     1       3.699   5.245  19.496  0.00  0.00    +0.000 NA
ATOM     10  H   UNL     1       1.283   5.904  21.521  0.00  0.00    +0.000 HD
ENDROOT
BRANCH   8  11
ATOM     11  C   UNL     1       5.482   4.496  18.159  0.00  0.00    +0.000 A 
ATOM     12  C   UNL     1       5.514   4.946  16.851  0.00  0.00    +0.000 A 
ATOM     13  C   UNL     1       6.876   5.045  16.485  0.00  0.00    +0.000 A 
ATOM     14  C   UNL     1       7.594   4.658  17.591  0.00  0.00    +0.000 A 
ATOM     15  O   UNL     1       6.761   4.330  18.612  0.00  0.00    +0.000 OA
ENDBRANCH   8  11
BRANCH   2  16
ATOM     16  C   UNL     1       2.520   7.734  18.948  0.00  0.00    +0.000 C 
BRANCH  16  17
ATOM     17  C   UNL     1       1.556   8.213  17.871  0.00  0.00    +0.000 C 
BRANCH  17  18
ATOM     18  C   UNL     1       1.178   9.659  18.124  0.00  0.00    +0.000 A 
ATOM     19  C   UNL     1       2.177  10.636  18.241  0.00  0.00    +0.000 A 
ATOM     20  C   UNL     1       1.837  11.961  18.518  0.00  0.00    +0.000 A 
ATOM     21  C   UNL     1       0.502  12.306  18.690  0.00  0.00    +0.000 A 
ATOM     22  F   UNL     1       0.179  13.578  18.956  0.00  0.00    +0.000 F 
ATOM     23  C   UNL     1      -0.501  11.350  18.594  0.00  0.00    +0.000 A 
ATOM     24  C   UNL     1      -0.164  10.026  18.310  0.00  0.00    +0.000 A 
ENDBRANCH  17  18
ENDBRANCH  16  17
ENDBRANCH   2  16
TORSDOF 4
ENDMDL
