MODEL 1
REMARK VINA RESULT:      -8.3      0.000      0.000
REMARK  Name = 
REMARK  5 active torsions:
REMARK  status: ('A' for Active; 'I' for Inactive)
REMARK    1  A    between atoms: C_1  and  N_2
REMARK    2  A    between atoms: C_6  and  C_7
REMARK    3  A    between atoms: C_11  and  N_12
REMARK    4  A    between atoms: N_12  and  C_13
REMARK    5  A    between atoms: C_19  and  C_20
REMARK                            x       y       z     vdW  Elec       q    Type
REMARK                         _______ _______ _______ _____ _____    ______ ____
ROOT
ATOM      1  N   UNL     1      -0.649  10.657  17.845  0.00  0.00    +0.000 N 
ATOM      2  H   UNL     1      -0.627   9.640  17.644  0.00  0.00    +0.000 HD
ENDROOT
BRANCH   1   3
ATOM      3  C   UNL     1       0.287  10.659  19.104  0.00  0.00    +0.000 A 
ATOM      4  C   UNL     1       1.275  11.599  18.804  0.00  0.00    +0.000 A 
ATOM      5  C   UNL     1       2.191  11.145  17.874  0.00  0.00    +0.000 A 
ATOM      6  N   UNL     1       2.328   9.823  17.599  0.00  0.00    +0.000 NA
ATOM      7  C   UNL     1       1.808   8.977  18.519  0.00  0.00    +0.000 A 
ATOM      8  C   UNL     1       2.304   7.701  18.691  0.00  0.00    +0.000 A 
ATOM      9  C   UNL     1       2.141   6.983  19.892  0.00  0.00    +0.000 A 
ATOM     10  C   UNL     1       1.521   7.634  20.966  0.00  0.00    +0.000 A 
ATOM     11  C   UNL     1       0.867   8.850  20.735  0.00  0.00    +0.000 A 
ATOM     12  C   UNL     1       0.885   9.441  19.446  0.00  0.00    +0.000 A 
BRANCH   9  13
ATOM     13  C   UNL     1       2.660   5.608  19.908  0.00  0.00    +0.000 A 
ATOM     14  N   UNL     1       3.817   5.303  19.341  0.00  0.00    +0.000 NA
ATOM     15  C   UNL     1       4.100   3.972  19.497  0.00  0.00    +0.000 A 
ATOM     16  C   UNL     1       3.155   3.255  20.185  0.00  0.00    +0.000 A 
ATOM     17  S   UNL     1       1.847   4.276  20.627  0.00  0.00    +0.000 S 
ENDBRANCH   9  13
ENDBRANCH   1   3
BRANCH   1  22
ATOM     18  C   UNL     1      -4.143  11.756  18.589  0.00  0.00    +0.000 A 
ATOM     19  C   UNL     1      -4.720  11.719  17.324  0.00  0.00    +0.000 A 
ATOM     20  C   UNL     1      -3.995  11.246  16.222  0.00  0.00    +0.000 A 
ATOM     21  C   UNL     1      -2.671  10.806  16.357  0.00  0.00    +0.000 A 
ATOM     22  C   UNL     1      -2.058  10.827  17.601  0.00  0.00    +0.000 A 
ATOM     23  C   UNL     1      -2.821  11.288  18.718  0.00  0.00    +0.000 A 
BRANCH  18  29
ATOM     24  C   UNL     1      -5.159  14.942  22.101  0.00  0.00    +0.000 C 
ATOM     25  N   UNL     1      -5.337  13.768  21.269  0.00  0.00    +0.000 N 
ATOM     26  C   UNL     1      -6.345  12.864  21.357  0.00  0.00    +0.000 A 
ATOM     27  C   UNL     1      -6.078  11.941  20.363  0.00  0.00    +0.000 A 
ATOM     28 BR   UNL     1      -7.173  10.474  19.964  0.00  0.00    +0.000 Br
ATOM     29  C   UNL     1      -4.893  12.361  19.716  0.00  0.00    +0.000 A 
ATOM     30  N   UNL     1      -4.456  13.504  20.284  0.00  0.00    +0.000 NA
ENDBRANCH  18  29
ENDBRANCH   1  22
TORSDOF 4
ENDMDL
MODEL 2
REMARK VINA RESULT:      -8.3      2.159      2.356
REMARK  Name = 
REMARK  5 active torsions:
REMARK  status: ('A' for Active; 'I' for Inactive)
REMARK    1  A    between atoms: C_1  and  N_2
REMARK    2  A    between atoms: C_6  and  C_7
REMARK    3  A    between atoms: C_11  and  N_12
REMARK    4  A    between atoms: N_12  and  C_13
REMARK    5  A    between atoms: C_19  and  C_20
REMARK                            x       y       z     vdW  Elec       q    Type
REMARK                         _______ _______ _______ _____ _____    ______ ____
ROOT
ATOM      1  N   UNL     1      -0.755  11.609  18.768  0.00  0.00    +0.000 N 
ATOM      2  H   UNL     1      -0.131  11.708  17.947  0.00  0.00    +0.000 HD
ENDROOT
BRANCH   1   3
ATOM      3  C   UNL     1       0.321  11.153  19.815  0.00  0.00    +0.000 A 
ATOM      4  C   UNL     1       1.254  12.192  19.833  0.00  0.00    +0.000 A 
ATOM      5  C   UNL     1       2.061  12.216  18.713  0.00  0.00    +0.000 A 
ATOM      6  N   UNL     1       2.185  11.133  17.904  0.00  0.00    +0.000 NA
ATOM      7  C   UNL     1       1.788   9.954  18.439  0.00  0.00    +0.000 A 
ATOM      8  C   UNL     1       2.319   8.753  18.017  0.00  0.00    +0.000 A 
ATOM      9  C   UNL     1       2.307   7.597  18.823  0.00  0.00    +0.000 A 
ATOM     10  C   UNL     1       1.807   7.712  20.126  0.00  0.00    +0.000 A 
ATOM     11  C   UNL     1       1.112   8.874  20.485  0.00  0.00    +0.000 A 
ATOM     12  C   UNL     1       0.972   9.940  19.562  0.00  0.00    +0.000 A 
BRANCH   9  13
ATOM     13  C   UNL     1       2.845   6.371  18.217  0.00  0.00    +0.000 A 
ATOM     14  N   UNL     1       2.141   5.250  18.193  0.00  0.00    +0.000 NA
ATOM     15  C   UNL     1       2.837   4.252  17.565  0.00  0.00    +0.000 A 
ATOM     16  C   UNL     1       4.078   4.611  17.104  0.00  0.00    +0.000 A 
ATOM     17  S   UNL     1       4.403   6.250  17.501  0.00  0.00    +0.000 S 
ENDBRANCH   9  13
ENDBRANCH   1   3
BRANCH   1  22
ATOM     18  C   UNL     1      -4.240  11.255  17.464  0.00  0.00    +0.000 A 
ATOM     19  C   UNL     1      -4.064  10.309  16.458  0.00  0.00    +0.000 A 
ATOM     20  C   UNL     1      -2.815   9.708  16.255  0.00  0.00    +0.000 A 
ATOM     21  C   UNL     1      -1.708  10.043  17.046  0.00  0.00    +0.000 A 
ATOM     22  C   UNL     1      -1.840  10.983  18.059  0.00  0.00    +0.000 A 
ATOM     23  C   UNL     1      -3.127  11.566  18.270  0.00  0.00    +0.000 A 
BRANCH  18  29
ATOM     24  C   UNL     1      -7.624  14.617  16.591  0.00  0.00    +0.000 C 
ATOM     25  N   UNL     1      -7.033  13.443  17.204  0.00  0.00    +0.000 N 
ATOM     26  C   UNL     1      -7.611  12.642  18.135  0.00  0.00    +0.000 A 
ATOM     27  C   UNL     1      -6.663  11.671  18.402  0.00  0.00    +0.000 A 
ATOM     28 BR   UNL     1      -6.923  10.240  19.582  0.00  0.00    +0.000 Br
ATOM     29  C   UNL     1      -5.542  11.954  17.589  0.00  0.00    +0.000 A 
ATOM     30  N   UNL     1      -5.796  13.049  16.843  0.00  0.00    +0.000 NA
ENDBRANCH  18  29
ENDBRANCH   1  22
TORSDOF 4
ENDMDL
MODEL 3
REMARK VINA RESULT:      -8.1      1.298      1.462
REMARK  Name = 
REMARK  5 active torsions:
REMARK  status: ('A' for Active; 'I' for Inactive)
REMARK    1  A    between atoms: C_1  and  N_2
REMARK    2  A    between atoms: C_6  and  C_7
REMARK    3  A    between atoms: C_11  and  N_12
REMARK    4  A    between atoms: N_12  and  C_13
REMARK    5  A    between atoms: C_19  and  C_20
REMARK                            x       y       z     vdW  Elec       q    Type
REMARK                         _______ _______ _______ _____ _____    ______ ____
ROOT
ATOM      1  N   UNL     1      -0.577  10.371  17.759  0.00  0.00    +0.000 N 
ATOM      2  H   UNL     1      -0.610   9.345  17.621  0.00  0.00    +0.000 HD
ENDROOT
BRANCH   1   3
ATOM      3  C   UNL     1       0.345  10.398  19.029  0.00  0.00    +0.000 A 
ATOM      4  C   UNL     1       1.321  11.352  18.733  0.00  0.00    +0.000 A 
ATOM      5  C   UNL     1       2.254  10.907  17.817  0.00  0.00    +0.000 A 
ATOM      6  N   UNL     1       2.417   9.586  17.554  0.00  0.00    +0.000 NA
ATOM      7  C   UNL     1       1.900   8.738  18.474  0.00  0.00    +0.000 A 
ATOM      8  C   UNL     1       2.415   7.471  18.660  0.00  0.00    +0.000 A 
ATOM      9  C   UNL     1       2.250   6.759  19.865  0.00  0.00    +0.000 A 
ATOM     10  C   UNL     1       1.607   7.407  20.927  0.00  0.00    +0.000 A 
ATOM     11  C   UNL     1       0.935   8.610  20.679  0.00  0.00    +0.000 A 
ATOM     12  C   UNL     1       0.959   9.192  19.387  0.00  0.00    +0.000 A 
BRANCH   9  13
ATOM     13  C   UNL     1       2.791   5.393  19.896  0.00  0.00    +0.000 A 
ATOM     14  N   UNL     1       3.804   5.036  19.121  0.00  0.00    +0.000 NA
ATOM     15  C   UNL     1       4.144   3.727  19.336  0.00  0.00    +0.000 A 
ATOM     16  C   UNL     1       3.389   3.079  20.280  0.00  0.00    +0.000 A 
ATOM     17  S   UNL     1       2.186   4.136  20.899  0.00  0.00    +0.000 S 
ENDBRANCH   9  13
ENDBRANCH   1   3
BRANCH   1  22
ATOM     18  C   UNL     1      -4.044  11.585  18.450  0.00  0.00    +0.000 A 
ATOM     19  C   UNL     1      -4.588  11.611  17.170  0.00  0.00    +0.000 A 
ATOM     20  C   UNL     1      -3.853  11.144  16.073  0.00  0.00    +0.000 A 
ATOM     21  C   UNL     1      -2.551  10.647  16.227  0.00  0.00    +0.000 A 
ATOM     22  C   UNL     1      -1.970  10.605  17.486  0.00  0.00    +0.000 A 
ATOM     23  C   UNL     1      -2.744  11.060  18.597  0.00  0.00    +0.000 A 
BRANCH  18  29
ATOM     24  C   UNL     1      -7.825  12.418  21.370  0.00  0.00    +0.000 C 
ATOM     25  N   UNL     1      -6.473  12.551  20.863  0.00  0.00    +0.000 N 
ATOM     26  C   UNL     1      -5.498  13.348  21.369  0.00  0.00    +0.000 A 
ATOM     27  C   UNL     1      -4.404  13.129  20.551  0.00  0.00    +0.000 A 
ATOM     28 BR   UNL     1      -2.726  13.922  20.799  0.00  0.00    +0.000 Br
ATOM     29  C   UNL     1      -4.799  12.183  19.577  0.00  0.00    +0.000 A 
ATOM     30  N   UNL     1      -6.083  11.826  19.796  0.00  0.00    +0.000 NA
ENDBRANCH  18  29
ENDBRANCH   1  22
TORSDOF 4
ENDMDL
MODEL 4
REMARK VINA RESULT:      -8.0      1.013      1.056
REMARK  Name = 
REMARK  5 active torsions:
REMARK  status: ('A' for Active; 'I' for Inactive)
REMARK    1  A    between atoms: C_1  and  N_2
REMARK    2  A    between atoms: C_6  and  C_7
REMARK    3  A    between atoms: C_11  and  N_12
REMARK    4  A    between atoms: N_12  and  C_13
REMARK    5  A    between atoms: C_19  and  C_20
REMARK                            x       y       z     vdW  Elec       q    Type
REMARK                         _______ _______ _______ _____ _____    ______ ____
ROOT
ATOM      1  N   UNL     1      -0.685  10.474  17.838  0.00  0.00    +0.000 N 
ATOM      2  H   UNL     1      -0.711   9.480  17.548  0.00  0.00    +0.000 HD
ENDROOT
BRANCH   1   3
ATOM      3  C   UNL     1       0.281  10.327  19.065  0.00  0.00    +0.000 A 
ATOM      4  C   UNL     1       1.114  11.446  18.992  0.00  0.00    +0.000 A 
ATOM      5  C   UNL     1       2.054  11.358  17.984  0.00  0.00    +0.000 A 
ATOM      6  N   UNL     1       2.372  10.168  17.412  0.00  0.00    +0.000 NA
ATOM      7  C   UNL     1       2.009   9.067  18.111  0.00  0.00    +0.000 A 
ATOM      8  C   UNL     1       2.689   7.873  17.984  0.00  0.00    +0.000 A 
ATOM      9  C   UNL     1       2.670   6.883  18.986  0.00  0.00    +0.000 A 
ATOM     10  C   UNL     1       1.999   7.172  20.180  0.00  0.00    +0.000 A 
ATOM     11  C   UNL     1       1.168   8.299  20.235  0.00  0.00    +0.000 A 
ATOM     12  C   UNL     1       1.059   9.165  19.118  0.00  0.00    +0.000 A 
BRANCH   9  13
ATOM     13  C   UNL     1       3.382   5.634  18.684  0.00  0.00    +0.000 A 
ATOM     14  N   UNL     1       2.867   4.729  17.867  0.00  0.00    +0.000 NA
ATOM     15  C   UNL     1       3.714   3.662  17.726  0.00  0.00    +0.000 A 
ATOM     16  C   UNL     1       4.883   3.751  18.438  0.00  0.00    +0.000 A 
ATOM     17  S   UNL     1       4.911   5.208  19.346  0.00  0.00    +0.000 S 
ENDBRANCH   9  13
ENDBRANCH   1   3
BRANCH   1  22
ATOM     18  C   UNL     1      -4.075  11.787  18.707  0.00  0.00    +0.000 A 
ATOM     19  C   UNL     1      -4.707  11.762  17.468  0.00  0.00    +0.000 A 
ATOM     20  C   UNL     1      -4.059  11.229  16.347  0.00  0.00    +0.000 A 
ATOM     21  C   UNL     1      -2.757  10.715  16.434  0.00  0.00    +0.000 A 
ATOM     22  C   UNL     1      -2.091  10.722  17.651  0.00  0.00    +0.000 A 
ATOM     23  C   UNL     1      -2.777  11.245  18.790  0.00  0.00    +0.000 A 
BRANCH  18  29
ATOM     24  C   UNL     1      -4.718  15.047  22.239  0.00  0.00    +0.000 C 
ATOM     25  N   UNL     1      -5.019  13.893  21.414  0.00  0.00    +0.000 N 
ATOM     26  C   UNL     1      -6.099  13.080  21.531  0.00  0.00    +0.000 A 
ATOM     27  C   UNL     1      -5.939  12.137  20.532  0.00  0.00    +0.000 A 
ATOM     28 BR   UNL     1      -7.167  10.771  20.164  0.00  0.00    +0.000 Br
ATOM     29  C   UNL     1      -4.740  12.454  19.853  0.00  0.00    +0.000 A 
ATOM     30  N   UNL     1      -4.191  13.555  20.407  0.00  0.00    +0.000 NA
ENDBRANCH  18  29
ENDBRANCH   1  22
TORSDOF 4
ENDMDL
MODEL 5
REMARK VINA RESULT:      -7.9      4.047      9.940
REMARK  Name = 
REMARK  5 active torsions:
REMARK  status: ('A' for Active; 'I' for Inactive)
REMARK    1  A    between atoms: C_1  and  N_2
REMARK    2  A    between atoms: C_6  and  C_7
REMARK    3  A    between atoms: C_11  and  N_12
REMARK    4  A    between atoms: N_12  and  C_13
REMARK    5  A    between atoms: C_19  and  C_20
REMARK                            x       y       z     vdW  Elec       q    Type
REMARK                         _______ _______ _______ _____ _____    ______ ____
ROOT
ATOM      1  N   UNL     1       1.754   8.529  19.107  0.00  0.00    +0.000 N 
ATOM      2  H   UNL     1       0.909   8.433  19.700  0.00  0.00    +0.000 HD
ENDROOT
BRANCH   1   3
ATOM      3  C   UNL     1       1.124   9.387  17.954  0.00  0.00    +0.000 A 
ATOM      4  C   UNL     1       2.118  10.309  17.621  0.00  0.00    +0.000 A 
ATOM      5  C   UNL     1       2.265  11.312  18.560  0.00  0.00    +0.000 A 
ATOM      6  N   UNL     1       1.297  11.575  19.475  0.00  0.00    +0.000 NA
ATOM      7  C   UNL     1       0.072  11.074  19.191  0.00  0.00    +0.000 A 
ATOM      8  C   UNL     1      -1.080  11.664  19.671  0.00  0.00    +0.000 A 
ATOM      9  C   UNL     1      -2.332  11.491  19.049  0.00  0.00    +0.000 A 
ATOM     10  C   UNL     1      -2.376  10.758  17.857  0.00  0.00    +0.000 A 
ATOM     11  C   UNL     1      -1.250  10.019  17.473  0.00  0.00    +0.000 A 
ATOM     12  C   UNL     1      -0.065  10.063  18.250  0.00  0.00    +0.000 A 
BRANCH   9  13
ATOM     13  C   UNL     1      -3.483  12.121  19.711  0.00  0.00    +0.000 A 
ATOM     14  N   UNL     1      -3.360  12.713  20.889  0.00  0.00    +0.000 NA
ATOM     15  C   UNL     1      -4.557  13.240  21.296  0.00  0.00    +0.000 A 
ATOM     16  C   UNL     1      -5.600  13.051  20.426  0.00  0.00    +0.000 A 
ATOM     17  S   UNL     1      -5.074  12.151  19.061  0.00  0.00    +0.000 S 
ENDBRANCH   9  13
ENDBRANCH   1   3
BRANCH   1  22
ATOM     18  C   UNL     1       3.916   5.545  18.482  0.00  0.00    +0.000 A 
ATOM     19  C   UNL     1       3.621   4.753  19.587  0.00  0.00    +0.000 A 
ATOM     20  C   UNL     1       2.640   5.148  20.507  0.00  0.00    +0.000 A 
ATOM     21  C   UNL     1       1.935   6.350  20.348  0.00  0.00    +0.000 A 
ATOM     22  C   UNL     1       2.200   7.169  19.260  0.00  0.00    +0.000 A 
ATOM     23  C   UNL     1       3.184   6.738  18.319  0.00  0.00    +0.000 A 
BRANCH  18  29
ATOM     24  C   UNL     1       6.068   3.963  14.435  0.00  0.00    +0.000 C 
ATOM     25  N   UNL     1       5.978   4.456  15.796  0.00  0.00    +0.000 N 
ATOM     26  C   UNL     1       7.016   4.693  16.637  0.00  0.00    +0.000 A 
ATOM     27  C   UNL     1       6.427   5.146  17.803  0.00  0.00    +0.000 A 
ATOM     28 BR   UNL     1       7.378   5.691  19.322  0.00  0.00    +0.000 Br
ATOM     29  C   UNL     1       5.030   5.158  17.584  0.00  0.00    +0.000 A 
ATOM     30  N   UNL     1       4.773   4.740  16.327  0.00  0.00    +0.000 NA
ENDBRANCH  18  29
ENDBRANCH   1  22
TORSDOF 4
ENDMDL
MODEL 6
REMARK VINA RESULT:      -7.8      5.437     11.038
REMARK  Name = 
REMARK  5 active torsions:
REMARK  status: ('A' for Active; 'I' for Inactive)
REMARK    1  A    between atoms: C_1  and  N_2
REMARK    2  A    between atoms: C_6  and  C_7
REMARK    3  A    between atoms: C_11  and  N_12
REMARK    4  A    between atoms: N_12  and  C_13
REMARK    5  A    between atoms: C_19  and  C_20
REMARK                            x       y       z     vdW  Elec       q    Type
REMARK                         _______ _______ _______ _____ _____    ______ ____
ROOT
ATOM      1  N   UNL     1       5.172   3.264  18.792  0.00  0.00    +0.000 N 
ATOM      2  H   UNL     1       4.951   2.589  18.037  0.00  0.00    +0.000 HD
ENDROOT
BRANCH   1   3
ATOM      3  C   UNL     1       3.760   3.311  19.474  0.00  0.00    +0.000 A 
ATOM      4  C   UNL     1       2.970   2.455  18.703  0.00  0.00    +0.000 A 
ATOM      5  C   UNL     1       2.620   2.994  17.481  0.00  0.00    +0.000 A 
ATOM      6  N   UNL     1       2.704   4.328  17.243  0.00  0.00    +0.000 NA
ATOM      7  C   UNL     1       2.788   5.115  18.342  0.00  0.00    +0.000 A 
ATOM      8  C   UNL     1       2.346   6.422  18.331  0.00  0.00    +0.000 A 
ATOM      9  C   UNL     1       1.975   7.103  19.508  0.00  0.00    +0.000 A 
ATOM     10  C   UNL     1       1.986   6.387  20.711  0.00  0.00    +0.000 A 
ATOM     11  C   UNL     1       2.599   5.128  20.745  0.00  0.00    +0.000 A 
ATOM     12  C   UNL     1       3.146   4.565  19.565  0.00  0.00    +0.000 A 
BRANCH   9  13
ATOM     13  C   UNL     1       1.591   8.513  19.353  0.00  0.00    +0.000 A 
ATOM     14  N   UNL     1       0.994   9.175  20.332  0.00  0.00    +0.000 NA
ATOM     15  C   UNL     1       0.750  10.472  19.965  0.00  0.00    +0.000 A 
ATOM     16  C   UNL     1       1.163  10.804  18.700  0.00  0.00    +0.000 A 
ATOM     17  S   UNL     1       1.852   9.435  17.926  0.00  0.00    +0.000 S 
ENDBRANCH   9  13
ENDBRANCH   1   3
BRANCH   1  22
ATOM     18  C   UNL     1       6.542   4.678  15.614  0.00  0.00    +0.000 A 
ATOM     19  C   UNL     1       6.997   5.922  16.038  0.00  0.00    +0.000 A 
ATOM     20  C   UNL     1       6.942   6.278  17.393  0.00  0.00    +0.000 A 
ATOM     21  C   UNL     1       6.423   5.401  18.355  0.00  0.00    +0.000 A 
ATOM     22  C   UNL     1       5.957   4.151  17.974  0.00  0.00    +0.000 A 
ATOM     23  C   UNL     1       6.045   3.795  16.593  0.00  0.00    +0.000 A 
BRANCH  18  29
ATOM     24  C   UNL     1       4.905   2.747  11.478  0.00  0.00    +0.000 C 
ATOM     25  N   UNL     1       5.787   3.510  12.340  0.00  0.00    +0.000 N 
ATOM     26  C   UNL     1       6.906   4.177  11.959  0.00  0.00    +0.000 A 
ATOM     27  C   UNL     1       7.394   4.738  13.125  0.00  0.00    +0.000 A 
ATOM     28 BR   UNL     1       8.910   5.836  13.213  0.00  0.00    +0.000 Br
ATOM     29  C   UNL     1       6.511   4.367  14.165  0.00  0.00    +0.000 A 
ATOM     30  N   UNL     1       5.512   3.615  13.655  0.00  0.00    +0.000 NA
ENDBRANCH  18  29
ENDBRANCH   1  22
TORSDOF 4
ENDMDL
MODEL 7
REMARK VINA RESULT:      -7.8      4.344      9.793
REMARK  Name = 
REMARK  5 active torsions:
REMARK  status: ('A' for Active; 'I' for Inactive)
REMARK    1  A    between atoms: C_1  and  N_2
REMARK    2  A    between atoms: C_6  and  C_7
REMARK    3  A    between atoms: C_11  and  N_12
REMARK    4  A    between atoms: N_12  and  C_13
REMARK    5  A    between atoms: C_19  and  C_20
REMARK                            x       y       z     vdW  Elec       q    Type
REMARK                         _______ _______ _______ _____ _____    ______ ____
ROOT
ATOM      1  N   UNL     1       1.582   6.838  20.865  0.00  0.00    +0.000 N 
ATOM      2  H   UNL     1       0.625   6.796  20.468  0.00  0.00    +0.000 HD
ENDROOT
BRANCH   1   3
ATOM      3  C   UNL     1       1.885   8.347  20.560  0.00  0.00    +0.000 A 
ATOM      4  C   UNL     1       1.952   8.952  21.817  0.00  0.00    +0.000 A 
ATOM      5  C   UNL     1       0.714   9.112  22.408  0.00  0.00    +0.000 A 
ATOM      6  N   UNL     1      -0.432   9.051  21.683  0.00  0.00    +0.000 NA
ATOM      7  C   UNL     1      -0.287   9.194  20.345  0.00  0.00    +0.000 A 
ATOM      8  C   UNL     1      -1.305   9.689  19.556  0.00  0.00    +0.000 A 
ATOM      9  C   UNL     1      -1.066  10.288  18.303  0.00  0.00    +0.000 A 
ATOM     10  C   UNL     1       0.264  10.450  17.897  0.00  0.00    +0.000 A 
ATOM     11  C   UNL     1       1.275   9.793  18.609  0.00  0.00    +0.000 A 
ATOM     12  C   UNL     1       0.960   9.026  19.759  0.00  0.00    +0.000 A 
BRANCH   9  13
ATOM     13  C   UNL     1      -2.252  10.705  17.541  0.00  0.00    +0.000 A 
ATOM     14  N   UNL     1      -2.342  10.491  16.238  0.00  0.00    +0.000 NA
ATOM     15  C   UNL     1      -3.538  10.948  15.751  0.00  0.00    +0.000 A 
ATOM     16  C   UNL     1      -4.367  11.514  16.687  0.00  0.00    +0.000 A 
ATOM     17  S   UNL     1      -3.609  11.505  18.227  0.00  0.00    +0.000 S 
ENDBRANCH   9  13
ENDBRANCH   1   3
BRANCH   1  22
ATOM     18  C   UNL     1       3.662   4.514  18.805  0.00  0.00    +0.000 A 
ATOM     19  C   UNL     1       3.418   3.296  19.432  0.00  0.00    +0.000 A 
ATOM     20  C   UNL     1       2.497   3.206  20.484  0.00  0.00    +0.000 A 
ATOM     21  C   UNL     1       1.802   4.335  20.941  0.00  0.00    +0.000 A 
ATOM     22  C   UNL     1       2.017   5.568  20.344  0.00  0.00    +0.000 A 
ATOM     23  C   UNL     1       2.939   5.637  19.256  0.00  0.00    +0.000 A 
BRANCH  18  29
ATOM     24  C   UNL     1       5.644   4.224  14.389  0.00  0.00    +0.000 C 
ATOM     25  N   UNL     1       5.592   4.470  15.817  0.00  0.00    +0.000 N 
ATOM     26  C   UNL     1       6.620   4.880  16.602  0.00  0.00    +0.000 A 
ATOM     27  C   UNL     1       6.079   4.970  17.872  0.00  0.00    +0.000 A 
ATOM     28 BR   UNL     1       7.024   5.551  19.381  0.00  0.00    +0.000 Br
ATOM     29  C   UNL     1       4.718   4.603  17.769  0.00  0.00    +0.000 A 
ATOM     30  N   UNL     1       4.431   4.309  16.483  0.00  0.00    +0.000 NA
ENDBRANCH  18  29
ENDBRANCH   1  22
TORSDOF 4
ENDMDL
MODEL 8
REMARK VINA RESULT:      -7.7      3.755      8.991
REMARK  Name = 
REMARK  5 active torsions:
REMARK  status: ('A' for Active; 'I' for Inactive)
REMARK    1  A    between atoms: C_1  and  N_2
REMARK    2  A    between atoms: C_6  and  C_7
REMARK    3  A    between atoms: C_11  and  N_12
REMARK    4  A    between atoms: N_12  and  C_13
REMARK    5  A    between atoms: C_19  and  C_20
REMARK                            x       y       z     vdW  Elec       q    Type
REMARK                         _______ _______ _______ _____ _____    ______ ____
ROOT
ATOM      1  N   UNL     1       1.516  10.795  18.981  0.00  0.00    +0.000 N 
ATOM      2  H   UNL     1       1.756  11.189  19.909  0.00  0.00    +0.000 HD
ENDROOT
BRANCH   1   3
ATOM      3  C   UNL     1       0.484  11.888  18.533  0.00  0.00    +0.000 A 
ATOM      4  C   UNL     1       1.238  13.058  18.420  0.00  0.00    +0.000 A 
ATOM      5  C   UNL     1       1.585  13.600  19.642  0.00  0.00    +0.000 A 
ATOM      6  N   UNL     1       0.935  13.253  20.782  0.00  0.00    +0.000 NA
ATOM      7  C   UNL     1      -0.268  12.657  20.612  0.00  0.00    +0.000 A 
ATOM      8  C   UNL     1      -1.257  12.737  21.572  0.00  0.00    +0.000 A 
ATOM      9  C   UNL     1      -2.622  12.565  21.266  0.00  0.00    +0.000 A 
ATOM     10  C   UNL     1      -2.975  12.387  19.923  0.00  0.00    +0.000 A 
ATOM     11  C   UNL     1      -1.967  12.130  18.985  0.00  0.00    +0.000 A 
ATOM     12  C   UNL     1      -0.606  12.111  19.382  0.00  0.00    +0.000 A 
BRANCH   9  13
ATOM     13  C   UNL     1      -3.556  12.607  22.400  0.00  0.00    +0.000 A 
ATOM     14  N   UNL     1      -3.238  12.082  23.573  0.00  0.00    +0.000 NA
ATOM     15  C   UNL     1      -4.254  12.256  24.475  0.00  0.00    +0.000 A 
ATOM     16  C   UNL     1      -5.353  12.917  23.991  0.00  0.00    +0.000 A 
ATOM     17  S   UNL     1      -5.123  13.308  22.334  0.00  0.00    +0.000 S 
ENDBRANCH   9  13
ENDBRANCH   1   3
BRANCH   1  22
ATOM     18  C   UNL     1       2.351   7.152  18.946  0.00  0.00    +0.000 A 
ATOM     19  C   UNL     1       1.920   6.757  20.208  0.00  0.00    +0.000 A 
ATOM     20  C   UNL     1       1.267   7.663  21.055  0.00  0.00    +0.000 A 
ATOM     21  C   UNL     1       1.036   8.989  20.663  0.00  0.00    +0.000 A 
ATOM     22  C   UNL     1       1.451   9.424  19.413  0.00  0.00    +0.000 A 
ATOM     23  C   UNL     1       2.091   8.480  18.552  0.00  0.00    +0.000 A 
BRANCH  18  29
ATOM     24  C   UNL     1       5.941   5.636  16.060  0.00  0.00    +0.000 C 
ATOM     25  N   UNL     1       4.719   5.542  16.835  0.00  0.00    +0.000 N 
ATOM     26  C   UNL     1       3.939   4.441  16.978  0.00  0.00    +0.000 A 
ATOM     27  C   UNL     1       2.903   4.848  17.799  0.00  0.00    +0.000 A 
ATOM     28 BR   UNL     1       1.529   3.726  18.399  0.00  0.00    +0.000 Br
ATOM     29  C   UNL     1       3.134   6.208  18.113  0.00  0.00    +0.000 A 
ATOM     30  N   UNL     1       4.273   6.616  17.516  0.00  0.00    +0.000 NA
ENDBRANCH  18  29
ENDBRANCH   1  22
TORSDOF 4
ENDMDL
MODEL 9
REMARK VINA RESULT:      -7.6      3.649      9.562
REMARK  Name = 
REMARK  5 active torsions:
REMARK  status: ('A' for Active; 'I' for Inactive)
REMARK    1  A    between atoms: C_1  and  N_2
REMARK    2  A    between atoms: C_6  and  C_7
REMARK    3  A    between atoms: C_11  and  N_12
REMARK    4  A    between atoms: N_12  and  C_13
REMARK    5  A    between atoms: C_19  and  C_20
REMARK                            x       y       z     vdW  Elec       q    Type
REMARK                         _______ _______ _______ _____ _____    ______ ____
ROOT
ATOM      1  N   UNL     1       1.366   8.966  19.353  0.00  0.00    +0.000 N 
ATOM      2  H   UNL     1       0.478   8.989  19.887  0.00  0.00    +0.000 HD
ENDROOT
BRANCH   1   3
ATOM      3  C   UNL     1       0.903   9.801  18.108  0.00  0.00    +0.000 A 
ATOM      4  C   UNL     1       1.750  10.911  18.096  0.00  0.00    +0.000 A 
ATOM      5  C   UNL     1       1.450  11.834  19.080  0.00  0.00    +0.000 A 
ATOM      6  N   UNL     1       0.245  11.837  19.705  0.00  0.00    +0.000 NA
ATOM      7  C   UNL     1      -0.742  11.155  19.078  0.00  0.00    +0.000 A 
ATOM      8  C   UNL     1      -2.071  11.485  19.249  0.00  0.00    +0.000 A 
ATOM      9  C   UNL     1      -3.060  11.152  18.303  0.00  0.00    +0.000 A 
ATOM     10  C   UNL     1      -2.649  10.535  17.115  0.00  0.00    +0.000 A 
ATOM     11  C   UNL     1      -1.340  10.044  17.024  0.00  0.00    +0.000 A 
ATOM     12  C   UNL     1      -0.430  10.226  18.095  0.00  0.00    +0.000 A 
BRANCH   9  13
ATOM     13  C   UNL     1      -4.443  11.505  18.650  0.00  0.00    +0.000 A 
ATOM     14  N   UNL     1      -5.471  10.987  17.996  0.00  0.00    +0.000 NA
ATOM     15  C   UNL     1      -6.656  11.447  18.505  0.00  0.00    +0.000 A 
ATOM     16  C   UNL     1      -6.534  12.322  19.556  0.00  0.00    +0.000 A 
ATOM     17  S   UNL     1      -4.876  12.606  19.897  0.00  0.00    +0.000 S 
ENDBRANCH   9  13
ENDBRANCH   1   3
BRANCH   1  22
ATOM     18  C   UNL     1       3.057   5.671  18.848  0.00  0.00    +0.000 A 
ATOM     19  C   UNL     1       2.824   5.050  20.071  0.00  0.00    +0.000 A 
ATOM     20  C   UNL     1       2.031   5.669  21.046  0.00  0.00    +0.000 A 
ATOM     21  C   UNL     1       1.458   6.930  20.825  0.00  0.00    +0.000 A 
ATOM     22  C   UNL     1       1.667   7.584  19.620  0.00  0.00    +0.000 A 
ATOM     23  C   UNL     1       2.455   6.926  18.627  0.00  0.00    +0.000 A 
BRANCH  18  29
ATOM     24  C   UNL     1       6.866   5.334  15.865  0.00  0.00    +0.000 C 
ATOM     25  N   UNL     1       5.667   4.901  16.557  0.00  0.00    +0.000 N 
ATOM     26  C   UNL     1       5.068   3.689  16.446  0.00  0.00    +0.000 A 
ATOM     27  C   UNL     1       3.974   3.759  17.289  0.00  0.00    +0.000 A 
ATOM     28 BR   UNL     1       2.787   2.343  17.598  0.00  0.00    +0.000 Br
ATOM     29  C   UNL     1       3.986   5.045  17.876  0.00  0.00    +0.000 A 
ATOM     30  N   UNL     1       5.052   5.734  17.419  0.00  0.00    +0.000 NA
ENDBRANCH  18  29
ENDBRANCH   1  22
TORSDOF 4
ENDMDL
