MODEL 1
REMARK VINA RESULT:      -8.6      0.000      0.000
REMARK  Name = 
REMARK  6 active torsions:
REMARK  status: ('A' for Active; 'I' for Inactive)
REMARK    1  A    between atoms: C_1  and  O_2
REMARK    2  A    between atoms: O_2  and  C_3
REMARK    3  A    between atoms: C_6  and  C_7
REMARK    4  A    between atoms: N_9  and  C_10
REMARK    5  A    between atoms: C_13  and  C_14
REMARK    6  A    between atoms: N_16  and  C_23
REMARK                            x       y       z     vdW  Elec       q    Type
REMARK                         _______ _______ _______ _____ _____    ______ ____
ROOT
ATOM      1  C   UNL     1       0.629   9.274  19.789  0.00  0.00    +0.000 A 
ATOM      2  C   UNL     1       0.911   9.616  18.464  0.00  0.00    +0.000 A 
ATOM      3  C   UNL     1       1.864   8.914  17.715  0.00  0.00    +0.000 A 
ATOM      4  C   UNL     1       2.574   7.853  18.284  0.00  0.00    +0.000 A 
ATOM      5  C   UNL     1       2.372   7.573  19.642  0.00  0.00    +0.000 A 
ATOM      6  C   UNL     1       1.395   8.266  20.383  0.00  0.00    +0.000 A 
ENDROOT
BRANCH   4   7
ATOM      7  C   UNL     1       3.557   7.115  17.418  0.00  0.00    +0.000 C 
ATOM      8  O   UNL     1       4.043   7.731  16.467  0.00  0.00    +0.000 OA
ATOM      9  N   UNL     1       3.877   5.782  17.706  0.00  0.00    +0.000 N 
ATOM     10  C   UNL     1       3.031   4.899  18.417  0.00  0.00    +0.000 A 
ATOM     11  C   UNL     1       1.716   4.730  18.029  0.00  0.00    +0.000 A 
ATOM     12  C   UNL     1       0.954   3.915  18.833  0.00  0.00    +0.000 A 
ATOM     13  N   UNL     1       1.420   3.332  19.953  0.00  0.00    +0.000 NA
ATOM     14  C   UNL     1       2.710   3.551  20.231  0.00  0.00    +0.000 A 
ATOM     15  N   UNL     1       3.555   4.286  19.500  0.00  0.00    +0.000 NA
BRANCH   9  16
ATOM     16  C   UNL     1       5.041   5.172  17.140  0.00  0.00    +0.000 A 
ATOM     17  C   UNL     1       4.954   4.544  15.882  0.00  0.00    +0.000 A 
ATOM     18  C   UNL     1       6.074   3.951  15.292  0.00  0.00    +0.000 A 
ATOM     19  C   UNL     1       7.297   3.963  15.959  0.00  0.00    +0.000 A 
ATOM     20  C   UNL     1       7.398   4.569  17.210  0.00  0.00    +0.000 A 
ATOM     21  C   UNL     1       6.284   5.181  17.799  0.00  0.00    +0.000 A 
ATOM     22 CL   UNL     1       6.474   5.804  19.403  0.00  0.00    +0.000 Cl
ENDBRANCH   9  16
ENDBRANCH   4   7
BRANCH   1  25
ATOM     23  C   UNL     1      -0.374  11.216  20.974  0.00  0.00    +0.000 C 
ATOM     24  O   UNL     1       0.512  12.032  20.728  0.00  0.00    +0.000 OA
ATOM     25  N   UNL     1      -0.400   9.897  20.550  0.00  0.00    +0.000 N 
ATOM     26  H   UNL     1      -1.266   9.384  20.652  0.00  0.00    +0.000 HD
BRANCH  23  30
ATOM     27  C   UNL     1      -3.725  12.907  23.072  0.00  0.00    +0.000 A 
ATOM     28  C   UNL     1      -3.521  13.151  21.716  0.00  0.00    +0.000 A 
ATOM     29  C   UNL     1      -2.445  12.561  21.051  0.00  0.00    +0.000 A 
ATOM     30  C   UNL     1      -1.551  11.726  21.738  0.00  0.00    +0.000 A 
ATOM     31  C   UNL     1      -1.737  11.499  23.101  0.00  0.00    +0.000 A 
ATOM     32  C   UNL     1      -2.829  12.091  23.768  0.00  0.00    +0.000 A 
BRANCH  27  34
ATOM     33  C   UNL     1      -5.961  12.782  23.828  0.00  0.00    +0.000 C 
ATOM     34  O   UNL     1      -4.792  13.565  23.619  0.00  0.00    +0.000 OA
ENDBRANCH  27  34
ENDBRANCH  23  30
ENDBRANCH   1  25
TORSDOF 5
ENDMDL
MODEL 2
REMARK VINA RESULT:      -8.6      0.850      1.329
REMARK  Name = 
REMARK  6 active torsions:
REMARK  status: ('A' for Active; 'I' for Inactive)
REMARK    1  A    between atoms: C_1  and  O_2
REMARK    2  A    between atoms: O_2  and  C_3
REMARK    3  A    between atoms: C_6  and  C_7
REMARK    4  A    between atoms: N_9  and  C_10
REMARK    5  A    between atoms: C_13  and  C_14
REMARK    6  A    between atoms: N_16  and  C_23
REMARK                            x       y       z     vdW  Elec       q    Type
REMARK                         _______ _______ _______ _____ _____    ______ ____
ROOT
ATOM      1  C   UNL     1       0.785   9.280  20.010  0.00  0.00    +0.000 A 
ATOM      2  C   UNL     1       1.610   8.255  20.477  0.00  0.00    +0.000 A 
ATOM      3  C   UNL     1       2.475   7.565  19.617  0.00  0.00    +0.000 A 
ATOM      4  C   UNL     1       2.525   7.879  18.257  0.00  0.00    +0.000 A 
ATOM      5  C   UNL     1       1.625   8.833  17.763  0.00  0.00    +0.000 A 
ATOM      6  C   UNL     1       0.775   9.541  18.636  0.00  0.00    +0.000 A 
ENDROOT
BRANCH   4   7
ATOM      7  C   UNL     1       3.500   7.127  17.393  0.00  0.00    +0.000 C 
ATOM      8  O   UNL     1       3.964   7.725  16.419  0.00  0.00    +0.000 OA
ATOM      9  N   UNL     1       3.837   5.805  17.708  0.00  0.00    +0.000 N 
ATOM     10  C   UNL     1       3.011   4.932  18.455  0.00  0.00    +0.000 A 
ATOM     11  C   UNL     1       1.691   4.743  18.094  0.00  0.00    +0.000 A 
ATOM     12  C   UNL     1       0.951   3.941  18.931  0.00  0.00    +0.000 A 
ATOM     13  N   UNL     1       1.440   3.390  20.057  0.00  0.00    +0.000 NA
ATOM     14  C   UNL     1       2.733   3.627  20.307  0.00  0.00    +0.000 A 
ATOM     15  N   UNL     1       3.558   4.351  19.544  0.00  0.00    +0.000 NA
BRANCH   9  16
ATOM     16  C   UNL     1       4.996   5.191  17.138  0.00  0.00    +0.000 A 
ATOM     17  C   UNL     1       4.898   4.548  15.889  0.00  0.00    +0.000 A 
ATOM     18  C   UNL     1       6.014   3.951  15.294  0.00  0.00    +0.000 A 
ATOM     19  C   UNL     1       7.243   3.974  15.948  0.00  0.00    +0.000 A 
ATOM     20  C   UNL     1       7.356   4.596  17.190  0.00  0.00    +0.000 A 
ATOM     21  C   UNL     1       6.246   5.211  17.783  0.00  0.00    +0.000 A 
ATOM     22 CL   UNL     1       6.451   5.855  19.378  0.00  0.00    +0.000 Cl
ENDBRANCH   9  16
ENDBRANCH   4   7
BRANCH   1  25
ATOM     23  C   UNL     1       0.349  11.282  21.420  0.00  0.00    +0.000 C 
ATOM     24  O   UNL     1       1.420  11.853  21.226  0.00  0.00    +0.000 OA
ATOM     25  N   UNL     1      -0.033  10.070  20.867  0.00  0.00    +0.000 N 
ATOM     26  H   UNL     1      -1.004   9.798  20.948  0.00  0.00    +0.000 HD
BRANCH  23  30
ATOM     27  C   UNL     1      -2.681  13.225  23.771  0.00  0.00    +0.000 A 
ATOM     28  C   UNL     1      -2.687  11.845  23.579  0.00  0.00    +0.000 A 
ATOM     29  C   UNL     1      -1.672  11.236  22.840  0.00  0.00    +0.000 A 
ATOM     30  C   UNL     1      -0.641  12.002  22.275  0.00  0.00    +0.000 A 
ATOM     31  C   UNL     1      -0.644  13.386  22.444  0.00  0.00    +0.000 A 
ATOM     32  C   UNL     1      -1.668  13.997  23.196  0.00  0.00    +0.000 A 
BRANCH  27  34
ATOM     33  C   UNL     1      -4.436  14.804  23.896  0.00  0.00    +0.000 C 
ATOM     34  O   UNL     1      -3.744  13.709  24.483  0.00  0.00    +0.000 OA
ENDBRANCH  27  34
ENDBRANCH  23  30
ENDBRANCH   1  25
TORSDOF 5
ENDMDL
MODEL 3
REMARK VINA RESULT:      -8.4      0.989      1.794
REMARK  Name = 
REMARK  6 active torsions:
REMARK  status: ('A' for Active; 'I' for Inactive)
REMARK    1  A    between atoms: C_1  and  O_2
REMARK    2  A    between atoms: O_2  and  C_3
REMARK    3  A    between atoms: C_6  and  C_7
REMARK    4  A    between atoms: N_9  and  C_10
REMARK    5  A    between atoms: C_13  and  C_14
REMARK    6  A    between atoms: N_16  and  C_23
REMARK                            x       y       z     vdW  Elec       q    Type
REMARK                         _______ _______ _______ _____ _____    ______ ____
ROOT
ATOM      1  C   UNL     1       0.365   9.389  19.738  0.00  0.00    +0.000 A 
ATOM      2  C   UNL     1       1.145   8.462  20.433  0.00  0.00    +0.000 A 
ATOM      3  C   UNL     1       2.210   7.793  19.814  0.00  0.00    +0.000 A 
ATOM      4  C   UNL     1       2.512   8.028  18.471  0.00  0.00    +0.000 A 
ATOM      5  C   UNL     1       1.669   8.877  17.740  0.00  0.00    +0.000 A 
ATOM      6  C   UNL     1       0.616   9.566  18.373  0.00  0.00    +0.000 A 
ENDROOT
BRANCH   4   7
ATOM      7  C   UNL     1       3.689   7.307  17.874  0.00  0.00    +0.000 C 
ATOM      8  O   UNL     1       4.305   7.884  16.975  0.00  0.00    +0.000 OA
ATOM      9  N   UNL     1       4.036   6.033  18.341  0.00  0.00    +0.000 N 
ATOM     10  C   UNL     1       3.131   5.142  18.965  0.00  0.00    +0.000 A 
ATOM     11  C   UNL     1       1.928   4.834  18.359  0.00  0.00    +0.000 A 
ATOM     12  C   UNL     1       1.083   4.026  19.083  0.00  0.00    +0.000 A 
ATOM     13  N   UNL     1       1.365   3.576  20.319  0.00  0.00    +0.000 NA
ATOM     14  C   UNL     1       2.561   3.922  20.808  0.00  0.00    +0.000 A 
ATOM     15  N   UNL     1       3.478   4.664  20.178  0.00  0.00    +0.000 NA
BRANCH   9  16
ATOM     16  C   UNL     1       5.324   5.478  18.059  0.00  0.00    +0.000 A 
ATOM     17  C   UNL     1       6.403   5.753  18.923  0.00  0.00    +0.000 A 
ATOM     18  C   UNL     1       7.671   5.215  18.687  0.00  0.00    +0.000 A 
ATOM     19  C   UNL     1       7.886   4.406  17.573  0.00  0.00    +0.000 A 
ATOM     20  C   UNL     1       6.833   4.134  16.701  0.00  0.00    +0.000 A 
ATOM     21  C   UNL     1       5.555   4.655  16.941  0.00  0.00    +0.000 A 
ATOM     22 CL   UNL     1       4.338   4.363  15.744  0.00  0.00    +0.000 Cl
ENDBRANCH   9  16
ENDBRANCH   4   7
BRANCH   1  25
ATOM     23  C   UNL     1      -0.432  11.245  21.189  0.00  0.00    +0.000 C 
ATOM     24  O   UNL     1       0.669  11.706  21.482  0.00  0.00    +0.000 OA
ATOM     25  N   UNL     1      -0.659  10.161  20.356  0.00  0.00    +0.000 N 
ATOM     26  H   UNL     1      -1.607   9.996  20.041  0.00  0.00    +0.000 HD
BRANCH  23  30
ATOM     27  C   UNL     1      -3.921  13.118  22.863  0.00  0.00    +0.000 A 
ATOM     28  C   UNL     1      -3.105  12.289  23.630  0.00  0.00    +0.000 A 
ATOM     29  C   UNL     1      -1.959  11.722  23.071  0.00  0.00    +0.000 A 
ATOM     30  C   UNL     1      -1.620  11.969  21.732  0.00  0.00    +0.000 A 
ATOM     31  C   UNL     1      -2.446  12.778  20.954  0.00  0.00    +0.000 A 
ATOM     32  C   UNL     1      -3.600  13.355  21.524  0.00  0.00    +0.000 A 
BRANCH  27  34
ATOM     33  C   UNL     1      -5.856  12.602  24.119  0.00  0.00    +0.000 C 
ATOM     34  O   UNL     1      -5.031  13.588  23.511  0.00  0.00    +0.000 OA
ENDBRANCH  27  34
ENDBRANCH  23  30
ENDBRANCH   1  25
TORSDOF 5
ENDMDL
MODEL 4
REMARK VINA RESULT:      -8.3      1.098      1.669
REMARK  Name = 
REMARK  6 active torsions:
REMARK  status: ('A' for Active; 'I' for Inactive)
REMARK    1  A    between atoms: C_1  and  O_2
REMARK    2  A    between atoms: O_2  and  C_3
REMARK    3  A    between atoms: C_6  and  C_7
REMARK    4  A    between atoms: N_9  and  C_10
REMARK    5  A    between atoms: C_13  and  C_14
REMARK    6  A    between atoms: N_16  and  C_23
REMARK                            x       y       z     vdW  Elec       q    Type
REMARK                         _______ _______ _______ _____ _____    ______ ____
ROOT
ATOM      1  C   UNL     1       0.352   9.302  19.789  0.00  0.00    +0.000 A 
ATOM      2  C   UNL     1       1.143   8.373  20.470  0.00  0.00    +0.000 A 
ATOM      3  C   UNL     1       2.220   7.733  19.844  0.00  0.00    +0.000 A 
ATOM      4  C   UNL     1       2.525   7.999  18.507  0.00  0.00    +0.000 A 
ATOM      5  C   UNL     1       1.673   8.849  17.788  0.00  0.00    +0.000 A 
ATOM      6  C   UNL     1       0.606   9.509  18.429  0.00  0.00    +0.000 A 
ENDROOT
BRANCH   4   7
ATOM      7  C   UNL     1       3.716   7.308  17.902  0.00  0.00    +0.000 C 
ATOM      8  O   UNL     1       4.346   7.924  17.039  0.00  0.00    +0.000 OA
ATOM      9  N   UNL     1       4.060   6.017  18.321  0.00  0.00    +0.000 N 
ATOM     10  C   UNL     1       3.148   5.097  18.890  0.00  0.00    +0.000 A 
ATOM     11  C   UNL     1       1.958   4.811  18.251  0.00  0.00    +0.000 A 
ATOM     12  C   UNL     1       1.104   3.969  18.924  0.00  0.00    +0.000 A 
ATOM     13  N   UNL     1       1.365   3.469  20.146  0.00  0.00    +0.000 NA
ATOM     14  C   UNL     1       2.551   3.799  20.670  0.00  0.00    +0.000 A 
ATOM     15  N   UNL     1       3.476   4.570  20.089  0.00  0.00    +0.000 NA
BRANCH   9  16
ATOM     16  C   UNL     1       5.356   5.479  18.040  0.00  0.00    +0.000 A 
ATOM     17  C   UNL     1       6.417   5.720  18.934  0.00  0.00    +0.000 A 
ATOM     18  C   UNL     1       7.692   5.197  18.699  0.00  0.00    +0.000 A 
ATOM     19  C   UNL     1       7.931   4.438  17.556  0.00  0.00    +0.000 A 
ATOM     20  C   UNL     1       6.895   4.200  16.655  0.00  0.00    +0.000 A 
ATOM     21  C   UNL     1       5.611   4.705  16.892  0.00  0.00    +0.000 A 
ATOM     22 CL   UNL     1       4.418   4.460  15.662  0.00  0.00    +0.000 Cl
ENDBRANCH   9  16
ENDBRANCH   4   7
BRANCH   1  25
ATOM     23  C   UNL     1      -0.482  11.133  21.250  0.00  0.00    +0.000 C 
ATOM     24  O   UNL     1       0.609  11.623  21.535  0.00  0.00    +0.000 OA
ATOM     25  N   UNL     1      -0.687  10.045  20.417  0.00  0.00    +0.000 N 
ATOM     26  H   UNL     1      -1.633   9.856  20.109  0.00  0.00    +0.000 HD
BRANCH  23  30
ATOM     27  C   UNL     1      -3.866  13.332  22.734  0.00  0.00    +0.000 A 
ATOM     28  C   UNL     1      -3.458  13.438  21.406  0.00  0.00    +0.000 A 
ATOM     29  C   UNL     1      -2.378  12.687  20.942  0.00  0.00    +0.000 A 
ATOM     30  C   UNL     1      -1.683  11.825  21.804  0.00  0.00    +0.000 A 
ATOM     31  C   UNL     1      -2.073  11.733  23.139  0.00  0.00    +0.000 A 
ATOM     32  C   UNL     1      -3.169  12.489  23.604  0.00  0.00    +0.000 A 
BRANCH  27  34
ATOM     33  C   UNL     1      -4.573  15.333  23.773  0.00  0.00    +0.000 C 
ATOM     34  O   UNL     1      -4.914  14.140  23.078  0.00  0.00    +0.000 OA
ENDBRANCH  27  34
ENDBRANCH  23  30
ENDBRANCH   1  25
TORSDOF 5
ENDMDL
MODEL 5
REMARK VINA RESULT:      -8.1      3.546     10.752
REMARK  Name = 
REMARK  6 active torsions:
REMARK  status: ('A' for Active; 'I' for Inactive)
REMARK    1  A    between atoms: C_1  and  O_2
REMARK    2  A    between atoms: O_2  and  C_3
REMARK    3  A    between atoms: C_6  and  C_7
REMARK    4  A    between atoms: N_9  and  C_10
REMARK    5  A    between atoms: C_13  and  C_14
REMARK    6  A    between atoms: N_16  and  C_23
REMARK                            x       y       z     vdW  Elec       q    Type
REMARK                         _______ _______ _______ _____ _____    ______ ____
ROOT
ATOM      1  C   UNL     1       1.561   8.901  18.660  0.00  0.00    +0.000 A 
ATOM      2  C   UNL     1       0.681   9.701  17.927  0.00  0.00    +0.000 A 
ATOM      3  C   UNL     1      -0.081  10.703  18.544  0.00  0.00    +0.000 A 
ATOM      4  C   UNL     1       0.011  10.920  19.920  0.00  0.00    +0.000 A 
ATOM      5  C   UNL     1       0.812  10.052  20.677  0.00  0.00    +0.000 A 
ATOM      6  C   UNL     1       1.594   9.063  20.049  0.00  0.00    +0.000 A 
ENDROOT
BRANCH   4   7
ATOM      7  C   UNL     1      -0.804  12.034  20.517  0.00  0.00    +0.000 C 
ATOM      8  O   UNL     1      -2.029  11.894  20.524  0.00  0.00    +0.000 OA
ATOM      9  N   UNL     1      -0.163  13.170  21.027  0.00  0.00    +0.000 N 
ATOM     10  C   UNL     1       1.116  13.613  20.615  0.00  0.00    +0.000 A 
ATOM     11  C   UNL     1       1.394  13.788  19.273  0.00  0.00    +0.000 A 
ATOM     12  C   UNL     1       2.688  14.139  18.970  0.00  0.00    +0.000 A 
ATOM     13  N   UNL     1       3.656  14.278  19.896  0.00  0.00    +0.000 NA
ATOM     14  C   UNL     1       3.277  14.098  21.166  0.00  0.00    +0.000 A 
ATOM     15  N   UNL     1       2.041  13.799  21.580  0.00  0.00    +0.000 NA
BRANCH   9  16
ATOM     16  C   UNL     1      -0.855  14.068  21.901  0.00  0.00    +0.000 A 
ATOM     17  C   UNL     1      -1.033  13.720  23.254  0.00  0.00    +0.000 A 
ATOM     18  C   UNL     1      -1.690  14.579  24.140  0.00  0.00    +0.000 A 
ATOM     19  C   UNL     1      -2.194  15.794  23.682  0.00  0.00    +0.000 A 
ATOM     20  C   UNL     1      -2.036  16.149  22.344  0.00  0.00    +0.000 A 
ATOM     21  C   UNL     1      -1.364  15.302  21.455  0.00  0.00    +0.000 A 
ATOM     22 CL   UNL     1      -1.320  15.769  19.788  0.00  0.00    +0.000 Cl
ENDBRANCH   9  16
ENDBRANCH   4   7
BRANCH   1  25
ATOM     23  C   UNL     1       2.665   6.675  18.564  0.00  0.00    +0.000 C 
ATOM     24  O   UNL     1       2.152   6.196  19.574  0.00  0.00    +0.000 OA
ATOM     25  N   UNL     1       2.423   7.942  18.057  0.00  0.00    +0.000 N 
ATOM     26  H   UNL     1       2.754   8.150  17.124  0.00  0.00    +0.000 HD
BRANCH  23  30
ATOM     27  C   UNL     1       5.257   4.240  16.148  0.00  0.00    +0.000 A 
ATOM     28  C   UNL     1       5.389   5.626  16.182  0.00  0.00    +0.000 A 
ATOM     29  C   UNL     1       4.557   6.390  17.001  0.00  0.00    +0.000 A 
ATOM     30  C   UNL     1       3.574   5.776  17.792  0.00  0.00    +0.000 A 
ATOM     31  C   UNL     1       3.423   4.392  17.744  0.00  0.00    +0.000 A 
ATOM     32  C   UNL     1       4.269   3.622  16.919  0.00  0.00    +0.000 A 
BRANCH  27  34
ATOM     33  C   UNL     1       6.018   4.006  13.923  0.00  0.00    +0.000 C 
ATOM     34  O   UNL     1       6.106   3.604  15.284  0.00  0.00    +0.000 OA
ENDBRANCH  27  34
ENDBRANCH  23  30
ENDBRANCH   1  25
TORSDOF 5
ENDMDL
MODEL 6
REMARK VINA RESULT:      -8.1      3.094     10.578
REMARK  Name = 
REMARK  6 active torsions:
REMARK  status: ('A' for Active; 'I' for Inactive)
REMARK    1  A    between atoms: C_1  and  O_2
REMARK    2  A    between atoms: O_2  and  C_3
REMARK    3  A    between atoms: C_6  and  C_7
REMARK    4  A    between atoms: N_9  and  C_10
REMARK    5  A    between atoms: C_13  and  C_14
REMARK    6  A    between atoms: N_16  and  C_23
REMARK                            x       y       z     vdW  Elec       q    Type
REMARK                         _______ _______ _______ _____ _____    ______ ____
ROOT
ATOM      1  C   UNL     1       2.153   8.603  18.702  0.00  0.00    +0.000 A 
ATOM      2  C   UNL     1       1.612   8.328  19.961  0.00  0.00    +0.000 A 
ATOM      3  C   UNL     1       0.672   9.180  20.554  0.00  0.00    +0.000 A 
ATOM      4  C   UNL     1       0.257  10.344  19.902  0.00  0.00    +0.000 A 
ATOM      5  C   UNL     1       0.873  10.680  18.689  0.00  0.00    +0.000 A 
ATOM      6  C   UNL     1       1.800   9.808  18.085  0.00  0.00    +0.000 A 
ENDROOT
BRANCH   4   7
ATOM      7  C   UNL     1      -0.782  11.199  20.574  0.00  0.00    +0.000 C 
ATOM      8  O   UNL     1      -0.670  11.370  21.790  0.00  0.00    +0.000 OA
ATOM      9  N   UNL     1      -1.822  11.754  19.819  0.00  0.00    +0.000 N 
ATOM     10  C   UNL     1      -2.289  11.218  18.595  0.00  0.00    +0.000 A 
ATOM     11  C   UNL     1      -2.641   9.885  18.508  0.00  0.00    +0.000 A 
ATOM     12  C   UNL     1      -3.001   9.442  17.257  0.00  0.00    +0.000 A 
ATOM     13  N   UNL     1      -2.989  10.223  16.161  0.00  0.00    +0.000 NA
ATOM     14  C   UNL     1      -2.644  11.500  16.358  0.00  0.00    +0.000 A 
ATOM     15  N   UNL     1      -2.320  12.050  17.533  0.00  0.00    +0.000 NA
BRANCH   9  16
ATOM     16  C   UNL     1      -2.606  12.833  20.338  0.00  0.00    +0.000 A 
ATOM     17  C   UNL     1      -3.922  12.587  20.775  0.00  0.00    +0.000 A 
ATOM     18  C   UNL     1      -4.711  13.614  21.302  0.00  0.00    +0.000 A 
ATOM     19  C   UNL     1      -4.201  14.908  21.384  0.00  0.00    +0.000 A 
ATOM     20  C   UNL     1      -2.905  15.171  20.945  0.00  0.00    +0.000 A 
ATOM     21  C   UNL     1      -2.103  14.143  20.433  0.00  0.00    +0.000 A 
ATOM     22 CL   UNL     1      -0.551  14.584  19.803  0.00  0.00    +0.000 Cl
ENDBRANCH   9  16
ENDBRANCH   4   7
BRANCH   1  25
ATOM     23  C   UNL     1       3.008   6.334  18.151  0.00  0.00    +0.000 C 
ATOM     24  O   UNL     1       2.212   5.691  18.832  0.00  0.00    +0.000 OA
ATOM     25  N   UNL     1       3.034   7.714  18.024  0.00  0.00    +0.000 N 
ATOM     26  H   UNL     1       3.608   8.112  17.291  0.00  0.00    +0.000 HD
BRANCH  23  30
ATOM     27  C   UNL     1       5.747   4.183  15.628  0.00  0.00    +0.000 A 
ATOM     28  C   UNL     1       5.645   5.571  15.570  0.00  0.00    +0.000 A 
ATOM     29  C   UNL     1       4.773   6.247  16.424  0.00  0.00    +0.000 A 
ATOM     30  C   UNL     1       3.982   5.541  17.343  0.00  0.00    +0.000 A 
ATOM     31  C   UNL     1       4.063   4.150  17.389  0.00  0.00    +0.000 A 
ATOM     32  C   UNL     1       4.949   3.471  16.529  0.00  0.00    +0.000 A 
BRANCH  27  34
ATOM     33  C   UNL     1       6.323   3.902  13.354  0.00  0.00    +0.000 C 
ATOM     34  O   UNL     1       6.609   3.632  14.721  0.00  0.00    +0.000 OA
ENDBRANCH  27  34
ENDBRANCH  23  30
ENDBRANCH   1  25
TORSDOF 5
ENDMDL
MODEL 7
REMARK VINA RESULT:      -8.1      3.226     10.747
REMARK  Name = 
REMARK  6 active torsions:
REMARK  status: ('A' for Active; 'I' for Inactive)
REMARK    1  A    between atoms: C_1  and  O_2
REMARK    2  A    between atoms: O_2  and  C_3
REMARK    3  A    between atoms: C_6  and  C_7
REMARK    4  A    between atoms: N_9  and  C_10
REMARK    5  A    between atoms: C_13  and  C_14
REMARK    6  A    between atoms: N_16  and  C_23
REMARK                            x       y       z     vdW  Elec       q    Type
REMARK                         _______ _______ _______ _____ _____    ______ ____
ROOT
ATOM      1  C   UNL     1       1.445   8.158  20.498  0.00  0.00    +0.000 A 
ATOM      2  C   UNL     1       0.332   7.788  21.256  0.00  0.00    +0.000 A 
ATOM      3  C   UNL     1      -0.468   8.744  21.894  0.00  0.00    +0.000 A 
ATOM      4  C   UNL     1      -0.163  10.104  21.800  0.00  0.00    +0.000 A 
ATOM      5  C   UNL     1       1.012  10.475  21.130  0.00  0.00    +0.000 A 
ATOM      6  C   UNL     1       1.799   9.512  20.470  0.00  0.00    +0.000 A 
ENDROOT
BRANCH   4   7
ATOM      7  C   UNL     1      -1.081  11.084  22.477  0.00  0.00    +0.000 C 
ATOM      8  O   UNL     1      -1.605  10.726  23.534  0.00  0.00    +0.000 OA
ATOM      9  N   UNL     1      -1.311  12.338  21.898  0.00  0.00    +0.000 N 
ATOM     10  C   UNL     1      -1.169  12.613  20.517  0.00  0.00    +0.000 A 
ATOM     11  C   UNL     1      -1.801  11.819  19.580  0.00  0.00    +0.000 A 
ATOM     12  C   UNL     1      -1.534  12.117  18.265  0.00  0.00    +0.000 A 
ATOM     13  N   UNL     1      -0.688  13.091  17.881  0.00  0.00    +0.000 NA
ATOM     14  C   UNL     1      -0.138  13.808  18.868  0.00  0.00    +0.000 A 
ATOM     15  N   UNL     1      -0.360  13.638  20.175  0.00  0.00    +0.000 NA
BRANCH   9  16
ATOM     16  C   UNL     1      -1.878  13.404  22.665  0.00  0.00    +0.000 A 
ATOM     17  C   UNL     1      -1.037  14.218  23.450  0.00  0.00    +0.000 A 
ATOM     18  C   UNL     1      -1.555  15.278  24.200  0.00  0.00    +0.000 A 
ATOM     19  C   UNL     1      -2.924  15.531  24.191  0.00  0.00    +0.000 A 
ATOM     20  C   UNL     1      -3.772  14.728  23.430  0.00  0.00    +0.000 A 
ATOM     21  C   UNL     1      -3.259  13.675  22.662  0.00  0.00    +0.000 A 
ATOM     22 CL   UNL     1      -4.397  12.659  21.843  0.00  0.00    +0.000 Cl
ENDBRANCH   9  16
ENDBRANCH   4   7
BRANCH   1  25
ATOM     23  C   UNL     1       2.600   7.397  18.432  0.00  0.00    +0.000 C 
ATOM     24  O   UNL     1       2.345   8.376  17.733  0.00  0.00    +0.000 OA
ATOM     25  N   UNL     1       2.224   7.227  19.755  0.00  0.00    +0.000 N 
ATOM     26  H   UNL     1       2.653   6.473  20.276  0.00  0.00    +0.000 HD
BRANCH  23  30
ATOM     27  C   UNL     1       5.032   4.479  16.417  0.00  0.00    +0.000 A 
ATOM     28  C   UNL     1       5.287   5.843  16.296  0.00  0.00    +0.000 A 
ATOM     29  C   UNL     1       4.504   6.767  16.989  0.00  0.00    +0.000 A 
ATOM     30  C   UNL     1       3.446   6.338  17.805  0.00  0.00    +0.000 A 
ATOM     31  C   UNL     1       3.172   4.975  17.911  0.00  0.00    +0.000 A 
ATOM     32  C   UNL     1       3.970   4.044  17.215  0.00  0.00    +0.000 A 
BRANCH  27  34
ATOM     33  C   UNL     1       6.038   4.078  14.317  0.00  0.00    +0.000 C 
ATOM     34  O   UNL     1       5.845   3.675  15.667  0.00  0.00    +0.000 OA
ENDBRANCH  27  34
ENDBRANCH  23  30
ENDBRANCH   1  25
TORSDOF 5
ENDMDL
MODEL 8
REMARK VINA RESULT:      -8.1      3.298     10.708
REMARK  Name = 
REMARK  6 active torsions:
REMARK  status: ('A' for Active; 'I' for Inactive)
REMARK    1  A    between atoms: C_1  and  O_2
REMARK    2  A    between atoms: O_2  and  C_3
REMARK    3  A    between atoms: C_6  and  C_7
REMARK    4  A    between atoms: N_9  and  C_10
REMARK    5  A    between atoms: C_13  and  C_14
REMARK    6  A    between atoms: N_16  and  C_23
REMARK                            x       y       z     vdW  Elec       q    Type
REMARK                         _______ _______ _______ _____ _____    ______ ____
ROOT
ATOM      1  C   UNL     1       1.357   8.903  18.428  0.00  0.00    +0.000 A 
ATOM      2  C   UNL     1       0.373   9.527  17.657  0.00  0.00    +0.000 A 
ATOM      3  C   UNL     1      -0.443  10.533  18.190  0.00  0.00    +0.000 A 
ATOM      4  C   UNL     1      -0.302  10.932  19.521  0.00  0.00    +0.000 A 
ATOM      5  C   UNL     1       0.611  10.239  20.328  0.00  0.00    +0.000 A 
ATOM      6  C   UNL     1       1.446   9.245  19.781  0.00  0.00    +0.000 A 
ENDROOT
BRANCH   4   7
ATOM      7  C   UNL     1      -1.182  12.043  20.024  0.00  0.00    +0.000 C 
ATOM      8  O   UNL     1      -2.399  11.905  19.881  0.00  0.00    +0.000 OA
ATOM      9  N   UNL     1      -0.608  13.174  20.618  0.00  0.00    +0.000 N 
ATOM     10  C   UNL     1       0.713  13.617  20.368  0.00  0.00    +0.000 A 
ATOM     11  C   UNL     1       1.152  13.803  19.072  0.00  0.00    +0.000 A 
ATOM     12  C   UNL     1       2.474  14.155  18.932  0.00  0.00    +0.000 A 
ATOM     13  N   UNL     1       3.321  14.284  19.969  0.00  0.00    +0.000 NA
ATOM     14  C   UNL     1       2.791  14.094  21.183  0.00  0.00    +0.000 A 
ATOM     15  N   UNL     1       1.514  13.794  21.440  0.00  0.00    +0.000 NA
BRANCH   9  16
ATOM     16  C   UNL     1      -1.399  14.065  21.409  0.00  0.00    +0.000 A 
ATOM     17  C   UNL     1      -1.673  15.361  20.930  0.00  0.00    +0.000 A 
ATOM     18  C   UNL     1      -2.456  16.253  21.669  0.00  0.00    +0.000 A 
ATOM     19  C   UNL     1      -2.965  15.868  22.908  0.00  0.00    +0.000 A 
ATOM     20  C   UNL     1      -2.694  14.594  23.401  0.00  0.00    +0.000 A 
ATOM     21  C   UNL     1      -1.925  13.688  22.659  0.00  0.00    +0.000 A 
ATOM     22 CL   UNL     1      -1.541  12.172  23.402  0.00  0.00    +0.000 Cl
ENDBRANCH   9  16
ENDBRANCH   4   7
BRANCH   1  25
ATOM     23  C   UNL     1       2.606   6.755  18.514  0.00  0.00    +0.000 C 
ATOM     24  O   UNL     1       2.145   6.342  19.576  0.00  0.00    +0.000 OA
ATOM     25  N   UNL     1       2.270   7.949  17.897  0.00  0.00    +0.000 N 
ATOM     26  H   UNL     1       2.570   8.088  16.940  0.00  0.00    +0.000 HD
BRANCH  23  30
ATOM     27  C   UNL     1       5.331   4.289  16.282  0.00  0.00    +0.000 A 
ATOM     28  C   UNL     1       5.440   5.677  16.278  0.00  0.00    +0.000 A 
ATOM     29  C   UNL     1       4.565   6.453  17.039  0.00  0.00    +0.000 A 
ATOM     30  C   UNL     1       3.559   5.848  17.808  0.00  0.00    +0.000 A 
ATOM     31  C   UNL     1       3.430   4.460  17.796  0.00  0.00    +0.000 A 
ATOM     32  C   UNL     1       4.320   3.679  17.031  0.00  0.00    +0.000 A 
BRANCH  27  34
ATOM     33  C   UNL     1       6.264   4.079  14.121  0.00  0.00    +0.000 C 
ATOM     34  O   UNL     1       6.223   3.641  15.473  0.00  0.00    +0.000 OA
ENDBRANCH  27  34
ENDBRANCH  23  30
ENDBRANCH   1  25
TORSDOF 5
ENDMDL
MODEL 9
REMARK VINA RESULT:      -8.1      3.687     10.934
REMARK  Name = 
REMARK  6 active torsions:
REMARK  status: ('A' for Active; 'I' for Inactive)
REMARK    1  A    between atoms: C_1  and  O_2
REMARK    2  A    between atoms: O_2  and  C_3
REMARK    3  A    between atoms: C_6  and  C_7
REMARK    4  A    between atoms: N_9  and  C_10
REMARK    5  A    between atoms: C_13  and  C_14
REMARK    6  A    between atoms: N_16  and  C_23
REMARK                            x       y       z     vdW  Elec       q    Type
REMARK                         _______ _______ _______ _____ _____    ______ ____
ROOT
ATOM      1  C   UNL     1       1.164   9.402  18.876  0.00  0.00    +0.000 A 
ATOM      2  C   UNL     1       0.126  10.087  18.239  0.00  0.00    +0.000 A 
ATOM      3  C   UNL     1      -0.627  11.060  18.911  0.00  0.00    +0.000 A 
ATOM      4  C   UNL     1      -0.365  11.363  20.248  0.00  0.00    +0.000 A 
ATOM      5  C   UNL     1       0.604  10.606  20.923  0.00  0.00    +0.000 A 
ATOM      6  C   UNL     1       1.374   9.647  20.237  0.00  0.00    +0.000 A 
ENDROOT
BRANCH   4   7
ATOM      7  C   UNL     1      -1.183  12.443  20.903  0.00  0.00    +0.000 C 
ATOM      8  O   UNL     1      -2.404  12.280  20.937  0.00  0.00    +0.000 OA
ATOM      9  N   UNL     1      -0.548  13.573  21.432  0.00  0.00    +0.000 N 
ATOM     10  C   UNL     1       0.712  14.052  21.002  0.00  0.00    +0.000 A 
ATOM     11  C   UNL     1       0.951  14.274  19.659  0.00  0.00    +0.000 A 
ATOM     12  C   UNL     1       2.230  14.659  19.335  0.00  0.00    +0.000 A 
ATOM     13  N   UNL     1       3.220  14.785  20.238  0.00  0.00    +0.000 NA
ATOM     14  C   UNL     1       2.879  14.557  21.512  0.00  0.00    +0.000 A 
ATOM     15  N   UNL     1       1.659  14.223  21.948  0.00  0.00    +0.000 NA
BRANCH   9  16
ATOM     16  C   UNL     1      -1.231  14.429  22.353  0.00  0.00    +0.000 A 
ATOM     17  C   UNL     1      -1.262  14.094  23.721  0.00  0.00    +0.000 A 
ATOM     18  C   UNL     1      -1.907  14.916  24.651  0.00  0.00    +0.000 A 
ATOM     19  C   UNL     1      -2.545  16.078  24.224  0.00  0.00    +0.000 A 
ATOM     20  C   UNL     1      -2.534  16.418  22.873  0.00  0.00    +0.000 A 
ATOM     21  C   UNL     1      -1.875  15.610  21.938  0.00  0.00    +0.000 A 
ATOM     22 CL   UNL     1      -2.014  16.047  20.269  0.00  0.00    +0.000 Cl
ENDBRANCH   9  16
ENDBRANCH   4   7
BRANCH   1  25
ATOM     23  C   UNL     1       2.450   7.278  18.737  0.00  0.00    +0.000 C 
ATOM     24  O   UNL     1       2.142   6.830  19.840  0.00  0.00    +0.000 OA
ATOM     25  N   UNL     1       2.014   8.480  18.202  0.00  0.00    +0.000 N 
ATOM     26  H   UNL     1       2.180   8.649  17.218  0.00  0.00    +0.000 HD
BRANCH  23  30
ATOM     27  C   UNL     1       4.945   4.609  16.471  0.00  0.00    +0.000 A 
ATOM     28  C   UNL     1       3.844   4.142  17.184  0.00  0.00    +0.000 A 
ATOM     29  C   UNL     1       3.030   5.034  17.883  0.00  0.00    +0.000 A 
ATOM     30  C   UNL     1       3.314   6.408  17.886  0.00  0.00    +0.000 A 
ATOM     31  C   UNL     1       4.429   6.878  17.193  0.00  0.00    +0.000 A 
ATOM     32  C   UNL     1       5.246   5.974  16.483  0.00  0.00    +0.000 A 
BRANCH  27  34
ATOM     33  C   UNL     1       6.234   3.986  14.590  0.00  0.00    +0.000 C 
ATOM     34  O   UNL     1       5.684   3.637  15.854  0.00  0.00    +0.000 OA
ENDBRANCH  27  34
ENDBRANCH  23  30
ENDBRANCH   1  25
TORSDOF 5
ENDMDL
