MODEL 1
REMARK VINA RESULT:      -7.5      0.000      0.000
REMARK  Name = 
REMARK  8 active torsions:
REMARK  status: ('A' for Active; 'I' for Inactive)
REMARK    1  A    between atoms: C_1  and  C_2
REMARK    2  A    between atoms: C_2  and  C_3
REMARK    3  A    between atoms: C_3  and  N_4
REMARK    4  A    between atoms: C_5  and  C_7
REMARK    5  A    between atoms: C_7  and  O_8
REMARK    6  A    between atoms: O_8  and  C_9
REMARK    7  A    between atoms: C_9  and  C_11
REMARK    8  A    between atoms: C_13  and  C_14
REMARK                            x       y       z     vdW  Elec       q    Type
REMARK                         _______ _______ _______ _____ _____    ______ ____
ROOT
ATOM      1  C   UNL     1       6.212   5.314  18.643  0.00  0.00    +0.000 C 
ATOM      2  O   UNL     1       6.702   4.945  19.699  0.00  0.00    +0.000 OA
ENDROOT
BRANCH   1   3
ATOM      3  C   UNL     1       4.756   5.498  18.383  0.00  0.00    +0.000 A 
ATOM      4  C   UNL     1       4.268   6.802  18.230  0.00  0.00    +0.000 A 
ATOM      5  C   UNL     1       2.917   6.982  18.005  0.00  0.00    +0.000 A 
ATOM      6  C   UNL     1       2.324   8.348  17.835  0.00  0.00    +0.000 C 
ATOM      7  N   UNL     1       2.056   5.944  17.932  0.00  0.00    +0.000 NA
ATOM      8  C   UNL     1       2.515   4.693  18.083  0.00  0.00    +0.000 A 
ATOM      9  C   UNL     1       1.592   3.659  17.996  0.00  0.00    +0.000 A 
ATOM     10  C   UNL     1       1.964   2.321  18.134  0.00  0.00    +0.000 A 
ATOM     11  C   UNL     1       3.292   2.002  18.363  0.00  0.00    +0.000 A 
ATOM     12  C   UNL     1       4.239   3.023  18.448  0.00  0.00    +0.000 A 
ATOM     13  C   UNL     1       3.872   4.390  18.316  0.00  0.00    +0.000 A 
ENDBRANCH   1   3
BRANCH   1  14
ATOM     14  O   UNL     1       6.917   5.599  17.518  0.00  0.00    +0.000 OA
BRANCH  14  15
ATOM     15  C   UNL     1       7.041   4.515  16.599  0.00  0.00    +0.000 C 
BRANCH  15  17
ATOM     16  N   UNL     1       6.341   3.712  14.396  0.00  0.00    +0.000 N 
ATOM     17  C   UNL     1       6.298   4.766  15.284  0.00  0.00    +0.000 C 
ATOM     18  O   UNL     1       5.719   5.825  15.053  0.00  0.00    +0.000 OA
ATOM     19  H   UNL     1       7.050   2.998  14.557  0.00  0.00    +0.000 HD
BRANCH  16  20
ATOM     20  C   UNL     1       5.727   3.785  13.087  0.00  0.00    +0.000 C 
BRANCH  20  22
ATOM     21  C   UNL     1       5.783   1.845  11.445  0.00  0.00    +0.000 C 
ATOM     22  C   UNL     1       6.523   3.049  12.009  0.00  0.00    +0.000 C 
ENDBRANCH  20  22
ENDBRANCH  16  20
ENDBRANCH  15  17
ENDBRANCH  14  15
ENDBRANCH   1  14
TORSDOF 6
ENDMDL
MODEL 2
REMARK VINA RESULT:      -7.4      1.330      1.623
REMARK  Name = 
REMARK  8 active torsions:
REMARK  status: ('A' for Active; 'I' for Inactive)
REMARK    1  A    between atoms: C_1  and  C_2
REMARK    2  A    between atoms: C_2  and  C_3
REMARK    3  A    between atoms: C_3  and  N_4
REMARK    4  A    between atoms: C_5  and  C_7
REMARK    5  A    between atoms: C_7  and  O_8
REMARK    6  A    between atoms: O_8  and  C_9
REMARK    7  A    between atoms: C_9  and  C_11
REMARK    8  A    between atoms: C_13  and  C_14
REMARK                            x       y       z     vdW  Elec       q    Type
REMARK                         _______ _______ _______ _____ _____    ______ ____
ROOT
ATOM      1  C   UNL     1       6.117   6.514  17.243  0.00  0.00    +0.000 C 
ATOM      2  O   UNL     1       7.110   6.839  17.876  0.00  0.00    +0.000 OA
ENDROOT
BRANCH   1   3
ATOM      3  C   UNL     1       4.731   6.443  17.785  0.00  0.00    +0.000 A 
ATOM      4  C   UNL     1       3.881   7.538  17.581  0.00  0.00    +0.000 A 
ATOM      5  C   UNL     1       2.599   7.486  18.095  0.00  0.00    +0.000 A 
ATOM      6  C   UNL     1       1.636   8.621  17.920  0.00  0.00    +0.000 C 
ATOM      7  N   UNL     1       2.144   6.419  18.786  0.00  0.00    +0.000 NA
ATOM      8  C   UNL     1       2.954   5.368  18.989  0.00  0.00    +0.000 A 
ATOM      9  C   UNL     1       2.440   4.294  19.702  0.00  0.00    +0.000 A 
ATOM     10  C   UNL     1       3.195   3.150  19.966  0.00  0.00    +0.000 A 
ATOM     11  C   UNL     1       4.499   3.073  19.505  0.00  0.00    +0.000 A 
ATOM     12  C   UNL     1       5.036   4.139  18.782  0.00  0.00    +0.000 A 
ATOM     13  C   UNL     1       4.279   5.310  18.512  0.00  0.00    +0.000 A 
ENDBRANCH   1   3
BRANCH   1  14
ATOM     14  O   UNL     1       6.118   6.142  15.937  0.00  0.00    +0.000 OA
BRANCH  14  15
ATOM     15  C   UNL     1       6.850   4.950  15.656  0.00  0.00    +0.000 C 
BRANCH  15  17
ATOM     16  N   UNL     1       6.364   3.747  13.581  0.00  0.00    +0.000 N 
ATOM     17  C   UNL     1       7.109   4.753  14.160  0.00  0.00    +0.000 C 
ATOM     18  O   UNL     1       7.919   5.440  13.541  0.00  0.00    +0.000 OA
ATOM     19  H   UNL     1       5.929   3.071  14.209  0.00  0.00    +0.000 HD
BRANCH  16  20
ATOM     20  C   UNL     1       6.505   3.393  12.184  0.00  0.00    +0.000 C 
BRANCH  20  22
ATOM     21  C   UNL     1       4.119   3.289  11.315  0.00  0.00    +0.000 C 
ATOM     22  C   UNL     1       5.372   2.503  11.674  0.00  0.00    +0.000 C 
ENDBRANCH  20  22
ENDBRANCH  16  20
ENDBRANCH  15  17
ENDBRANCH  14  15
ENDBRANCH   1  14
TORSDOF 6
ENDMDL
MODEL 3
REMARK VINA RESULT:      -7.4      1.756      2.255
REMARK  Name = 
REMARK  8 active torsions:
REMARK  status: ('A' for Active; 'I' for Inactive)
REMARK    1  A    between atoms: C_1  and  C_2
REMARK    2  A    between atoms: C_2  and  C_3
REMARK    3  A    between atoms: C_3  and  N_4
REMARK    4  A    between atoms: C_5  and  C_7
REMARK    5  A    between atoms: C_7  and  O_8
REMARK    6  A    between atoms: O_8  and  C_9
REMARK    7  A    between atoms: C_9  and  C_11
REMARK    8  A    between atoms: C_13  and  C_14
REMARK                            x       y       z     vdW  Elec       q    Type
REMARK                         _______ _______ _______ _____ _____    ______ ____
ROOT
ATOM      1  C   UNL     1       4.320   6.322  17.718  0.00  0.00    +0.000 C 
ATOM      2  O   UNL     1       4.212   6.937  16.669  0.00  0.00    +0.000 OA
ENDROOT
BRANCH   1   3
ATOM      3  C   UNL     1       3.201   5.998  18.649  0.00  0.00    +0.000 A 
ATOM      4  C   UNL     1       2.729   7.009  19.497  0.00  0.00    +0.000 A 
ATOM      5  C   UNL     1       1.704   6.712  20.374  0.00  0.00    +0.000 A 
ATOM      6  C   UNL     1       1.151   7.741  21.313  0.00  0.00    +0.000 C 
ATOM      7  N   UNL     1       1.148   5.484  20.440  0.00  0.00    +0.000 NA
ATOM      8  C   UNL     1       1.597   4.510  19.635  0.00  0.00    +0.000 A 
ATOM      9  C   UNL     1       0.992   3.265  19.738  0.00  0.00    +0.000 A 
ATOM     10  C   UNL     1       1.380   2.184  18.945  0.00  0.00    +0.000 A 
ATOM     11  C   UNL     1       2.399   2.348  18.022  0.00  0.00    +0.000 A 
ATOM     12  C   UNL     1       3.020   3.591  17.896  0.00  0.00    +0.000 A 
ATOM     13  C   UNL     1       2.637   4.697  18.702  0.00  0.00    +0.000 A 
ENDBRANCH   1   3
BRANCH   1  14
ATOM     14  O   UNL     1       5.487   5.848  18.224  0.00  0.00    +0.000 OA
BRANCH  14  15
ATOM     15  C   UNL     1       6.660   6.324  17.566  0.00  0.00    +0.000 C 
BRANCH  15  17
ATOM     16  N   UNL     1       6.691   5.644  15.216  0.00  0.00    +0.000 N 
ATOM     17  C   UNL     1       7.161   5.367  16.481  0.00  0.00    +0.000 C 
ATOM     18  O   UNL     1       7.916   4.430  16.735  0.00  0.00    +0.000 OA
ATOM     19  H   UNL     1       5.879   6.258  15.145  0.00  0.00    +0.000 HD
BRANCH  16  20
ATOM     20  C   UNL     1       7.027   4.821  14.073  0.00  0.00    +0.000 C 
BRANCH  20  22
ATOM     21  C   UNL     1       6.020   3.325  12.282  0.00  0.00    +0.000 C 
ATOM     22  C   UNL     1       5.940   3.806  13.724  0.00  0.00    +0.000 C 
ENDBRANCH  20  22
ENDBRANCH  16  20
ENDBRANCH  15  17
ENDBRANCH  14  15
ENDBRANCH   1  14
TORSDOF 6
ENDMDL
MODEL 4
REMARK VINA RESULT:      -7.3      1.449      1.453
REMARK  Name = 
REMARK  8 active torsions:
REMARK  status: ('A' for Active; 'I' for Inactive)
REMARK    1  A    between atoms: C_1  and  C_2
REMARK    2  A    between atoms: C_2  and  C_3
REMARK    3  A    between atoms: C_3  and  N_4
REMARK    4  A    between atoms: C_5  and  C_7
REMARK    5  A    between atoms: C_7  and  O_8
REMARK    6  A    between atoms: O_8  and  C_9
REMARK    7  A    between atoms: C_9  and  C_11
REMARK    8  A    between atoms: C_13  and  C_14
REMARK                            x       y       z     vdW  Elec       q    Type
REMARK                         _______ _______ _______ _____ _____    ______ ____
ROOT
ATOM      1  C   UNL     1       6.007   4.955  19.136  0.00  0.00    +0.000 C 
ATOM      2  O   UNL     1       6.838   5.347  19.940  0.00  0.00    +0.000 OA
ENDROOT
BRANCH   1   3
ATOM      3  C   UNL     1       4.573   5.356  19.109  0.00  0.00    +0.000 A 
ATOM      4  C   UNL     1       4.228   6.546  18.454  0.00  0.00    +0.000 A 
ATOM      5  C   UNL     1       2.902   6.934  18.439  0.00  0.00    +0.000 A 
ATOM      6  C   UNL     1       2.460   8.196  17.762  0.00  0.00    +0.000 C 
ATOM      7  N   UNL     1       1.933   6.206  19.035  0.00  0.00    +0.000 NA
ATOM      8  C   UNL     1       2.256   5.068  19.667  0.00  0.00    +0.000 A 
ATOM      9  C   UNL     1       1.225   4.353  20.262  0.00  0.00    +0.000 A 
ATOM     10  C   UNL     1       1.450   3.155  20.941  0.00  0.00    +0.000 A 
ATOM     11  C   UNL     1       2.738   2.653  21.030  0.00  0.00    +0.000 A 
ATOM     12  C   UNL     1       3.790   3.351  20.436  0.00  0.00    +0.000 A 
ATOM     13  C   UNL     1       3.574   4.575  19.747  0.00  0.00    +0.000 A 
ENDBRANCH   1   3
BRANCH   1  14
ATOM     14  O   UNL     1       6.252   4.065  18.140  0.00  0.00    +0.000 OA
BRANCH  14  15
ATOM     15  C   UNL     1       7.226   4.488  17.186  0.00  0.00    +0.000 C 
BRANCH  15  17
ATOM     16  N   UNL     1       6.319   4.065  14.953  0.00  0.00    +0.000 N 
ATOM     17  C   UNL     1       6.597   5.029  15.899  0.00  0.00    +0.000 C 
ATOM     18  O   UNL     1       6.371   6.225  15.736  0.00  0.00    +0.000 OA
ATOM     19  H   UNL     1       6.775   3.160  15.063  0.00  0.00    +0.000 HD
BRANCH  16  20
ATOM     20  C   UNL     1       5.759   4.397  13.659  0.00  0.00    +0.000 C 
BRANCH  20  22
ATOM     21  C   UNL     1       4.785   3.172  11.656  0.00  0.00    +0.000 C 
ATOM     22  C   UNL     1       5.957   3.294  12.620  0.00  0.00    +0.000 C 
ENDBRANCH  20  22
ENDBRANCH  16  20
ENDBRANCH  15  17
ENDBRANCH  14  15
ENDBRANCH   1  14
TORSDOF 6
ENDMDL
MODEL 5
REMARK VINA RESULT:      -7.3      2.394      3.239
REMARK  Name = 
REMARK  8 active torsions:
REMARK  status: ('A' for Active; 'I' for Inactive)
REMARK    1  A    between atoms: C_1  and  C_2
REMARK    2  A    between atoms: C_2  and  C_3
REMARK    3  A    between atoms: C_3  and  N_4
REMARK    4  A    between atoms: C_5  and  C_7
REMARK    5  A    between atoms: C_7  and  O_8
REMARK    6  A    between atoms: O_8  and  C_9
REMARK    7  A    between atoms: C_9  and  C_11
REMARK    8  A    between atoms: C_13  and  C_14
REMARK                            x       y       z     vdW  Elec       q    Type
REMARK                         _______ _______ _______ _____ _____    ______ ____
ROOT
ATOM      1  C   UNL     1       5.310   5.743  15.478  0.00  0.00    +0.000 C 
ATOM      2  O   UNL     1       5.104   6.900  15.146  0.00  0.00    +0.000 OA
ENDROOT
BRANCH   1   3
ATOM      3  C   UNL     1       5.549   5.273  16.872  0.00  0.00    +0.000 A 
ATOM      4  C   UNL     1       6.668   5.766  17.556  0.00  0.00    +0.000 A 
ATOM      5  C   UNL     1       6.906   5.322  18.843  0.00  0.00    +0.000 A 
ATOM      6  C   UNL     1       8.086   5.802  19.633  0.00  0.00    +0.000 C 
ATOM      7  N   UNL     1       6.098   4.432  19.457  0.00  0.00    +0.000 NA
ATOM      8  C   UNL     1       5.027   3.953  18.807  0.00  0.00    +0.000 A 
ATOM      9  C   UNL     1       4.225   3.043  19.482  0.00  0.00    +0.000 A 
ATOM     10  C   UNL     1       3.085   2.486  18.900  0.00  0.00    +0.000 A 
ATOM     11  C   UNL     1       2.732   2.847  17.610  0.00  0.00    +0.000 A 
ATOM     12  C   UNL     1       3.520   3.764  16.914  0.00  0.00    +0.000 A 
ATOM     13  C   UNL     1       4.686   4.333  17.493  0.00  0.00    +0.000 A 
ENDBRANCH   1   3
BRANCH   1  14
ATOM     14  O   UNL     1       5.376   4.691  14.622  0.00  0.00    +0.000 OA
BRANCH  14  15
ATOM     15  C   UNL     1       6.670   4.445  14.075  0.00  0.00    +0.000 C 
BRANCH  15  17
ATOM     16  N   UNL     1       5.796   2.737  12.557  0.00  0.00    +0.000 N 
ATOM     17  C   UNL     1       6.615   3.841  12.670  0.00  0.00    +0.000 C 
ATOM     18  O   UNL     1       7.256   4.310  11.732  0.00  0.00    +0.000 OA
ATOM     19  H   UNL     1       5.523   2.271  13.421  0.00  0.00    +0.000 HD
BRANCH  16  20
ATOM     20  C   UNL     1       5.651   2.012  11.312  0.00  0.00    +0.000 C 
BRANCH  20  22
ATOM     21  C   UNL     1       6.025  -0.502  11.286  0.00  0.00    +0.000 C 
ATOM     22  C   UNL     1       6.661   0.875  11.159  0.00  0.00    +0.000 C 
ENDBRANCH  20  22
ENDBRANCH  16  20
ENDBRANCH  15  17
ENDBRANCH  14  15
ENDBRANCH   1  14
TORSDOF 6
ENDMDL
MODEL 6
REMARK VINA RESULT:      -7.2      1.294      3.054
REMARK  Name = 
REMARK  8 active torsions:
REMARK  status: ('A' for Active; 'I' for Inactive)
REMARK    1  A    between atoms: C_1  and  C_2
REMARK    2  A    between atoms: C_2  and  C_3
REMARK    3  A    between atoms: C_3  and  N_4
REMARK    4  A    between atoms: C_5  and  C_7
REMARK    5  A    between atoms: C_7  and  O_8
REMARK    6  A    between atoms: O_8  and  C_9
REMARK    7  A    between atoms: C_9  and  C_11
REMARK    8  A    between atoms: C_13  and  C_14
REMARK                            x       y       z     vdW  Elec       q    Type
REMARK                         _______ _______ _______ _____ _____    ______ ____
ROOT
ATOM      1  C   UNL     1       5.786   4.241  17.692  0.00  0.00    +0.000 C 
ATOM      2  O   UNL     1       6.663   4.280  18.542  0.00  0.00    +0.000 OA
ENDROOT
BRANCH   1   3
ATOM      3  C   UNL     1       4.324   4.366  17.953  0.00  0.00    +0.000 A 
ATOM      4  C   UNL     1       3.599   3.202  18.240  0.00  0.00    +0.000 A 
ATOM      5  C   UNL     1       2.240   3.308  18.466  0.00  0.00    +0.000 A 
ATOM      6  C   UNL     1       1.400   2.106  18.775  0.00  0.00    +0.000 C 
ATOM      7  N   UNL     1       1.593   4.492  18.417  0.00  0.00    +0.000 NA
ATOM      8  C   UNL     1       2.279   5.610  18.138  0.00  0.00    +0.000 A 
ATOM      9  C   UNL     1       1.570   6.803  18.101  0.00  0.00    +0.000 A 
ATOM     10  C   UNL     1       2.188   8.023  17.824  0.00  0.00    +0.000 A 
ATOM     11  C   UNL     1       3.551   8.057  17.579  0.00  0.00    +0.000 A 
ATOM     12  C   UNL     1       4.286   6.872  17.615  0.00  0.00    +0.000 A 
ATOM     13  C   UNL     1       3.667   5.623  17.890  0.00  0.00    +0.000 A 
ENDBRANCH   1   3
BRANCH   1  14
ATOM     14  O   UNL     1       6.001   4.054  16.365  0.00  0.00    +0.000 OA
BRANCH  14  15
ATOM     15  C   UNL     1       7.156   4.712  15.847  0.00  0.00    +0.000 C 
BRANCH  15  17
ATOM     16  N   UNL     1       6.410   3.768  13.716  0.00  0.00    +0.000 N 
ATOM     17  C   UNL     1       7.188   4.735  14.316  0.00  0.00    +0.000 C 
ATOM     18  O   UNL     1       7.860   5.551  13.690  0.00  0.00    +0.000 OA
ATOM     19  H   UNL     1       6.109   2.986  14.298  0.00  0.00    +0.000 HD
BRANCH  16  20
ATOM     20  C   UNL     1       6.349   3.613  12.278  0.00  0.00    +0.000 C 
BRANCH  20  22
ATOM     21  C   UNL     1       4.095   3.178  11.187  0.00  0.00    +0.000 C 
ATOM     22  C   UNL     1       5.331   2.565  11.830  0.00  0.00    +0.000 C 
ENDBRANCH  20  22
ENDBRANCH  16  20
ENDBRANCH  15  17
ENDBRANCH  14  15
ENDBRANCH   1  14
TORSDOF 6
ENDMDL
MODEL 7
REMARK VINA RESULT:      -7.1      1.726      1.881
REMARK  Name = 
REMARK  8 active torsions:
REMARK  status: ('A' for Active; 'I' for Inactive)
REMARK    1  A    between atoms: C_1  and  C_2
REMARK    2  A    between atoms: C_2  and  C_3
REMARK    3  A    between atoms: C_3  and  N_4
REMARK    4  A    between atoms: C_5  and  C_7
REMARK    5  A    between atoms: C_7  and  O_8
REMARK    6  A    between atoms: O_8  and  C_9
REMARK    7  A    between atoms: C_9  and  C_11
REMARK    8  A    between atoms: C_13  and  C_14
REMARK                            x       y       z     vdW  Elec       q    Type
REMARK                         _______ _______ _______ _____ _____    ______ ____
ROOT
ATOM      1  C   UNL     1       4.812   4.383  16.998  0.00  0.00    +0.000 C 
ATOM      2  O   UNL     1       4.662   3.209  16.699  0.00  0.00    +0.000 OA
ENDROOT
BRANCH   1   3
ATOM      3  C   UNL     1       3.895   5.180  17.860  0.00  0.00    +0.000 A 
ATOM      4  C   UNL     1       3.622   6.505  17.493  0.00  0.00    +0.000 A 
ATOM      5  C   UNL     1       2.785   7.256  18.296  0.00  0.00    +0.000 A 
ATOM      6  C   UNL     1       2.451   8.679  17.968  0.00  0.00    +0.000 C 
ATOM      7  N   UNL     1       2.227   6.755  19.419  0.00  0.00    +0.000 NA
ATOM      8  C   UNL     1       2.488   5.490  19.780  0.00  0.00    +0.000 A 
ATOM      9  C   UNL     1       1.889   5.020  20.941  0.00  0.00    +0.000 A 
ATOM     10  C   UNL     1       2.089   3.719  21.404  0.00  0.00    +0.000 A 
ATOM     11  C   UNL     1       2.908   2.860  20.690  0.00  0.00    +0.000 A 
ATOM     12  C   UNL     1       3.517   3.308  19.517  0.00  0.00    +0.000 A 
ATOM     13  C   UNL     1       3.325   4.632  19.039  0.00  0.00    +0.000 A 
ENDBRANCH   1   3
BRANCH   1  14
ATOM     14  O   UNL     1       5.837   5.167  16.572  0.00  0.00    +0.000 OA
BRANCH  14  15
ATOM     15  C   UNL     1       6.924   4.459  15.978  0.00  0.00    +0.000 C 
BRANCH  15  17
ATOM     16  N   UNL     1       6.188   3.622  13.800  0.00  0.00    +0.000 N 
ATOM     17  C   UNL     1       6.942   4.575  14.452  0.00  0.00    +0.000 C 
ATOM     18  O   UNL     1       7.585   5.447  13.871  0.00  0.00    +0.000 OA
ATOM     19  H   UNL     1       5.915   2.799  14.336  0.00  0.00    +0.000 HD
BRANCH  16  20
ATOM     20  C   UNL     1       6.119   3.553  12.356  0.00  0.00    +0.000 C 
BRANCH  20  22
ATOM     21  C   UNL     1       6.515   1.400  11.064  0.00  0.00    +0.000 C 
ATOM     22  C   UNL     1       7.150   2.601  11.751  0.00  0.00    +0.000 C 
ENDBRANCH  20  22
ENDBRANCH  16  20
ENDBRANCH  15  17
ENDBRANCH  14  15
ENDBRANCH   1  14
TORSDOF 6
ENDMDL
MODEL 8
REMARK VINA RESULT:      -7.1      1.705      1.933
REMARK  Name = 
REMARK  8 active torsions:
REMARK  status: ('A' for Active; 'I' for Inactive)
REMARK    1  A    between atoms: C_1  and  C_2
REMARK    2  A    between atoms: C_2  and  C_3
REMARK    3  A    between atoms: C_3  and  N_4
REMARK    4  A    between atoms: C_5  and  C_7
REMARK    5  A    between atoms: C_7  and  O_8
REMARK    6  A    between atoms: O_8  and  C_9
REMARK    7  A    between atoms: C_9  and  C_11
REMARK    8  A    between atoms: C_13  and  C_14
REMARK                            x       y       z     vdW  Elec       q    Type
REMARK                         _______ _______ _______ _____ _____    ______ ____
ROOT
ATOM      1  C   UNL     1       5.414   6.237  16.935  0.00  0.00    +0.000 C 
ATOM      2  O   UNL     1       6.454   6.876  16.898  0.00  0.00    +0.000 OA
ENDROOT
BRANCH   1   3
ATOM      3  C   UNL     1       4.196   6.613  17.708  0.00  0.00    +0.000 A 
ATOM      4  C   UNL     1       3.582   7.840  17.425  0.00  0.00    +0.000 A 
ATOM      5  C   UNL     1       2.462   8.203  18.148  0.00  0.00    +0.000 A 
ATOM      6  C   UNL     1       1.756   9.502  17.903  0.00  0.00    +0.000 C 
ATOM      7  N   UNL     1       1.946   7.416  19.116  0.00  0.00    +0.000 NA
ATOM      8  C   UNL     1       2.530   6.242  19.396  0.00  0.00    +0.000 A 
ATOM      9  C   UNL     1       1.960   5.467  20.397  0.00  0.00    +0.000 A 
ATOM     10  C   UNL     1       2.487   4.227  20.764  0.00  0.00    +0.000 A 
ATOM     11  C   UNL     1       3.611   3.745  20.115  0.00  0.00    +0.000 A 
ATOM     12  C   UNL     1       4.198   4.503  19.102  0.00  0.00    +0.000 A 
ATOM     13  C   UNL     1       3.675   5.769  18.724  0.00  0.00    +0.000 A 
ENDBRANCH   1   3
BRANCH   1  14
ATOM     14  O   UNL     1       5.202   5.061  16.290  0.00  0.00    +0.000 OA
BRANCH  14  15
ATOM     15  C   UNL     1       6.387   4.338  15.961  0.00  0.00    +0.000 C 
BRANCH  15  17
ATOM     16  N   UNL     1       6.099   3.558  13.660  0.00  0.00    +0.000 N 
ATOM     17  C   UNL     1       6.757   4.450  14.480  0.00  0.00    +0.000 C 
ATOM     18  O   UNL     1       7.576   5.270  14.072  0.00  0.00    +0.000 OA
ATOM     19  H   UNL     1       5.652   2.758  14.107  0.00  0.00    +0.000 HD
BRANCH  16  20
ATOM     20  C   UNL     1       6.352   3.493  12.236  0.00  0.00    +0.000 C 
BRANCH  20  22
ATOM     21  C   UNL     1       6.924   1.336  11.018  0.00  0.00    +0.000 C 
ATOM     22  C   UNL     1       5.819   2.213  11.590  0.00  0.00    +0.000 C 
ENDBRANCH  20  22
ENDBRANCH  16  20
ENDBRANCH  15  17
ENDBRANCH  14  15
ENDBRANCH   1  14
TORSDOF 6
ENDMDL
MODEL 9
REMARK VINA RESULT:      -7.1      1.774      2.273
REMARK  Name = 
REMARK  8 active torsions:
REMARK  status: ('A' for Active; 'I' for Inactive)
REMARK    1  A    between atoms: C_1  and  C_2
REMARK    2  A    between atoms: C_2  and  C_3
REMARK    3  A    between atoms: C_3  and  N_4
REMARK    4  A    between atoms: C_5  and  C_7
REMARK    5  A    between atoms: C_7  and  O_8
REMARK    6  A    between atoms: O_8  and  C_9
REMARK    7  A    between atoms: C_9  and  C_11
REMARK    8  A    between atoms: C_13  and  C_14
REMARK                            x       y       z     vdW  Elec       q    Type
REMARK                         _______ _______ _______ _____ _____    ______ ____
ROOT
ATOM      1  C   UNL     1       5.991   5.121  16.072  0.00  0.00    +0.000 C 
ATOM      2  O   UNL     1       7.127   5.302  16.482  0.00  0.00    +0.000 OA
ENDROOT
BRANCH   1   3
ATOM      3  C   UNL     1       4.741   5.455  16.811  0.00  0.00    +0.000 A 
ATOM      4  C   UNL     1       4.404   6.806  16.969  0.00  0.00    +0.000 A 
ATOM      5  C   UNL     1       3.255   7.125  17.667  0.00  0.00    +0.000 A 
ATOM      6  C   UNL     1       2.835   8.548  17.879  0.00  0.00    +0.000 C 
ATOM      7  N   UNL     1       2.453   6.179  18.201  0.00  0.00    +0.000 NA
ATOM      8  C   UNL     1       2.771   4.884  18.058  0.00  0.00    +0.000 A 
ATOM      9  C   UNL     1       1.913   3.950  18.622  0.00  0.00    +0.000 A 
ATOM     10  C   UNL     1       2.148   2.577  18.528  0.00  0.00    +0.000 A 
ATOM     11  C   UNL     1       3.268   2.122  17.852  0.00  0.00    +0.000 A 
ATOM     12  C   UNL     1       4.142   3.042  17.272  0.00  0.00    +0.000 A 
ATOM     13  C   UNL     1       3.917   4.442  17.366  0.00  0.00    +0.000 A 
ENDBRANCH   1   3
BRANCH   1  14
ATOM     14  O   UNL     1       5.679   4.561  14.875  0.00  0.00    +0.000 OA
BRANCH  14  15
ATOM     15  C   UNL     1       6.717   4.622  13.897  0.00  0.00    +0.000 C 
BRANCH  15  17
ATOM     16  N   UNL     1       5.073   3.638  12.375  0.00  0.00    +0.000 N 
ATOM     17  C   UNL     1       6.415   3.774  12.659  0.00  0.00    +0.000 C 
ATOM     18  O   UNL     1       7.306   3.259  11.987  0.00  0.00    +0.000 OA
ATOM     19  H   UNL     1       4.414   3.868  13.120  0.00  0.00    +0.000 HD
BRANCH  16  20
ATOM     20  C   UNL     1       4.598   2.839  11.265  0.00  0.00    +0.000 C 
BRANCH  20  22
ATOM     21  C   UNL     1       3.151   4.179   9.663  0.00  0.00    +0.000 C 
ATOM     22  C   UNL     1       3.179   3.201  10.828  0.00  0.00    +0.000 C 
ENDBRANCH  20  22
ENDBRANCH  16  20
ENDBRANCH  15  17
ENDBRANCH  14  15
ENDBRANCH   1  14
TORSDOF 6
ENDMDL
