MODEL 1
REMARK VINA RESULT:      -6.0      0.000      0.000
REMARK  Name = 
REMARK  24 active torsions:
REMARK  status: ('A' for Active; 'I' for Inactive)
REMARK    1  A    between atoms: C_1  and  C_2
REMARK    2  A    between atoms: C_2  and  C_3
REMARK    3  A    between atoms: C_3  and  C_4
REMARK    4  A    between atoms: C_4  and  C_5
REMARK    5  A    between atoms: C_5  and  C_6
REMARK    6  A    between atoms: C_6  and  C_7
REMARK    7  A    between atoms: C_7  and  C_8
REMARK    8  A    between atoms: C_8  and  C_9
REMARK    9  A    between atoms: C_9  and  C_10
REMARK   10  A    between atoms: C_10  and  C_11
REMARK   11  A    between atoms: C_11  and  C_12
REMARK   12  A    between atoms: C_12  and  C_13
REMARK   13  A    between atoms: C_13  and  C_14
REMARK   14  A    between atoms: C_14  and  C_15
REMARK   15  A    between atoms: C_15  and  C_16
REMARK   16  A    between atoms: C_16  and  O_18
REMARK   17  A    between atoms: O_18  and  C_19
REMARK   18  A    between atoms: C_19  and  C_20
REMARK   19  A    between atoms: C_20  and  O_21
REMARK   20  A    between atoms: C_20  and  C_22
REMARK   21  A    between atoms: C_26  and  O_27
REMARK   22  A    between atoms: O_27  and  C_28
REMARK   23  A    between atoms: C_29  and  O_30
REMARK   24  A    between atoms: O_30  and  C_31
REMARK                            x       y       z     vdW  Elec       q    Type
REMARK                         _______ _______ _______ _____ _____    ______ ____
ROOT
ATOM      1  C   UNL     1       7.925   7.434  17.637  0.00  0.00    +0.000 C 
ATOM      2  O   UNL     1       7.588   6.985  16.547  0.00  0.00    +0.000 OA
ENDROOT
BRANCH   1   3
ATOM      3  O   UNL     1       8.099   6.695  18.748  0.00  0.00    +0.000 OA
BRANCH   3   4
ATOM      4  C   UNL     1       7.111   5.695  19.102  0.00  0.00    +0.000 C 
BRANCH   4   5
ATOM      5  C   UNL     1       6.019   5.076  18.208  0.00  0.00    +0.000 C 
BRANCH   5   6
ATOM      6  C   UNL     1       4.910   4.441  19.074  0.00  0.00    +0.000 C 
ATOM      7  O   UNL     1       4.242   5.513  19.785  0.00  0.00    +0.000 OA
ATOM      8  C   UNL     1       2.953   5.576  19.414  0.00  0.00    +0.000 C 
ATOM      9  O   UNL     1       2.130   6.427  19.841  0.00  0.00    +0.000 OA
ATOM     10  C   UNL     1       2.627   4.419  18.577  0.00  0.00    +0.000 C 
ATOM     11  C   UNL     1       3.746   3.733  18.374  0.00  0.00    +0.000 C 
BRANCH  11  12
ATOM     12  O   UNL     1       3.894   2.541  17.680  0.00  0.00    +0.000 OA
ATOM     13  C   UNL     1       3.850   1.305  18.440  0.00  0.00    +0.000 C 
ENDBRANCH  11  12
BRANCH  10  14
ATOM     14  O   UNL     1       1.403   4.020  18.089  0.00  0.00    +0.000 OA
ATOM     15  C   UNL     1       0.711   3.054  18.839  0.00  0.00    +0.000 C 
ENDBRANCH  10  14
ENDBRANCH   5   6
BRANCH   5  16
ATOM     16  O   UNL     1       6.591   4.130  17.302  0.00  0.00    +0.000 OA
ATOM     17  H   UNL     1       7.357   4.618  16.921  0.00  0.00    +0.000 HD
ENDBRANCH   5  16
ENDBRANCH   4   5
ENDBRANCH   3   4
ENDBRANCH   1   3
BRANCH   1  18
ATOM     18  C   UNL     1       8.192   8.894  17.830  0.00  0.00    +0.000 C 
BRANCH  18  19
ATOM     19  C   UNL     1       8.743   9.159  19.223  0.00  0.00    +0.000 C 
BRANCH  19  20
ATOM     20  C   UNL     1       9.435  10.514  19.278  0.00  0.00    +0.000 C 
BRANCH  20  21
ATOM     21  C   UNL     1       9.701  11.038  17.874  0.00  0.00    +0.000 C 
BRANCH  21  22
ATOM     22  C   UNL     1      11.066  11.704  17.817  0.00  0.00    +0.000 C 
BRANCH  22  23
ATOM     23  C   UNL     1      11.733  11.647  19.179  0.00  0.00    +0.000 C 
BRANCH  23  24
ATOM     24  C   UNL     1      12.332  12.999  19.519  0.00  0.00    +0.000 C 
BRANCH  24  25
ATOM     25  C   UNL     1      11.245  14.056  19.540  0.00  0.00    +0.000 C 
BRANCH  25  26
ATOM     26  C   UNL     1      10.332  13.832  20.731  0.00  0.00    +0.000 C 
BRANCH  26  27
ATOM     27  C   UNL     1       8.888  14.059  20.322  0.00  0.00    +0.000 C 
BRANCH  27  28
ATOM     28  C   UNL     1       8.818  14.414  18.849  0.00  0.00    +0.000 C 
BRANCH  28  29
ATOM     29  C   UNL     1       7.790  15.509  18.629  0.00  0.00    +0.000 C 
BRANCH  29  30
ATOM     30  C   UNL     1       6.562  14.938  17.941  0.00  0.00    +0.000 C 
BRANCH  30  32
ATOM     31  C   UNL     1       4.090  14.685  18.070  0.00  0.00    +0.000 C 
ATOM     32  C   UNL     1       5.333  15.127  18.816  0.00  0.00    +0.000 C 
ENDBRANCH  30  32
ENDBRANCH  29  30
ENDBRANCH  28  29
ENDBRANCH  27  28
ENDBRANCH  26  27
ENDBRANCH  25  26
ENDBRANCH  24  25
ENDBRANCH  23  24
ENDBRANCH  22  23
ENDBRANCH  21  22
ENDBRANCH  20  21
ENDBRANCH  19  20
ENDBRANCH  18  19
ENDBRANCH   1  18
TORSDOF 21
ENDMDL
MODEL 2
REMARK VINA RESULT:      -5.9      2.909      9.597
REMARK  Name = 
REMARK  24 active torsions:
REMARK  status: ('A' for Active; 'I' for Inactive)
REMARK    1  A    between atoms: C_1  and  C_2
REMARK    2  A    between atoms: C_2  and  C_3
REMARK    3  A    between atoms: C_3  and  C_4
REMARK    4  A    between atoms: C_4  and  C_5
REMARK    5  A    between atoms: C_5  and  C_6
REMARK    6  A    between atoms: C_6  and  C_7
REMARK    7  A    between atoms: C_7  and  C_8
REMARK    8  A    between atoms: C_8  and  C_9
REMARK    9  A    between atoms: C_9  and  C_10
REMARK   10  A    between atoms: C_10  and  C_11
REMARK   11  A    between atoms: C_11  and  C_12
REMARK   12  A    between atoms: C_12  and  C_13
REMARK   13  A    between atoms: C_13  and  C_14
REMARK   14  A    between atoms: C_14  and  C_15
REMARK   15  A    between atoms: C_15  and  C_16
REMARK   16  A    between atoms: C_16  and  O_18
REMARK   17  A    between atoms: O_18  and  C_19
REMARK   18  A    between atoms: C_19  and  C_20
REMARK   19  A    between atoms: C_20  and  O_21
REMARK   20  A    between atoms: C_20  and  C_22
REMARK   21  A    between atoms: C_26  and  O_27
REMARK   22  A    between atoms: O_27  and  C_28
REMARK   23  A    between atoms: C_29  and  O_30
REMARK   24  A    between atoms: O_30  and  C_31
REMARK                            x       y       z     vdW  Elec       q    Type
REMARK                         _______ _______ _______ _____ _____    ______ ____
ROOT
ATOM      1  C   UNL     1       7.382   6.680  18.194  0.00  0.00    +0.000 C 
ATOM      2  O   UNL     1       8.083   6.220  19.087  0.00  0.00    +0.000 OA
ENDROOT
BRANCH   1   3
ATOM      3  O   UNL     1       7.834   7.450  17.186  0.00  0.00    +0.000 OA
BRANCH   3   4
ATOM      4  C   UNL     1       7.892   8.888  17.358  0.00  0.00    +0.000 C 
BRANCH   4   5
ATOM      5  C   UNL     1       8.437   9.682  18.561  0.00  0.00    +0.000 C 
BRANCH   5   6
ATOM      6  C   UNL     1       9.241  10.908  18.075  0.00  0.00    +0.000 C 
ATOM      7  O   UNL     1       8.321  11.790  17.387  0.00  0.00    +0.000 OA
ATOM      8  C   UNL     1       8.245  12.966  18.031  0.00  0.00    +0.000 C 
ATOM      9  O   UNL     1       7.502  13.921  17.683  0.00  0.00    +0.000 OA
ATOM     10  C   UNL     1       9.264  13.017  19.082  0.00  0.00    +0.000 C 
ATOM     11  C   UNL     1       9.869  11.835  19.121  0.00  0.00    +0.000 C 
BRANCH  11  12
ATOM     12  O   UNL     1      10.929  11.453  19.931  0.00  0.00    +0.000 OA
ATOM     13  C   UNL     1      12.270  11.803  19.500  0.00  0.00    +0.000 C 
ENDBRANCH  11  12
BRANCH  10  14
ATOM     14  O   UNL     1       9.622  14.071  19.892  0.00  0.00    +0.000 OA
ATOM     15  C   UNL     1      10.422  15.068  19.309  0.00  0.00    +0.000 C 
ENDBRANCH  10  14
ENDBRANCH   5   6
BRANCH   5  16
ATOM     16  O   UNL     1       9.220   8.836  19.405  0.00  0.00    +0.000 OA
ATOM     17  H   UNL     1       9.368   8.036  18.849  0.00  0.00    +0.000 HD
ENDBRANCH   5  16
ENDBRANCH   4   5
ENDBRANCH   3   4
ENDBRANCH   1   3
BRANCH   1  18
ATOM     18  C   UNL     1       5.910   6.408  18.139  0.00  0.00    +0.000 C 
BRANCH  18  19
ATOM     19  C   UNL     1       5.500   5.954  16.746  0.00  0.00    +0.000 C 
BRANCH  19  20
ATOM     20  C   UNL     1       5.501   4.435  16.654  0.00  0.00    +0.000 C 
BRANCH  20  21
ATOM     21  C   UNL     1       4.498   3.839  17.631  0.00  0.00    +0.000 C 
BRANCH  21  22
ATOM     22  C   UNL     1       3.120   3.780  16.992  0.00  0.00    +0.000 C 
BRANCH  22  23
ATOM     23  C   UNL     1       2.208   2.871  17.797  0.00  0.00    +0.000 C 
BRANCH  23  24
ATOM     24  C   UNL     1       2.558   2.961  19.270  0.00  0.00    +0.000 C 
BRANCH  24  25
ATOM     25  C   UNL     1       1.304   3.215  20.086  0.00  0.00    +0.000 C 
BRANCH  25  26
ATOM     26  C   UNL     1       1.223   4.682  20.463  0.00  0.00    +0.000 C 
BRANCH  26  27
ATOM     27  C   UNL     1       2.601   5.314  20.374  0.00  0.00    +0.000 C 
BRANCH  27  28
ATOM     28  C   UNL     1       2.477   6.763  19.947  0.00  0.00    +0.000 C 
BRANCH  28  29
ATOM     29  C   UNL     1       2.198   6.841  18.457  0.00  0.00    +0.000 C 
BRANCH  29  30
ATOM     30  C   UNL     1       2.622   8.196  17.919  0.00  0.00    +0.000 C 
BRANCH  30  32
ATOM     31  C   UNL     1       1.044   9.851  18.900  0.00  0.00    +0.000 C 
ATOM     32  C   UNL     1       1.402   9.063  17.656  0.00  0.00    +0.000 C 
ENDBRANCH  30  32
ENDBRANCH  29  30
ENDBRANCH  28  29
ENDBRANCH  27  28
ENDBRANCH  26  27
ENDBRANCH  25  26
ENDBRANCH  24  25
ENDBRANCH  23  24
ENDBRANCH  22  23
ENDBRANCH  21  22
ENDBRANCH  20  21
ENDBRANCH  19  20
ENDBRANCH  18  19
ENDBRANCH   1  18
TORSDOF 21
ENDMDL
MODEL 3
REMARK VINA RESULT:      -5.8      5.948      9.749
REMARK  Name = 
REMARK  24 active torsions:
REMARK  status: ('A' for Active; 'I' for Inactive)
REMARK    1  A    between atoms: C_1  and  C_2
REMARK    2  A    between atoms: C_2  and  C_3
REMARK    3  A    between atoms: C_3  and  C_4
REMARK    4  A    between atoms: C_4  and  C_5
REMARK    5  A    between atoms: C_5  and  C_6
REMARK    6  A    between atoms: C_6  and  C_7
REMARK    7  A    between atoms: C_7  and  C_8
REMARK    8  A    between atoms: C_8  and  C_9
REMARK    9  A    between atoms: C_9  and  C_10
REMARK   10  A    between atoms: C_10  and  C_11
REMARK   11  A    between atoms: C_11  and  C_12
REMARK   12  A    between atoms: C_12  and  C_13
REMARK   13  A    between atoms: C_13  and  C_14
REMARK   14  A    between atoms: C_14  and  C_15
REMARK   15  A    between atoms: C_15  and  C_16
REMARK   16  A    between atoms: C_16  and  O_18
REMARK   17  A    between atoms: O_18  and  C_19
REMARK   18  A    between atoms: C_19  and  C_20
REMARK   19  A    between atoms: C_20  and  O_21
REMARK   20  A    between atoms: C_20  and  C_22
REMARK   21  A    between atoms: C_26  and  O_27
REMARK   22  A    between atoms: O_27  and  C_28
REMARK   23  A    between atoms: C_29  and  O_30
REMARK   24  A    between atoms: O_30  and  C_31
REMARK                            x       y       z     vdW  Elec       q    Type
REMARK                         _______ _______ _______ _____ _____    ______ ____
ROOT
ATOM      1  C   UNL     1       1.839   4.648  20.723  0.00  0.00    +0.000 C 
ATOM      2  O   UNL     1       2.540   4.433  21.705  0.00  0.00    +0.000 OA
ENDROOT
BRANCH   1   3
ATOM      3  O   UNL     1       1.953   5.725  19.923  0.00  0.00    +0.000 OA
BRANCH   3   4
ATOM      4  C   UNL     1       1.488   7.015  20.392  0.00  0.00    +0.000 C 
BRANCH   4   5
ATOM      5  C   UNL     1       1.880   8.413  19.876  0.00  0.00    +0.000 C 
BRANCH   5   6
ATOM      6  C   UNL     1       0.713   9.405  20.073  0.00  0.00    +0.000 C 
ATOM      7  O   UNL     1       1.074  10.297  21.156  0.00  0.00    +0.000 OA
ATOM      8  C   UNL     1       1.155  11.558  20.703  0.00  0.00    +0.000 C 
ATOM      9  O   UNL     1       1.479  12.549  21.409  0.00  0.00    +0.000 OA
ATOM     10  C   UNL     1       0.656  11.619  19.327  0.00  0.00    +0.000 C 
ATOM     11  C   UNL     1       0.379  10.379  18.939  0.00  0.00    +0.000 C 
BRANCH  11  12
ATOM     12  O   UNL     1      -0.163   9.973  17.728  0.00  0.00    +0.000 OA
ATOM     13  C   UNL     1      -1.609   9.941  17.610  0.00  0.00    +0.000 C 
ENDBRANCH  11  12
BRANCH  10  14
ATOM     14  O   UNL     1       0.442  12.721  18.530  0.00  0.00    +0.000 OA
ATOM     15  C   UNL     1      -0.785  13.386  18.694  0.00  0.00    +0.000 C 
ENDBRANCH  10  14
ENDBRANCH   5   6
BRANCH   5  16
ATOM     16  O   UNL     1       2.293   8.345  18.510  0.00  0.00    +0.000 OA
ATOM     17  H   UNL     1       2.582   9.266  18.315  0.00  0.00    +0.000 HD
ENDBRANCH   5  16
ENDBRANCH   4   5
ENDBRANCH   3   4
ENDBRANCH   1   3
BRANCH   1  18
ATOM     18  C   UNL     1       0.764   3.692  20.308  0.00  0.00    +0.000 C 
BRANCH  18  19
ATOM     19  C   UNL     1       0.855   3.397  18.818  0.00  0.00    +0.000 C 
BRANCH  19  20
ATOM     20  C   UNL     1       1.826   2.255  18.555  0.00  0.00    +0.000 C 
BRANCH  20  21
ATOM     21  C   UNL     1       2.784   2.616  17.428  0.00  0.00    +0.000 C 
BRANCH  21  22
ATOM     22  C   UNL     1       4.221   2.461  17.896  0.00  0.00    +0.000 C 
BRANCH  22  23
ATOM     23  C   UNL     1       4.601   3.613  18.809  0.00  0.00    +0.000 C 
BRANCH  23  24
ATOM     24  C   UNL     1       4.737   4.890  18.002  0.00  0.00    +0.000 C 
BRANCH  24  25
ATOM     25  C   UNL     1       5.906   4.775  17.043  0.00  0.00    +0.000 C 
BRANCH  25  26
ATOM     26  C   UNL     1       5.599   5.529  15.763  0.00  0.00    +0.000 C 
BRANCH  26  27
ATOM     27  C   UNL     1       6.463   4.999  14.633  0.00  0.00    +0.000 C 
BRANCH  27  28
ATOM     28  C   UNL     1       5.725   3.903  13.890  0.00  0.00    +0.000 C 
BRANCH  28  29
ATOM     29  C   UNL     1       6.405   3.632  12.559  0.00  0.00    +0.000 C 
BRANCH  29  30
ATOM     30  C   UNL     1       5.468   2.864  11.644  0.00  0.00    +0.000 C 
BRANCH  30  32
ATOM     31  C   UNL     1       3.266   2.915  10.487  0.00  0.00    +0.000 C 
ATOM     32  C   UNL     1       4.135   3.586  11.531  0.00  0.00    +0.000 C 
ENDBRANCH  30  32
ENDBRANCH  29  30
ENDBRANCH  28  29
ENDBRANCH  27  28
ENDBRANCH  26  27
ENDBRANCH  25  26
ENDBRANCH  24  25
ENDBRANCH  23  24
ENDBRANCH  22  23
ENDBRANCH  21  22
ENDBRANCH  20  21
ENDBRANCH  19  20
ENDBRANCH  18  19
ENDBRANCH   1  18
TORSDOF 21
ENDMDL
MODEL 4
REMARK VINA RESULT:      -5.7      5.987      9.911
REMARK  Name = 
REMARK  24 active torsions:
REMARK  status: ('A' for Active; 'I' for Inactive)
REMARK    1  A    between atoms: C_1  and  C_2
REMARK    2  A    between atoms: C_2  and  C_3
REMARK    3  A    between atoms: C_3  and  C_4
REMARK    4  A    between atoms: C_4  and  C_5
REMARK    5  A    between atoms: C_5  and  C_6
REMARK    6  A    between atoms: C_6  and  C_7
REMARK    7  A    between atoms: C_7  and  C_8
REMARK    8  A    between atoms: C_8  and  C_9
REMARK    9  A    between atoms: C_9  and  C_10
REMARK   10  A    between atoms: C_10  and  C_11
REMARK   11  A    between atoms: C_11  and  C_12
REMARK   12  A    between atoms: C_12  and  C_13
REMARK   13  A    between atoms: C_13  and  C_14
REMARK   14  A    between atoms: C_14  and  C_15
REMARK   15  A    between atoms: C_15  and  C_16
REMARK   16  A    between atoms: C_16  and  O_18
REMARK   17  A    between atoms: O_18  and  C_19
REMARK   18  A    between atoms: C_19  and  C_20
REMARK   19  A    between atoms: C_20  and  O_21
REMARK   20  A    between atoms: C_20  and  C_22
REMARK   21  A    between atoms: C_26  and  O_27
REMARK   22  A    between atoms: O_27  and  C_28
REMARK   23  A    between atoms: C_29  and  O_30
REMARK   24  A    between atoms: O_30  and  C_31
REMARK                            x       y       z     vdW  Elec       q    Type
REMARK                         _______ _______ _______ _____ _____    ______ ____
ROOT
ATOM      1  C   UNL     1       2.253   5.598  20.508  0.00  0.00    +0.000 C 
ATOM      2  O   UNL     1       3.194   4.866  20.791  0.00  0.00    +0.000 OA
ENDROOT
BRANCH   1   3
ATOM      3  O   UNL     1       2.313   6.942  20.470  0.00  0.00    +0.000 OA
BRANCH   3   4
ATOM      4  C   UNL     1       1.151   7.720  20.850  0.00  0.00    +0.000 C 
BRANCH   4   5
ATOM      5  C   UNL     1       1.091   8.957  21.768  0.00  0.00    +0.000 C 
BRANCH   5   6
ATOM      6  C   UNL     1       1.069  10.250  20.925  0.00  0.00    +0.000 C 
ATOM      7  O   UNL     1       0.910   9.866  19.537  0.00  0.00    +0.000 OA
ATOM      8  C   UNL     1      -0.242  10.358  19.055  0.00  0.00    +0.000 C 
ATOM      9  O   UNL     1      -0.665  10.163  17.885  0.00  0.00    +0.000 OA
ATOM     10  C   UNL     1      -0.834  11.273  20.034  0.00  0.00    +0.000 C 
ATOM     11  C   UNL     1      -0.082  11.240  21.129  0.00  0.00    +0.000 C 
BRANCH  11  12
ATOM     12  O   UNL     1      -0.243  11.985  22.288  0.00  0.00    +0.000 OA
ATOM     13  C   UNL     1      -1.342  11.637  23.169  0.00  0.00    +0.000 C 
ENDBRANCH  11  12
BRANCH  10  14
ATOM     14  O   UNL     1      -1.936  12.087  19.904  0.00  0.00    +0.000 OA
ATOM     15  C   UNL     1      -1.688  13.462  19.759  0.00  0.00    +0.000 C 
ENDBRANCH  10  14
ENDBRANCH   5   6
BRANCH   5  16
ATOM     16  O   UNL     1       2.180   8.945  22.693  0.00  0.00    +0.000 OA
ATOM     17  H   UNL     1       2.384   7.987  22.789  0.00  0.00    +0.000 HD
ENDBRANCH   5  16
ENDBRANCH   4   5
ENDBRANCH   3   4
ENDBRANCH   1   3
BRANCH   1  18
ATOM     18  C   UNL     1       0.908   5.040  20.159  0.00  0.00    +0.000 C 
BRANCH  18  19
ATOM     19  C   UNL     1       0.944   3.519  20.152  0.00  0.00    +0.000 C 
BRANCH  19  20
ATOM     20  C   UNL     1       1.209   2.994  18.749  0.00  0.00    +0.000 C 
BRANCH  20  21
ATOM     21  C   UNL     1       2.150   1.798  18.793  0.00  0.00    +0.000 C 
BRANCH  21  22
ATOM     22  C   UNL     1       3.410   2.097  17.999  0.00  0.00    +0.000 C 
BRANCH  22  23
ATOM     23  C   UNL     1       3.294   3.451  17.323  0.00  0.00    +0.000 C 
BRANCH  23  24
ATOM     24  C   UNL     1       4.606   4.204  17.444  0.00  0.00    +0.000 C 
BRANCH  24  25
ATOM     25  C   UNL     1       4.424   5.637  16.982  0.00  0.00    +0.000 C 
BRANCH  25  26
ATOM     26  C   UNL     1       5.234   5.880  15.722  0.00  0.00    +0.000 C 
BRANCH  26  27
ATOM     27  C   UNL     1       6.687   5.515  15.966  0.00  0.00    +0.000 C 
BRANCH  27  28
ATOM     28  C   UNL     1       7.211   4.682  14.812  0.00  0.00    +0.000 C 
BRANCH  28  29
ATOM     29  C   UNL     1       6.058   3.979  14.118  0.00  0.00    +0.000 C 
BRANCH  29  30
ATOM     30  C   UNL     1       6.256   4.017  12.613  0.00  0.00    +0.000 C 
BRANCH  30  32
ATOM     31  C   UNL     1       4.284   3.173  11.353  0.00  0.00    +0.000 C 
ATOM     32  C   UNL     1       5.618   2.799  11.967  0.00  0.00    +0.000 C 
ENDBRANCH  30  32
ENDBRANCH  29  30
ENDBRANCH  28  29
ENDBRANCH  27  28
ENDBRANCH  26  27
ENDBRANCH  25  26
ENDBRANCH  24  25
ENDBRANCH  23  24
ENDBRANCH  22  23
ENDBRANCH  21  22
ENDBRANCH  20  21
ENDBRANCH  19  20
ENDBRANCH  18  19
ENDBRANCH   1  18
TORSDOF 21
ENDMDL
MODEL 5
REMARK VINA RESULT:      -5.6      1.700      2.458
REMARK  Name = 
REMARK  24 active torsions:
REMARK  status: ('A' for Active; 'I' for Inactive)
REMARK    1  A    between atoms: C_1  and  C_2
REMARK    2  A    between atoms: C_2  and  C_3
REMARK    3  A    between atoms: C_3  and  C_4
REMARK    4  A    between atoms: C_4  and  C_5
REMARK    5  A    between atoms: C_5  and  C_6
REMARK    6  A    between atoms: C_6  and  C_7
REMARK    7  A    between atoms: C_7  and  C_8
REMARK    8  A    between atoms: C_8  and  C_9
REMARK    9  A    between atoms: C_9  and  C_10
REMARK   10  A    between atoms: C_10  and  C_11
REMARK   11  A    between atoms: C_11  and  C_12
REMARK   12  A    between atoms: C_12  and  C_13
REMARK   13  A    between atoms: C_13  and  C_14
REMARK   14  A    between atoms: C_14  and  C_15
REMARK   15  A    between atoms: C_15  and  C_16
REMARK   16  A    between atoms: C_16  and  O_18
REMARK   17  A    between atoms: O_18  and  C_19
REMARK   18  A    between atoms: C_19  and  C_20
REMARK   19  A    between atoms: C_20  and  O_21
REMARK   20  A    between atoms: C_20  and  C_22
REMARK   21  A    between atoms: C_26  and  O_27
REMARK   22  A    between atoms: O_27  and  C_28
REMARK   23  A    between atoms: C_29  and  O_30
REMARK   24  A    between atoms: O_30  and  C_31
REMARK                            x       y       z     vdW  Elec       q    Type
REMARK                         _______ _______ _______ _____ _____    ______ ____
ROOT
ATOM      1  C   UNL     1       7.136   6.143  16.694  0.00  0.00    +0.000 C 
ATOM      2  O   UNL     1       7.942   5.240  16.885  0.00  0.00    +0.000 OA
ENDROOT
BRANCH   1   3
ATOM      3  O   UNL     1       6.380   6.272  15.588  0.00  0.00    +0.000 OA
BRANCH   3   4
ATOM      4  C   UNL     1       5.191   5.457  15.437  0.00  0.00    +0.000 C 
BRANCH   4   5
ATOM      5  C   UNL     1       4.820   4.166  16.191  0.00  0.00    +0.000 C 
BRANCH   5   6
ATOM      6  C   UNL     1       4.441   4.487  17.653  0.00  0.00    +0.000 C 
ATOM      7  O   UNL     1       3.821   5.797  17.666  0.00  0.00    +0.000 OA
ATOM      8  C   UNL     1       2.550   5.699  18.088  0.00  0.00    +0.000 C 
ATOM      9  O   UNL     1       1.752   6.668  18.176  0.00  0.00    +0.000 OA
ATOM     10  C   UNL     1       2.299   4.341  18.577  0.00  0.00    +0.000 C 
ATOM     11  C   UNL     1       3.389   3.616  18.347  0.00  0.00    +0.000 C 
BRANCH  11  12
ATOM     12  O   UNL     1       3.612   2.291  18.691  0.00  0.00    +0.000 OA
ATOM     13  C   UNL     1       4.305   2.023  19.938  0.00  0.00    +0.000 C 
ENDBRANCH  11  12
BRANCH  10  14
ATOM     14  O   UNL     1       1.184   3.839  19.209  0.00  0.00    +0.000 OA
ATOM     15  C   UNL     1       1.142   3.972  20.608  0.00  0.00    +0.000 C 
ENDBRANCH  10  14
ENDBRANCH   5   6
BRANCH   5  16
ATOM     16  O   UNL     1       5.887   3.219  16.117  0.00  0.00    +0.000 OA
ATOM     17  H   UNL     1       6.068   3.158  15.150  0.00  0.00    +0.000 HD
ENDBRANCH   5  16
ENDBRANCH   4   5
ENDBRANCH   3   4
ENDBRANCH   1   3
BRANCH   1  18
ATOM     18  C   UNL     1       6.908   7.214  17.716  0.00  0.00    +0.000 C 
BRANCH  18  19
ATOM     19  C   UNL     1       7.937   8.324  17.570  0.00  0.00    +0.000 C 
BRANCH  19  20
ATOM     20  C   UNL     1       8.815   8.409  18.810  0.00  0.00    +0.000 C 
BRANCH  20  21
ATOM     21  C   UNL     1       9.054   9.862  19.198  0.00  0.00    +0.000 C 
BRANCH  21  22
ATOM     22  C   UNL     1       8.861  10.763  17.989  0.00  0.00    +0.000 C 
BRANCH  22  23
ATOM     23  C   UNL     1       9.554  12.095  18.213  0.00  0.00    +0.000 C 
BRANCH  23  24
ATOM     24  C   UNL     1      11.027  11.870  18.498  0.00  0.00    +0.000 C 
BRANCH  24  25
ATOM     25  C   UNL     1      11.870  12.628  17.491  0.00  0.00    +0.000 C 
BRANCH  25  26
ATOM     26  C   UNL     1      11.054  13.748  16.873  0.00  0.00    +0.000 C 
BRANCH  26  27
ATOM     27  C   UNL     1      11.768  15.073  17.066  0.00  0.00    +0.000 C 
BRANCH  27  28
ATOM     28  C   UNL     1      10.803  16.219  16.827  0.00  0.00    +0.000 C 
BRANCH  28  29
ATOM     29  C   UNL     1      10.252  16.715  18.152  0.00  0.00    +0.000 C 
BRANCH  29  30
ATOM     30  C   UNL     1       8.735  16.748  18.103  0.00  0.00    +0.000 C 
BRANCH  30  32
ATOM     31  C   UNL     1       7.162  14.876  17.642  0.00  0.00    +0.000 C 
ATOM     32  C   UNL     1       8.163  15.441  18.629  0.00  0.00    +0.000 C 
ENDBRANCH  30  32
ENDBRANCH  29  30
ENDBRANCH  28  29
ENDBRANCH  27  28
ENDBRANCH  26  27
ENDBRANCH  25  26
ENDBRANCH  24  25
ENDBRANCH  23  24
ENDBRANCH  22  23
ENDBRANCH  21  22
ENDBRANCH  20  21
ENDBRANCH  19  20
ENDBRANCH  18  19
ENDBRANCH   1  18
TORSDOF 21
ENDMDL
MODEL 6
REMARK VINA RESULT:      -5.6      5.122     10.584
REMARK  Name = 
REMARK  24 active torsions:
REMARK  status: ('A' for Active; 'I' for Inactive)
REMARK    1  A    between atoms: C_1  and  C_2
REMARK    2  A    between atoms: C_2  and  C_3
REMARK    3  A    between atoms: C_3  and  C_4
REMARK    4  A    between atoms: C_4  and  C_5
REMARK    5  A    between atoms: C_5  and  C_6
REMARK    6  A    between atoms: C_6  and  C_7
REMARK    7  A    between atoms: C_7  and  C_8
REMARK    8  A    between atoms: C_8  and  C_9
REMARK    9  A    between atoms: C_9  and  C_10
REMARK   10  A    between atoms: C_10  and  C_11
REMARK   11  A    between atoms: C_11  and  C_12
REMARK   12  A    between atoms: C_12  and  C_13
REMARK   13  A    between atoms: C_13  and  C_14
REMARK   14  A    between atoms: C_14  and  C_15
REMARK   15  A    between atoms: C_15  and  C_16
REMARK   16  A    between atoms: C_16  and  O_18
REMARK   17  A    between atoms: O_18  and  C_19
REMARK   18  A    between atoms: C_19  and  C_20
REMARK   19  A    between atoms: C_20  and  O_21
REMARK   20  A    between atoms: C_20  and  C_22
REMARK   21  A    between atoms: C_26  and  O_27
REMARK   22  A    between atoms: O_27  and  C_28
REMARK   23  A    between atoms: C_29  and  O_30
REMARK   24  A    between atoms: O_30  and  C_31
REMARK                            x       y       z     vdW  Elec       q    Type
REMARK                         _______ _______ _______ _____ _____    ______ ____
ROOT
ATOM      1  C   UNL     1       0.843   9.023  21.372  0.00  0.00    +0.000 C 
ATOM      2  O   UNL     1       1.639   9.619  22.088  0.00  0.00    +0.000 OA
ENDROOT
BRANCH   1   3
ATOM      3  O   UNL     1      -0.105   9.616  20.623  0.00  0.00    +0.000 OA
BRANCH   3   4
ATOM      4  C   UNL     1       0.209  10.026  19.268  0.00  0.00    +0.000 C 
BRANCH   4   5
ATOM      5  C   UNL     1       0.415  11.455  18.730  0.00  0.00    +0.000 C 
BRANCH   5   6
ATOM      6  C   UNL     1       1.684  12.083  19.345  0.00  0.00    +0.000 C 
ATOM      7  O   UNL     1       2.389  12.774  18.284  0.00  0.00    +0.000 OA
ATOM      8  C   UNL     1       2.449  14.088  18.553  0.00  0.00    +0.000 C 
ATOM      9  O   UNL     1       2.976  14.946  17.798  0.00  0.00    +0.000 OA
ATOM     10  C   UNL     1       1.962  14.333  19.913  0.00  0.00    +0.000 C 
ATOM     11  C   UNL     1       1.522  13.179  20.403  0.00  0.00    +0.000 C 
BRANCH  11  12
ATOM     12  O   UNL     1       1.020  12.936  21.673  0.00  0.00    +0.000 OA
ATOM     13  C   UNL     1      -0.290  13.470  21.997  0.00  0.00    +0.000 C 
ENDBRANCH  11  12
BRANCH  10  14
ATOM     14  O   UNL     1       1.966  15.504  20.637  0.00  0.00    +0.000 OA
ATOM     15  C   UNL     1       1.045  16.490  20.243  0.00  0.00    +0.000 C 
ENDBRANCH  10  14
ENDBRANCH   5   6
BRANCH   5  16
ATOM     16  O   UNL     1      -0.744  12.254  18.976  0.00  0.00    +0.000 OA
ATOM     17  H   UNL     1      -0.782  12.299  19.959  0.00  0.00    +0.000 HD
ENDBRANCH   5  16
ENDBRANCH   4   5
ENDBRANCH   3   4
ENDBRANCH   1   3
BRANCH   1  18
ATOM     18  C   UNL     1       0.862   7.530  21.259  0.00  0.00    +0.000 C 
BRANCH  18  19
ATOM     19  C   UNL     1       2.021   7.073  20.386  0.00  0.00    +0.000 C 
BRANCH  19  20
ATOM     20  C   UNL     1       2.362   5.616  20.665  0.00  0.00    +0.000 C 
BRANCH  20  21
ATOM     21  C   UNL     1       1.153   4.725  20.415  0.00  0.00    +0.000 C 
BRANCH  21  22
ATOM     22  C   UNL     1       1.340   3.386  21.109  0.00  0.00    +0.000 C 
BRANCH  22  23
ATOM     23  C   UNL     1       2.391   2.564  20.384  0.00  0.00    +0.000 C 
BRANCH  23  24
ATOM     24  C   UNL     1       1.852   2.103  19.042  0.00  0.00    +0.000 C 
BRANCH  24  25
ATOM     25  C   UNL     1       2.885   2.350  17.958  0.00  0.00    +0.000 C 
BRANCH  25  26
ATOM     26  C   UNL     1       2.590   3.661  17.255  0.00  0.00    +0.000 C 
BRANCH  26  27
ATOM     27  C   UNL     1       3.830   4.536  17.254  0.00  0.00    +0.000 C 
BRANCH  27  28
ATOM     28  C   UNL     1       4.856   3.977  18.221  0.00  0.00    +0.000 C 
BRANCH  28  29
ATOM     29  C   UNL     1       5.661   5.110  18.832  0.00  0.00    +0.000 C 
BRANCH  29  30
ATOM     30  C   UNL     1       7.096   5.051  18.341  0.00  0.00    +0.000 C 
BRANCH  30  32
ATOM     31  C   UNL     1       7.568   7.377  17.595  0.00  0.00    +0.000 C 
ATOM     32  C   UNL     1       7.820   6.345  18.675  0.00  0.00    +0.000 C 
ENDBRANCH  30  32
ENDBRANCH  29  30
ENDBRANCH  28  29
ENDBRANCH  27  28
ENDBRANCH  26  27
ENDBRANCH  25  26
ENDBRANCH  24  25
ENDBRANCH  23  24
ENDBRANCH  22  23
ENDBRANCH  21  22
ENDBRANCH  20  21
ENDBRANCH  19  20
ENDBRANCH  18  19
ENDBRANCH   1  18
TORSDOF 21
ENDMDL
MODEL 7
REMARK VINA RESULT:      -5.6      5.993     10.075
REMARK  Name = 
REMARK  24 active torsions:
REMARK  status: ('A' for Active; 'I' for Inactive)
REMARK    1  A    between atoms: C_1  and  C_2
REMARK    2  A    between atoms: C_2  and  C_3
REMARK    3  A    between atoms: C_3  and  C_4
REMARK    4  A    between atoms: C_4  and  C_5
REMARK    5  A    between atoms: C_5  and  C_6
REMARK    6  A    between atoms: C_6  and  C_7
REMARK    7  A    between atoms: C_7  and  C_8
REMARK    8  A    between atoms: C_8  and  C_9
REMARK    9  A    between atoms: C_9  and  C_10
REMARK   10  A    between atoms: C_10  and  C_11
REMARK   11  A    between atoms: C_11  and  C_12
REMARK   12  A    between atoms: C_12  and  C_13
REMARK   13  A    between atoms: C_13  and  C_14
REMARK   14  A    between atoms: C_14  and  C_15
REMARK   15  A    between atoms: C_15  and  C_16
REMARK   16  A    between atoms: C_16  and  O_18
REMARK   17  A    between atoms: O_18  and  C_19
REMARK   18  A    between atoms: C_19  and  C_20
REMARK   19  A    between atoms: C_20  and  O_21
REMARK   20  A    between atoms: C_20  and  C_22
REMARK   21  A    between atoms: C_26  and  O_27
REMARK   22  A    between atoms: O_27  and  C_28
REMARK   23  A    between atoms: C_29  and  O_30
REMARK   24  A    between atoms: O_30  and  C_31
REMARK                            x       y       z     vdW  Elec       q    Type
REMARK                         _______ _______ _______ _____ _____    ______ ____
ROOT
ATOM      1  C   UNL     1       2.505   6.443  19.094  0.00  0.00    +0.000 C 
ATOM      2  O   UNL     1       2.227   6.090  17.954  0.00  0.00    +0.000 OA
ENDROOT
BRANCH   1   3
ATOM      3  O   UNL     1       2.223   7.653  19.611  0.00  0.00    +0.000 OA
BRANCH   3   4
ATOM      4  C   UNL     1       1.785   8.720  18.734  0.00  0.00    +0.000 C 
BRANCH   4   5
ATOM      5  C   UNL     1       1.335  10.144  19.116  0.00  0.00    +0.000 C 
BRANCH   5   6
ATOM      6  C   UNL     1      -0.038  10.102  19.820  0.00  0.00    +0.000 C 
ATOM      7  O   UNL     1       0.173   9.594  21.161  0.00  0.00    +0.000 OA
ATOM      8  C   UNL     1      -0.170  10.526  22.064  0.00  0.00    +0.000 C 
ATOM      9  O   UNL     1      -0.068  10.382  23.310  0.00  0.00    +0.000 OA
ATOM     10  C   UNL     1      -0.823  11.649  21.386  0.00  0.00    +0.000 C 
ATOM     11  C   UNL     1      -0.771  11.422  20.078  0.00  0.00    +0.000 C 
BRANCH  11  12
ATOM     12  O   UNL     1      -1.310  12.199  19.063  0.00  0.00    +0.000 OA
ATOM     13  C   UNL     1      -0.628  13.435  18.723  0.00  0.00    +0.000 C 
ENDBRANCH  11  12
BRANCH  10  14
ATOM     14  O   UNL     1      -1.440  12.751  21.934  0.00  0.00    +0.000 OA
ATOM     15  C   UNL     1      -0.598  13.784  22.382  0.00  0.00    +0.000 C 
ENDBRANCH  10  14
ENDBRANCH   5   6
BRANCH   5  16
ATOM     16  O   UNL     1       1.314  10.988  17.964  0.00  0.00    +0.000 OA
ATOM     17  H   UNL     1       0.696  10.523  17.354  0.00  0.00    +0.000 HD
ENDBRANCH   5  16
ENDBRANCH   4   5
ENDBRANCH   3   4
ENDBRANCH   1   3
BRANCH   1  18
ATOM     18  C   UNL     1       3.200   5.521  20.047  0.00  0.00    +0.000 C 
BRANCH  18  19
ATOM     19  C   UNL     1       2.199   4.864  20.985  0.00  0.00    +0.000 C 
BRANCH  19  20
ATOM     20  C   UNL     1       0.987   4.363  20.212  0.00  0.00    +0.000 C 
BRANCH  20  21
ATOM     21  C   UNL     1       1.047   2.852  20.042  0.00  0.00    +0.000 C 
BRANCH  21  22
ATOM     22  C   UNL     1       1.417   2.503  18.610  0.00  0.00    +0.000 C 
BRANCH  22  23
ATOM     23  C   UNL     1       2.749   1.776  18.576  0.00  0.00    +0.000 C 
BRANCH  23  24
ATOM     24  C   UNL     1       3.870   2.762  18.305  0.00  0.00    +0.000 C 
BRANCH  24  25
ATOM     25  C   UNL     1       3.868   3.158  16.840  0.00  0.00    +0.000 C 
BRANCH  25  26
ATOM     26  C   UNL     1       4.721   4.396  16.639  0.00  0.00    +0.000 C 
BRANCH  26  27
ATOM     27  C   UNL     1       6.190   4.018  16.652  0.00  0.00    +0.000 C 
BRANCH  27  28
ATOM     28  C   UNL     1       6.960   4.906  15.693  0.00  0.00    +0.000 C 
BRANCH  28  29
ATOM     29  C   UNL     1       6.123   5.176  14.455  0.00  0.00    +0.000 C 
BRANCH  29  30
ATOM     30  C   UNL     1       6.563   4.264  13.323  0.00  0.00    +0.000 C 
BRANCH  30  32
ATOM     31  C   UNL     1       4.910   3.387  11.683  0.00  0.00    +0.000 C 
ATOM     32  C   UNL     1       5.506   3.202  13.063  0.00  0.00    +0.000 C 
ENDBRANCH  30  32
ENDBRANCH  29  30
ENDBRANCH  28  29
ENDBRANCH  27  28
ENDBRANCH  26  27
ENDBRANCH  25  26
ENDBRANCH  24  25
ENDBRANCH  23  24
ENDBRANCH  22  23
ENDBRANCH  21  22
ENDBRANCH  20  21
ENDBRANCH  19  20
ENDBRANCH  18  19
ENDBRANCH   1  18
TORSDOF 21
ENDMDL
MODEL 8
REMARK VINA RESULT:      -5.5      1.165      1.827
REMARK  Name = 
REMARK  24 active torsions:
REMARK  status: ('A' for Active; 'I' for Inactive)
REMARK    1  A    between atoms: C_1  and  C_2
REMARK    2  A    between atoms: C_2  and  C_3
REMARK    3  A    between atoms: C_3  and  C_4
REMARK    4  A    between atoms: C_4  and  C_5
REMARK    5  A    between atoms: C_5  and  C_6
REMARK    6  A    between atoms: C_6  and  C_7
REMARK    7  A    between atoms: C_7  and  C_8
REMARK    8  A    between atoms: C_8  and  C_9
REMARK    9  A    between atoms: C_9  and  C_10
REMARK   10  A    between atoms: C_10  and  C_11
REMARK   11  A    between atoms: C_11  and  C_12
REMARK   12  A    between atoms: C_12  and  C_13
REMARK   13  A    between atoms: C_13  and  C_14
REMARK   14  A    between atoms: C_14  and  C_15
REMARK   15  A    between atoms: C_15  and  C_16
REMARK   16  A    between atoms: C_16  and  O_18
REMARK   17  A    between atoms: O_18  and  C_19
REMARK   18  A    between atoms: C_19  and  C_20
REMARK   19  A    between atoms: C_20  and  O_21
REMARK   20  A    between atoms: C_20  and  C_22
REMARK   21  A    between atoms: C_26  and  O_27
REMARK   22  A    between atoms: O_27  and  C_28
REMARK   23  A    between atoms: C_29  and  O_30
REMARK   24  A    between atoms: O_30  and  C_31
REMARK                            x       y       z     vdW  Elec       q    Type
REMARK                         _______ _______ _______ _____ _____    ______ ____
ROOT
ATOM      1  C   UNL     1       7.835   7.155  17.802  0.00  0.00    +0.000 C 
ATOM      2  O   UNL     1       8.171   6.688  18.884  0.00  0.00    +0.000 OA
ENDROOT
BRANCH   1   3
ATOM      3  O   UNL     1       7.415   6.427  16.751  0.00  0.00    +0.000 OA
BRANCH   3   4
ATOM      4  C   UNL     1       6.010   6.091  16.632  0.00  0.00    +0.000 C 
BRANCH   4   5
ATOM      5  C   UNL     1       5.284   4.833  17.146  0.00  0.00    +0.000 C 
BRANCH   5   6
ATOM      6  C   UNL     1       5.087   4.913  18.675  0.00  0.00    +0.000 C 
ATOM      7  O   UNL     1       4.405   6.158  18.963  0.00  0.00    +0.000 OA
ATOM      8  C   UNL     1       3.209   5.908  19.521  0.00  0.00    +0.000 C 
ATOM      9  O   UNL     1       2.380   6.794  19.853  0.00  0.00    +0.000 OA
ATOM     10  C   UNL     1       3.099   4.479  19.824  0.00  0.00    +0.000 C 
ATOM     11  C   UNL     1       4.186   3.877  19.354  0.00  0.00    +0.000 C 
BRANCH  11  12
ATOM     12  O   UNL     1       4.523   2.535  19.462  0.00  0.00    +0.000 OA
ATOM     13  C   UNL     1       3.816   1.589  18.619  0.00  0.00    +0.000 C 
ENDBRANCH  11  12
BRANCH  10  14
ATOM     14  O   UNL     1       2.107   3.812  20.507  0.00  0.00    +0.000 OA
ATOM     15  C   UNL     1       0.915   3.569  19.804  0.00  0.00    +0.000 C 
ENDBRANCH  10  14
ENDBRANCH   5   6
BRANCH   5  16
ATOM     16  O   UNL     1       5.997   3.654  16.764  0.00  0.00    +0.000 OA
ATOM     17  H   UNL     1       6.598   3.974  16.052  0.00  0.00    +0.000 HD
ENDBRANCH   5  16
ENDBRANCH   4   5
ENDBRANCH   3   4
ENDBRANCH   1   3
BRANCH   1  18
ATOM     18  C   UNL     1       7.855   8.631  17.550  0.00  0.00    +0.000 C 
BRANCH  18  19
ATOM     19  C   UNL     1       8.723   9.340  18.579  0.00  0.00    +0.000 C 
BRANCH  19  20
ATOM     20  C   UNL     1       8.876  10.813  18.230  0.00  0.00    +0.000 C 
BRANCH  20  21
ATOM     21  C   UNL     1      10.331  11.245  18.353  0.00  0.00    +0.000 C 
BRANCH  21  22
ATOM     22  C   UNL     1      10.735  11.299  19.817  0.00  0.00    +0.000 C 
BRANCH  22  23
ATOM     23  C   UNL     1      11.139  12.712  20.197  0.00  0.00    +0.000 C 
BRANCH  23  24
ATOM     24  C   UNL     1      10.011  13.387  20.955  0.00  0.00    +0.000 C 
BRANCH  24  25
ATOM     25  C   UNL     1       9.319  14.398  20.060  0.00  0.00    +0.000 C 
BRANCH  25  26
ATOM     26  C   UNL     1       8.000  14.818  20.681  0.00  0.00    +0.000 C 
BRANCH  26  27
ATOM     27  C   UNL     1       6.936  14.928  19.604  0.00  0.00    +0.000 C 
BRANCH  27  28
ATOM     28  C   UNL     1       5.697  15.597  20.169  0.00  0.00    +0.000 C 
BRANCH  28  29
ATOM     29  C   UNL     1       4.923  16.276  19.054  0.00  0.00    +0.000 C 
BRANCH  29  30
ATOM     30  C   UNL     1       4.674  15.295  17.922  0.00  0.00    +0.000 C 
BRANCH  30  32
ATOM     31  C   UNL     1       2.931  13.571  18.350  0.00  0.00    +0.000 C 
ATOM     32  C   UNL     1       3.193  14.968  17.825  0.00  0.00    +0.000 C 
ENDBRANCH  30  32
ENDBRANCH  29  30
ENDBRANCH  28  29
ENDBRANCH  27  28
ENDBRANCH  26  27
ENDBRANCH  25  26
ENDBRANCH  24  25
ENDBRANCH  23  24
ENDBRANCH  22  23
ENDBRANCH  21  22
ENDBRANCH  20  21
ENDBRANCH  19  20
ENDBRANCH  18  19
ENDBRANCH   1  18
TORSDOF 21
ENDMDL
MODEL 9
REMARK VINA RESULT:      -5.5      6.076     10.192
REMARK  Name = 
REMARK  24 active torsions:
REMARK  status: ('A' for Active; 'I' for Inactive)
REMARK    1  A    between atoms: C_1  and  C_2
REMARK    2  A    between atoms: C_2  and  C_3
REMARK    3  A    between atoms: C_3  and  C_4
REMARK    4  A    between atoms: C_4  and  C_5
REMARK    5  A    between atoms: C_5  and  C_6
REMARK    6  A    between atoms: C_6  and  C_7
REMARK    7  A    between atoms: C_7  and  C_8
REMARK    8  A    between atoms: C_8  and  C_9
REMARK    9  A    between atoms: C_9  and  C_10
REMARK   10  A    between atoms: C_10  and  C_11
REMARK   11  A    between atoms: C_11  and  C_12
REMARK   12  A    between atoms: C_12  and  C_13
REMARK   13  A    between atoms: C_13  and  C_14
REMARK   14  A    between atoms: C_14  and  C_15
REMARK   15  A    between atoms: C_15  and  C_16
REMARK   16  A    between atoms: C_16  and  O_18
REMARK   17  A    between atoms: O_18  and  C_19
REMARK   18  A    between atoms: C_19  and  C_20
REMARK   19  A    between atoms: C_20  and  O_21
REMARK   20  A    between atoms: C_20  and  C_22
REMARK   21  A    between atoms: C_26  and  O_27
REMARK   22  A    between atoms: O_27  and  C_28
REMARK   23  A    between atoms: C_29  and  O_30
REMARK   24  A    between atoms: O_30  and  C_31
REMARK                            x       y       z     vdW  Elec       q    Type
REMARK                         _______ _______ _______ _____ _____    ______ ____
ROOT
ATOM      1  C   UNL     1       2.757   7.237  18.161  0.00  0.00    +0.000 C 
ATOM      2  O   UNL     1       3.968   7.166  17.992  0.00  0.00    +0.000 OA
ENDROOT
BRANCH   1   3
ATOM      3  O   UNL     1       1.959   8.169  17.607  0.00  0.00    +0.000 OA
BRANCH   3   4
ATOM      4  C   UNL     1       1.764   9.436  18.285  0.00  0.00    +0.000 C 
BRANCH   4   5
ATOM      5  C   UNL     1       0.550   9.894  19.116  0.00  0.00    +0.000 C 
BRANCH   5   6
ATOM      6  C   UNL     1      -0.366  10.805  18.272  0.00  0.00    +0.000 C 
ATOM      7  O   UNL     1      -1.223   9.948  17.477  0.00  0.00    +0.000 OA
ATOM      8  C   UNL     1      -2.507  10.143  17.817  0.00  0.00    +0.000 C 
ATOM      9  O   UNL     1      -3.478   9.518  17.316  0.00  0.00    +0.000 OA
ATOM     10  C   UNL     1      -2.607  11.290  18.722  0.00  0.00    +0.000 C 
ATOM     11  C   UNL     1      -1.375  11.704  18.994  0.00  0.00    +0.000 C 
BRANCH  11  12
ATOM     12  O   UNL     1      -0.999  12.792  19.769  0.00  0.00    +0.000 OA
ATOM     13  C   UNL     1      -1.312  12.753  21.186  0.00  0.00    +0.000 C 
ENDBRANCH  11  12
BRANCH  10  14
ATOM     14  O   UNL     1      -3.734  11.913  19.211  0.00  0.00    +0.000 OA
ATOM     15  C   UNL     1      -4.910  11.767  18.456  0.00  0.00    +0.000 C 
ENDBRANCH  10  14
ENDBRANCH   5   6
BRANCH   5  16
ATOM     16  O   UNL     1       0.981  10.541  20.315  0.00  0.00    +0.000 OA
ATOM     17  H   UNL     1       0.138  10.704  20.799  0.00  0.00    +0.000 HD
ENDBRANCH   5  16
ENDBRANCH   4   5
ENDBRANCH   3   4
ENDBRANCH   1   3
BRANCH   1  18
ATOM     18  C   UNL     1       2.031   6.250  19.023  0.00  0.00    +0.000 C 
BRANCH  18  19
ATOM     19  C   UNL     1       2.986   5.592  20.007  0.00  0.00    +0.000 C 
BRANCH  19  20
ATOM     20  C   UNL     1       2.220   4.763  21.027  0.00  0.00    +0.000 C 
BRANCH  20  21
ATOM     21  C   UNL     1       1.007   4.107  20.382  0.00  0.00    +0.000 C 
BRANCH  21  22
ATOM     22  C   UNL     1       1.284   2.634  20.131  0.00  0.00    +0.000 C 
BRANCH  22  23
ATOM     23  C   UNL     1       2.763   2.342  20.308  0.00  0.00    +0.000 C 
BRANCH  23  24
ATOM     24  C   UNL     1       3.395   2.035  18.963  0.00  0.00    +0.000 C 
BRANCH  24  25
ATOM     25  C   UNL     1       2.377   2.232  17.856  0.00  0.00    +0.000 C 
BRANCH  25  26
ATOM     26  C   UNL     1       2.861   3.302  16.896  0.00  0.00    +0.000 C 
BRANCH  26  27
ATOM     27  C   UNL     1       4.293   3.681  17.225  0.00  0.00    +0.000 C 
BRANCH  27  28
ATOM     28  C   UNL     1       4.827   4.637  16.176  0.00  0.00    +0.000 C 
BRANCH  28  29
ATOM     29  C   UNL     1       6.340   4.718  16.274  0.00  0.00    +0.000 C 
BRANCH  29  30
ATOM     30  C   UNL     1       6.960   4.522  14.902  0.00  0.00    +0.000 C 
BRANCH  30  32
ATOM     31  C   UNL     1       6.535   3.757  12.573  0.00  0.00    +0.000 C 
ATOM     32  C   UNL     1       5.991   3.791  13.986  0.00  0.00    +0.000 C 
ENDBRANCH  30  32
ENDBRANCH  29  30
ENDBRANCH  28  29
ENDBRANCH  27  28
ENDBRANCH  26  27
ENDBRANCH  25  26
ENDBRANCH  24  25
ENDBRANCH  23  24
ENDBRANCH  22  23
ENDBRANCH  21  22
ENDBRANCH  20  21
ENDBRANCH  19  20
ENDBRANCH  18  19
ENDBRANCH   1  18
TORSDOF 21
ENDMDL
