MODEL 1
REMARK VINA RESULT:      -8.1      0.000      0.000
REMARK  Name = 
REMARK  3 active torsions:
REMARK  status: ('A' for Active; 'I' for Inactive)
REMARK    1  A    between atoms: C_2  and  O_3
REMARK    2  A    between atoms: O_3  and  C_4
REMARK    3  A    between atoms: C_4  and  C_5
REMARK                            x       y       z     vdW  Elec       q    Type
REMARK                         _______ _______ _______ _____ _____    ______ ____
ROOT
ATOM      1  O   UNL     1       2.142   8.713  17.331  0.00  0.00    +0.000 OA
ATOM      2  C   UNL     1       1.863   8.532  18.513  0.00  0.00    +0.000 C 
ATOM      3  N   UNL     1       0.940   9.317  19.220  0.00  0.00    +0.000 N 
ATOM      4  C   UNL     1       0.815   9.220  20.605  0.00  0.00    +0.000 C 
ATOM      5  C   UNL     1       0.535  10.310  21.346  0.00  0.00    +0.000 C 
ATOM      6  C   UNL     1       0.405  11.675  20.688  0.00  0.00    +0.000 C 
ATOM      7  C   UNL     1       1.237  11.697  19.380  0.00  0.00    +0.000 C 
ATOM      8  C   UNL     1       0.515  10.588  18.580  0.00  0.00    +0.000 C 
ATOM      9  C   UNL     1      -0.922  11.031  18.847  0.00  0.00    +0.000 A 
ATOM     10  C   UNL     1      -2.073  10.921  18.090  0.00  0.00    +0.000 A 
ATOM     11 CL   UNL     1      -2.102  10.018  16.628  0.00  0.00    +0.000 Cl
ATOM     12  C   UNL     1      -3.229  11.586  18.518  0.00  0.00    +0.000 A 
ATOM     13  C   UNL     1      -3.230  12.347  19.702  0.00  0.00    +0.000 A 
ATOM     14  C   UNL     1      -2.085  12.427  20.494  0.00  0.00    +0.000 A 
ATOM     15  C   UNL     1      -0.954  11.763  20.054  0.00  0.00    +0.000 A 
ENDROOT
BRANCH   2  16
ATOM     16  O   UNL     1       2.511   7.625  19.304  0.00  0.00    +0.000 OA
BRANCH  16  17
ATOM     17  C   UNL     1       3.094   6.490  18.644  0.00  0.00    +0.000 C 
BRANCH  17  18
ATOM     18  C   UNL     1       2.311   5.248  19.006  0.00  0.00    +0.000 A 
ATOM     19  C   UNL     1       1.939   4.319  18.023  0.00  0.00    +0.000 A 
ATOM     20  C   UNL     1       1.211   3.173  18.363  0.00  0.00    +0.000 A 
ATOM     21  C   UNL     1       0.844   2.946  19.689  0.00  0.00    +0.000 A 
ATOM     22  C   UNL     1       1.207   3.862  20.675  0.00  0.00    +0.000 A 
ATOM     23  C   UNL     1       1.934   5.007  20.336  0.00  0.00    +0.000 A 
ENDBRANCH  17  18
ENDBRANCH  16  17
ENDBRANCH   2  16
TORSDOF 3
ENDMDL
MODEL 2
REMARK VINA RESULT:      -8.1      0.052      1.007
REMARK  Name = 
REMARK  3 active torsions:
REMARK  status: ('A' for Active; 'I' for Inactive)
REMARK    1  A    between atoms: C_2  and  O_3
REMARK    2  A    between atoms: O_3  and  C_4
REMARK    3  A    between atoms: C_4  and  C_5
REMARK                            x       y       z     vdW  Elec       q    Type
REMARK                         _______ _______ _______ _____ _____    ______ ____
ROOT
ATOM      1  O   UNL     1       2.157   8.770  17.368  0.00  0.00    +0.000 OA
ATOM      2  C   UNL     1       1.867   8.576  18.544  0.00  0.00    +0.000 C 
ATOM      3  N   UNL     1       0.930   9.349  19.248  0.00  0.00    +0.000 N 
ATOM      4  C   UNL     1       0.791   9.238  20.632  0.00  0.00    +0.000 C 
ATOM      5  C   UNL     1       0.495  10.319  21.379  0.00  0.00    +0.000 C 
ATOM      6  C   UNL     1       0.362  11.689  20.732  0.00  0.00    +0.000 C 
ATOM      7  C   UNL     1       1.208  11.729  19.433  0.00  0.00    +0.000 C 
ATOM      8  C   UNL     1       0.503  10.622  18.616  0.00  0.00    +0.000 C 
ATOM      9  C   UNL     1      -0.940  11.052  18.872  0.00  0.00    +0.000 A 
ATOM     10  C   UNL     1      -2.082  10.940  18.101  0.00  0.00    +0.000 A 
ATOM     11 CL   UNL     1      -2.089  10.051  16.631  0.00  0.00    +0.000 Cl
ATOM     12  C   UNL     1      -3.247  11.593  18.523  0.00  0.00    +0.000 A 
ATOM     13  C   UNL     1      -3.266  12.344  19.713  0.00  0.00    +0.000 A 
ATOM     14  C   UNL     1      -2.131  12.424  20.518  0.00  0.00    +0.000 A 
ATOM     15  C   UNL     1      -0.991  11.773  20.085  0.00  0.00    +0.000 A 
ENDROOT
BRANCH   2  16
ATOM     16  O   UNL     1       2.513   7.667  19.335  0.00  0.00    +0.000 OA
BRANCH  16  17
ATOM     17  C   UNL     1       3.099   6.536  18.672  0.00  0.00    +0.000 C 
BRANCH  17  18
ATOM     18  C   UNL     1       2.303   5.294  19.010  0.00  0.00    +0.000 A 
ATOM     19  C   UNL     1       1.901   5.034  20.328  0.00  0.00    +0.000 A 
ATOM     20  C   UNL     1       1.169   3.882  20.636  0.00  0.00    +0.000 A 
ATOM     21  C   UNL     1       0.836   2.976  19.631  0.00  0.00    +0.000 A 
ATOM     22  C   UNL     1       1.231   3.222  18.317  0.00  0.00    +0.000 A 
ATOM     23  C   UNL     1       1.962   4.373  18.009  0.00  0.00    +0.000 A 
ENDBRANCH  17  18
ENDBRANCH  16  17
ENDBRANCH   2  16
TORSDOF 3
ENDMDL
MODEL 3
REMARK VINA RESULT:      -7.8      5.146      7.799
REMARK  Name = 
REMARK  3 active torsions:
REMARK  status: ('A' for Active; 'I' for Inactive)
REMARK    1  A    between atoms: C_2  and  O_3
REMARK    2  A    between atoms: O_3  and  C_4
REMARK    3  A    between atoms: C_4  and  C_5
REMARK                            x       y       z     vdW  Elec       q    Type
REMARK                         _______ _______ _______ _____ _____    ______ ____
ROOT
ATOM      1  O   UNL     1       5.801   7.395  17.505  0.00  0.00    +0.000 OA
ATOM      2  C   UNL     1       5.332   6.462  16.861  0.00  0.00    +0.000 C 
ATOM      3  N   UNL     1       4.523   5.462  17.423  0.00  0.00    +0.000 N 
ATOM      4  C   UNL     1       4.192   4.309  16.710  0.00  0.00    +0.000 C 
ATOM      5  C   UNL     1       4.068   3.125  17.341  0.00  0.00    +0.000 C 
ATOM      6  C   UNL     1       4.340   3.017  18.833  0.00  0.00    +0.000 C 
ATOM      7  C   UNL     1       5.324   4.136  19.260  0.00  0.00    +0.000 C 
ATOM      8  C   UNL     1       4.486   5.386  18.905  0.00  0.00    +0.000 C 
ATOM      9  C   UNL     1       3.163   4.940  19.526  0.00  0.00    +0.000 A 
ATOM     10  C   UNL     1       2.130   5.658  20.099  0.00  0.00    +0.000 A 
ATOM     11 CL   UNL     1       2.096   7.375  20.052  0.00  0.00    +0.000 Cl
ATOM     12  C   UNL     1       1.107   4.961  20.755  0.00  0.00    +0.000 A 
ATOM     13  C   UNL     1       1.119   3.555  20.825  0.00  0.00    +0.000 A 
ATOM     14  C   UNL     1       2.133   2.823  20.211  0.00  0.00    +0.000 A 
ATOM     15  C   UNL     1       3.134   3.529  19.569  0.00  0.00    +0.000 A 
ENDROOT
BRANCH   2  16
ATOM     16  O   UNL     1       5.645   6.224  15.552  0.00  0.00    +0.000 OA
BRANCH  16  17
ATOM     17  C   UNL     1       6.904   5.582  15.295  0.00  0.00    +0.000 C 
BRANCH  17  18
ATOM     18  C   UNL     1       6.824   4.837  13.981  0.00  0.00    +0.000 A 
ATOM     19  C   UNL     1       7.699   5.139  12.927  0.00  0.00    +0.000 A 
ATOM     20  C   UNL     1       7.618   4.449  11.713  0.00  0.00    +0.000 A 
ATOM     21  C   UNL     1       6.658   3.453  11.537  0.00  0.00    +0.000 A 
ATOM     22  C   UNL     1       5.782   3.144  12.576  0.00  0.00    +0.000 A 
ATOM     23  C   UNL     1       5.863   3.833  13.790  0.00  0.00    +0.000 A 
ENDBRANCH  17  18
ENDBRANCH  16  17
ENDBRANCH   2  16
TORSDOF 3
ENDMDL
MODEL 4
REMARK VINA RESULT:      -7.8      5.752      7.903
REMARK  Name = 
REMARK  3 active torsions:
REMARK  status: ('A' for Active; 'I' for Inactive)
REMARK    1  A    between atoms: C_2  and  O_3
REMARK    2  A    between atoms: O_3  and  C_4
REMARK    3  A    between atoms: C_4  and  C_5
REMARK                            x       y       z     vdW  Elec       q    Type
REMARK                         _______ _______ _______ _____ _____    ______ ____
ROOT
ATOM      1  O   UNL     1       5.331   2.928  15.859  0.00  0.00    +0.000 OA
ATOM      2  C   UNL     1       5.021   4.061  16.217  0.00  0.00    +0.000 C 
ATOM      3  N   UNL     1       4.119   4.325  17.259  0.00  0.00    +0.000 N 
ATOM      4  C   UNL     1       3.631   5.611  17.488  0.00  0.00    +0.000 C 
ATOM      5  C   UNL     1       2.368   5.798  17.920  0.00  0.00    +0.000 C 
ATOM      6  C   UNL     1       1.438   4.610  18.113  0.00  0.00    +0.000 C 
ATOM      7  C   UNL     1       1.881   3.452  17.183  0.00  0.00    +0.000 C 
ATOM      8  C   UNL     1       3.299   3.184  17.739  0.00  0.00    +0.000 C 
ATOM      9  C   UNL     1       2.950   3.181  19.225  0.00  0.00    +0.000 A 
ATOM     10  C   UNL     1       3.502   2.505  20.297  0.00  0.00    +0.000 A 
ATOM     11 CL   UNL     1       4.938   1.576  20.129  0.00  0.00    +0.000 Cl
ATOM     12  C   UNL     1       2.853   2.561  21.537  0.00  0.00    +0.000 A 
ATOM     13  C   UNL     1       1.665   3.299  21.700  0.00  0.00    +0.000 A 
ATOM     14  C   UNL     1       1.127   4.020  20.635  0.00  0.00    +0.000 A 
ATOM     15  C   UNL     1       1.782   3.951  19.419  0.00  0.00    +0.000 A 
ENDROOT
BRANCH   2  16
ATOM     16  O   UNL     1       5.425   5.189  15.559  0.00  0.00    +0.000 OA
BRANCH  16  17
ATOM     17  C   UNL     1       6.840   5.422  15.483  0.00  0.00    +0.000 C 
BRANCH  17  18
ATOM     18  C   UNL     1       7.340   5.900  16.828  0.00  0.00    +0.000 A 
ATOM     19  C   UNL     1       7.580   7.261  17.065  0.00  0.00    +0.000 A 
ATOM     20  C   UNL     1       8.046   7.697  18.310  0.00  0.00    +0.000 A 
ATOM     21  C   UNL     1       8.281   6.776  19.330  0.00  0.00    +0.000 A 
ATOM     22  C   UNL     1       8.047   5.420  19.107  0.00  0.00    +0.000 A 
ATOM     23  C   UNL     1       7.581   4.984  17.863  0.00  0.00    +0.000 A 
ENDBRANCH  17  18
ENDBRANCH  16  17
ENDBRANCH   2  16
TORSDOF 3
ENDMDL
MODEL 5
REMARK VINA RESULT:      -7.8      5.155      7.829
REMARK  Name = 
REMARK  3 active torsions:
REMARK  status: ('A' for Active; 'I' for Inactive)
REMARK    1  A    between atoms: C_2  and  O_3
REMARK    2  A    between atoms: O_3  and  C_4
REMARK    3  A    between atoms: C_4  and  C_5
REMARK                            x       y       z     vdW  Elec       q    Type
REMARK                         _______ _______ _______ _____ _____    ______ ____
ROOT
ATOM      1  O   UNL     1       5.892   7.290  17.718  0.00  0.00    +0.000 OA
ATOM      2  C   UNL     1       5.424   6.406  17.008  0.00  0.00    +0.000 C 
ATOM      3  N   UNL     1       4.551   5.414  17.480  0.00  0.00    +0.000 N 
ATOM      4  C   UNL     1       4.218   4.308  16.698  0.00  0.00    +0.000 C 
ATOM      5  C   UNL     1       4.017   3.102  17.266  0.00  0.00    +0.000 C 
ATOM      6  C   UNL     1       4.205   2.918  18.764  0.00  0.00    +0.000 C 
ATOM      7  C   UNL     1       5.205   3.978  19.293  0.00  0.00    +0.000 C 
ATOM      8  C   UNL     1       4.432   5.273  18.953  0.00  0.00    +0.000 C 
ATOM      9  C   UNL     1       3.063   4.852  19.483  0.00  0.00    +0.000 A 
ATOM     10  C   UNL     1       2.028   5.583  20.035  0.00  0.00    +0.000 A 
ATOM     11 CL   UNL     1       2.058   7.300  20.066  0.00  0.00    +0.000 Cl
ATOM     12  C   UNL     1       0.947   4.897  20.604  0.00  0.00    +0.000 A 
ATOM     13  C   UNL     1       0.903   3.490  20.610  0.00  0.00    +0.000 A 
ATOM     14  C   UNL     1       1.922   2.748  20.015  0.00  0.00    +0.000 A 
ATOM     15  C   UNL     1       2.981   3.442  19.459  0.00  0.00    +0.000 A 
ENDROOT
BRANCH   2  16
ATOM     16  O   UNL     1       5.798   6.214  15.707  0.00  0.00    +0.000 OA
BRANCH  16  17
ATOM     17  C   UNL     1       6.970   5.414  15.483  0.00  0.00    +0.000 C 
BRANCH  17  18
ATOM     18  C   UNL     1       6.902   4.809  14.097  0.00  0.00    +0.000 A 
ATOM     19  C   UNL     1       6.024   3.752  13.815  0.00  0.00    +0.000 A 
ATOM     20  C   UNL     1       5.968   3.194  12.534  0.00  0.00    +0.000 A 
ATOM     21  C   UNL     1       6.792   3.683  11.522  0.00  0.00    +0.000 A 
ATOM     22  C   UNL     1       7.670   4.733  11.789  0.00  0.00    +0.000 A 
ATOM     23  C   UNL     1       7.726   5.291  13.070  0.00  0.00    +0.000 A 
ENDBRANCH  17  18
ENDBRANCH  16  17
ENDBRANCH   2  16
TORSDOF 3
ENDMDL
MODEL 6
REMARK VINA RESULT:      -7.7      5.169      7.793
REMARK  Name = 
REMARK  3 active torsions:
REMARK  status: ('A' for Active; 'I' for Inactive)
REMARK    1  A    between atoms: C_2  and  O_3
REMARK    2  A    between atoms: O_3  and  C_4
REMARK    3  A    between atoms: C_4  and  C_5
REMARK                            x       y       z     vdW  Elec       q    Type
REMARK                         _______ _______ _______ _____ _____    ______ ____
ROOT
ATOM      1  O   UNL     1       6.188   6.435  15.696  0.00  0.00    +0.000 OA
ATOM      2  C   UNL     1       5.576   5.372  15.722  0.00  0.00    +0.000 C 
ATOM      3  N   UNL     1       4.755   4.976  16.790  0.00  0.00    +0.000 N 
ATOM      4  C   UNL     1       4.256   3.677  16.879  0.00  0.00    +0.000 C 
ATOM      5  C   UNL     1       4.106   3.082  18.078  0.00  0.00    +0.000 C 
ATOM      6  C   UNL     1       4.531   3.798  19.351  0.00  0.00    +0.000 C 
ATOM      7  C   UNL     1       5.643   4.824  19.018  0.00  0.00    +0.000 C 
ATOM      8  C   UNL     1       4.876   5.753  18.049  0.00  0.00    +0.000 C 
ATOM      9  C   UNL     1       3.598   5.910  18.871  0.00  0.00    +0.000 A 
ATOM     10  C   UNL     1       2.696   6.952  18.976  0.00  0.00    +0.000 A 
ATOM     11 CL   UNL     1       2.797   8.332  17.957  0.00  0.00    +0.000 Cl
ATOM     12  C   UNL     1       1.698   6.885  19.957  0.00  0.00    +0.000 A 
ATOM     13  C   UNL     1       1.603   5.775  20.817  0.00  0.00    +0.000 A 
ATOM     14  C   UNL     1       2.480   4.700  20.688  0.00  0.00    +0.000 A 
ATOM     15  C   UNL     1       3.459   4.786  19.714  0.00  0.00    +0.000 A 
ENDROOT
BRANCH   2  16
ATOM     16  O   UNL     1       5.723   4.400  14.772  0.00  0.00    +0.000 OA
BRANCH  16  17
ATOM     17  C   UNL     1       6.422   4.770  13.572  0.00  0.00    +0.000 C 
BRANCH  17  18
ATOM     18  C   UNL     1       6.350   3.627  12.583  0.00  0.00    +0.000 A 
ATOM     19  C   UNL     1       7.516   3.081  12.028  0.00  0.00    +0.000 A 
ATOM     20  C   UNL     1       7.444   2.027  11.111  0.00  0.00    +0.000 A 
ATOM     21  C   UNL     1       6.204   1.512  10.734  0.00  0.00    +0.000 A 
ATOM     22  C   UNL     1       5.037   2.047  11.277  0.00  0.00    +0.000 A 
ATOM     23  C   UNL     1       5.109   3.100  12.194  0.00  0.00    +0.000 A 
ENDBRANCH  17  18
ENDBRANCH  16  17
ENDBRANCH   2  16
TORSDOF 3
ENDMDL
MODEL 7
REMARK VINA RESULT:      -7.5      5.020      7.651
REMARK  Name = 
REMARK  3 active torsions:
REMARK  status: ('A' for Active; 'I' for Inactive)
REMARK    1  A    between atoms: C_2  and  O_3
REMARK    2  A    between atoms: O_3  and  C_4
REMARK    3  A    between atoms: C_4  and  C_5
REMARK                            x       y       z     vdW  Elec       q    Type
REMARK                         _______ _______ _______ _____ _____    ______ ____
ROOT
ATOM      1  O   UNL     1       6.419   6.245  15.858  0.00  0.00    +0.000 OA
ATOM      2  C   UNL     1       5.787   5.194  15.917  0.00  0.00    +0.000 C 
ATOM      3  N   UNL     1       4.900   4.882  16.959  0.00  0.00    +0.000 N 
ATOM      4  C   UNL     1       4.372   3.599  17.104  0.00  0.00    +0.000 C 
ATOM      5  C   UNL     1       4.144   3.086  18.329  0.00  0.00    +0.000 C 
ATOM      6  C   UNL     1       4.509   3.879  19.574  0.00  0.00    +0.000 C 
ATOM      7  C   UNL     1       5.658   4.864  19.240  0.00  0.00    +0.000 C 
ATOM      8  C   UNL     1       4.963   5.739  18.171  0.00  0.00    +0.000 C 
ATOM      9  C   UNL     1       3.644   5.968  18.905  0.00  0.00    +0.000 A 
ATOM     10  C   UNL     1       2.757   7.028  18.890  0.00  0.00    +0.000 A 
ATOM     11 CL   UNL     1       2.940   8.336  17.791  0.00  0.00    +0.000 Cl
ATOM     12  C   UNL     1       1.704   7.040  19.814  0.00  0.00    +0.000 A 
ATOM     13  C   UNL     1       1.539   5.991  20.738  0.00  0.00    +0.000 A 
ATOM     14  C   UNL     1       2.403   4.897  20.729  0.00  0.00    +0.000 A 
ATOM     15  C   UNL     1       3.437   4.904  19.810  0.00  0.00    +0.000 A 
ENDROOT
BRANCH   2  16
ATOM     16  O   UNL     1       5.970   4.160  15.043  0.00  0.00    +0.000 OA
BRANCH  16  17
ATOM     17  C   UNL     1       6.614   4.473  13.798  0.00  0.00    +0.000 C 
BRANCH  17  18
ATOM     18  C   UNL     1       6.043   3.594  12.707  0.00  0.00    +0.000 A 
ATOM     19  C   UNL     1       4.722   3.760  12.266  0.00  0.00    +0.000 A 
ATOM     20  C   UNL     1       4.197   2.942  11.259  0.00  0.00    +0.000 A 
ATOM     21  C   UNL     1       4.986   1.945  10.687  0.00  0.00    +0.000 A 
ATOM     22  C   UNL     1       6.300   1.768  11.118  0.00  0.00    +0.000 A 
ATOM     23  C   UNL     1       6.825   2.586  12.123  0.00  0.00    +0.000 A 
ENDBRANCH  17  18
ENDBRANCH  16  17
ENDBRANCH   2  16
TORSDOF 3
ENDMDL
MODEL 8
REMARK VINA RESULT:      -7.4      5.540      8.206
REMARK  Name = 
REMARK  3 active torsions:
REMARK  status: ('A' for Active; 'I' for Inactive)
REMARK    1  A    between atoms: C_2  and  O_3
REMARK    2  A    between atoms: O_3  and  C_4
REMARK    3  A    between atoms: C_4  and  C_5
REMARK                            x       y       z     vdW  Elec       q    Type
REMARK                         _______ _______ _______ _____ _____    ______ ____
ROOT
ATOM      1  O   UNL     1       6.746   5.492  18.614  0.00  0.00    +0.000 OA
ATOM      2  C   UNL     1       6.207   4.742  17.806  0.00  0.00    +0.000 C 
ATOM      3  N   UNL     1       5.001   4.070  18.058  0.00  0.00    +0.000 N 
ATOM      4  C   UNL     1       4.539   3.065  17.208  0.00  0.00    +0.000 C 
ATOM      5  C   UNL     1       3.876   2.001  17.702  0.00  0.00    +0.000 C 
ATOM      6  C   UNL     1       3.671   1.852  19.202  0.00  0.00    +0.000 C 
ATOM      7  C   UNL     1       4.796   2.607  19.954  0.00  0.00    +0.000 C 
ATOM      8  C   UNL     1       4.528   4.049  19.466  0.00  0.00    +0.000 C 
ATOM      9  C   UNL     1       3.015   4.068  19.670  0.00  0.00    +0.000 A 
ATOM     10  C   UNL     1       2.144   5.094  19.984  0.00  0.00    +0.000 A 
ATOM     11 CL   UNL     1       2.666   6.730  20.042  0.00  0.00    +0.000 Cl
ATOM     12  C   UNL     1       0.813   4.779  20.288  0.00  0.00    +0.000 A 
ATOM     13  C   UNL     1       0.361   3.447  20.266  0.00  0.00    +0.000 A 
ATOM     14  C   UNL     1       1.222   2.412  19.906  0.00  0.00    +0.000 A 
ATOM     15  C   UNL     1       2.532   2.742  19.611  0.00  0.00    +0.000 A 
ENDROOT
BRANCH   2  16
ATOM     16  O   UNL     1       6.783   4.381  16.620  0.00  0.00    +0.000 OA
BRANCH  16  17
ATOM     17  C   UNL     1       6.959   5.420  15.644  0.00  0.00    +0.000 C 
BRANCH  17  18
ATOM     18  C   UNL     1       6.851   4.824  14.258  0.00  0.00    +0.000 A 
ATOM     19  C   UNL     1       7.680   5.267  13.217  0.00  0.00    +0.000 A 
ATOM     20  C   UNL     1       7.573   4.715  11.936  0.00  0.00    +0.000 A 
ATOM     21  C   UNL     1       6.632   3.718  11.680  0.00  0.00    +0.000 A 
ATOM     22  C   UNL     1       5.801   3.270  12.706  0.00  0.00    +0.000 A 
ATOM     23  C   UNL     1       5.908   3.821  13.987  0.00  0.00    +0.000 A 
ENDBRANCH  17  18
ENDBRANCH  16  17
ENDBRANCH   2  16
TORSDOF 3
ENDMDL
MODEL 9
REMARK VINA RESULT:      -7.4      5.779      8.213
REMARK  Name = 
REMARK  3 active torsions:
REMARK  status: ('A' for Active; 'I' for Inactive)
REMARK    1  A    between atoms: C_2  and  O_3
REMARK    2  A    between atoms: O_3  and  C_4
REMARK    3  A    between atoms: C_4  and  C_5
REMARK                            x       y       z     vdW  Elec       q    Type
REMARK                         _______ _______ _______ _____ _____    ______ ____
ROOT
ATOM      1  O   UNL     1       6.040   3.214  16.531  0.00  0.00    +0.000 OA
ATOM      2  C   UNL     1       5.573   4.307  16.840  0.00  0.00    +0.000 C 
ATOM      3  N   UNL     1       4.469   4.465  17.691  0.00  0.00    +0.000 N 
ATOM      4  C   UNL     1       3.838   5.700  17.841  0.00  0.00    +0.000 C 
ATOM      5  C   UNL     1       2.505   5.771  18.024  0.00  0.00    +0.000 C 
ATOM      6  C   UNL     1       1.660   4.507  18.014  0.00  0.00    +0.000 C 
ATOM      7  C   UNL     1       2.369   3.418  17.169  0.00  0.00    +0.000 C 
ATOM      8  C   UNL     1       3.671   3.247  17.985  0.00  0.00    +0.000 C 
ATOM      9  C   UNL     1       3.045   3.169  19.375  0.00  0.00    +0.000 A 
ATOM     10  C   UNL     1       3.436   2.505  20.523  0.00  0.00    +0.000 A 
ATOM     11 CL   UNL     1       4.951   1.700  20.622  0.00  0.00    +0.000 Cl
ATOM     12  C   UNL     1       2.559   2.470  21.614  0.00  0.00    +0.000 A 
ATOM     13  C   UNL     1       1.304   3.105  21.555  0.00  0.00    +0.000 A 
ATOM     14  C   UNL     1       0.921   3.814  20.418  0.00  0.00    +0.000 A 
ATOM     15  C   UNL     1       1.801   3.837  19.351  0.00  0.00    +0.000 A 
ENDROOT
BRANCH   2  16
ATOM     16  O   UNL     1       5.998   5.484  16.291  0.00  0.00    +0.000 OA
BRANCH  16  17
ATOM     17  C   UNL     1       5.383   5.881  15.055  0.00  0.00    +0.000 C 
BRANCH  17  18
ATOM     18  C   UNL     1       5.913   5.013  13.935  0.00  0.00    +0.000 A 
ATOM     19  C   UNL     1       7.226   5.164  13.466  0.00  0.00    +0.000 A 
ATOM     20  C   UNL     1       7.710   4.362  12.427  0.00  0.00    +0.000 A 
ATOM     21  C   UNL     1       6.884   3.403  11.842  0.00  0.00    +0.000 A 
ATOM     22  C   UNL     1       5.577   3.243  12.298  0.00  0.00    +0.000 A 
ATOM     23  C   UNL     1       5.093   4.044  13.337  0.00  0.00    +0.000 A 
ENDBRANCH  17  18
ENDBRANCH  16  17
ENDBRANCH   2  16
TORSDOF 3
ENDMDL
