MODEL 1
REMARK VINA RESULT:      -8.5      0.000      0.000
REMARK  Name = 
REMARK  6 active torsions:
REMARK  status: ('A' for Active; 'I' for Inactive)
REMARK    1  A    between atoms: C_1  and  C_2
REMARK    2  A    between atoms: C_2  and  O_3
REMARK    3  A    between atoms: O_3  and  C_4
REMARK    4  A    between atoms: C_4  and  C_6
REMARK    5  A    between atoms: C_7  and  N_8
REMARK    6  A    between atoms: N_11  and  C_12
REMARK                            x       y       z     vdW  Elec       q    Type
REMARK                         _______ _______ _______ _____ _____    ______ ____
ROOT
ATOM      1  C   UNL     1       3.687   4.754  18.740  0.00  0.00    +0.000 A 
ATOM      2  C   UNL     1       3.348   6.076  19.036  0.00  0.00    +0.000 A 
ATOM      3  S   UNL     1       3.827   7.136  17.789  0.00  0.00    +0.000 S 
ATOM      4  C   UNL     1       4.517   5.912  16.872  0.00  0.00    +0.000 A 
ATOM      5  C   UNL     1       4.364   4.666  17.445  0.00  0.00    +0.000 A 
ATOM      6  C   UNL     1       4.883   3.445  16.729  0.00  0.00    +0.000 C 
ATOM      7  C   UNL     1       5.936   3.797  15.666  0.00  0.00    +0.000 C 
ATOM      8  C   UNL     1       5.489   4.965  14.783  0.00  0.00    +0.000 C 
ATOM      9  C   UNL     1       5.247   6.231  15.608  0.00  0.00    +0.000 C 
ENDROOT
BRANCH   2  10
ATOM     10  N   UNL     1       2.701   6.588  20.176  0.00  0.00    +0.000 N 
ATOM     11  C   UNL     1       1.956   7.759  20.200  0.00  0.00    +0.000 C 
ATOM     12  O   UNL     1       1.793   8.510  19.247  0.00  0.00    +0.000 OA
ATOM     13  N   UNL     1       1.408   8.035  21.450  0.00  0.00    +0.000 N 
ATOM     14  H   UNL     1       2.842   6.062  21.031  0.00  0.00    +0.000 HD
ATOM     15  H   UNL     1       1.863   7.622  22.251  0.00  0.00    +0.000 HD
BRANCH  13  16
ATOM     16  C   UNL     1       0.558   9.155  21.685  0.00  0.00    +0.000 A 
ATOM     17  C   UNL     1       0.017   9.440  22.947  0.00  0.00    +0.000 A 
ATOM     18  C   UNL     1      -0.907  10.470  23.131  0.00  0.00    +0.000 A 
ATOM     19  C   UNL     1      -1.280  11.266  22.054  0.00  0.00    +0.000 A 
ATOM     20 CL   UNL     1      -2.457  12.497  22.338  0.00  0.00    +0.000 Cl
ATOM     21  C   UNL     1      -0.699  11.041  20.801  0.00  0.00    +0.000 A 
ATOM     22 CL   UNL     1      -1.099  12.006  19.423  0.00  0.00    +0.000 Cl
ATOM     23  C   UNL     1       0.226   9.995  20.619  0.00  0.00    +0.000 A 
ENDBRANCH  13  16
ENDBRANCH   2  10
BRANCH   1  24
ATOM     24  C   UNL     1       3.440   3.654  19.678  0.00  0.00    +0.000 C 
ATOM     25  O   UNL     1       4.222   2.722  19.844  0.00  0.00    +0.000 OA
BRANCH  24  26
ATOM     26  O   UNL     1       2.207   3.730  20.252  0.00  0.00    +0.000 OA
BRANCH  26  28
ATOM     27  C   UNL     1       0.841   2.460  18.747  0.00  0.00    +0.000 C 
ATOM     28  C   UNL     1       1.378   2.565  20.166  0.00  0.00    +0.000 C 
ENDBRANCH  26  28
ENDBRANCH  24  26
ENDBRANCH   1  24
TORSDOF 5
ENDMDL
MODEL 2
REMARK VINA RESULT:      -8.2      1.135      1.373
REMARK  Name = 
REMARK  6 active torsions:
REMARK  status: ('A' for Active; 'I' for Inactive)
REMARK    1  A    between atoms: C_1  and  C_2
REMARK    2  A    between atoms: C_2  and  O_3
REMARK    3  A    between atoms: O_3  and  C_4
REMARK    4  A    between atoms: C_4  and  C_6
REMARK    5  A    between atoms: C_7  and  N_8
REMARK    6  A    between atoms: N_11  and  C_12
REMARK                            x       y       z     vdW  Elec       q    Type
REMARK                         _______ _______ _______ _____ _____    ______ ____
ROOT
ATOM      1  C   UNL     1       3.210   4.860  18.067  0.00  0.00    +0.000 A 
ATOM      2  C   UNL     1       3.570   5.775  19.059  0.00  0.00    +0.000 A 
ATOM      3  S   UNL     1       5.173   6.316  18.855  0.00  0.00    +0.000 S 
ATOM      4  C   UNL     1       5.441   5.347  17.513  0.00  0.00    +0.000 A 
ATOM      5  C   UNL     1       4.323   4.627  17.144  0.00  0.00    +0.000 A 
ATOM      6  C   UNL     1       4.372   3.740  15.926  0.00  0.00    +0.000 C 
ATOM      7  C   UNL     1       5.813   3.390  15.519  0.00  0.00    +0.000 C 
ATOM      8  C   UNL     1       6.718   4.625  15.500  0.00  0.00    +0.000 C 
ATOM      9  C   UNL     1       6.792   5.288  16.876  0.00  0.00    +0.000 C 
ENDROOT
BRANCH   2  10
ATOM     10  N   UNL     1       2.801   6.258  20.135  0.00  0.00    +0.000 N 
ATOM     11  C   UNL     1       2.146   7.482  20.147  0.00  0.00    +0.000 C 
ATOM     12  O   UNL     1       2.179   8.307  19.243  0.00  0.00    +0.000 OA
ATOM     13  N   UNL     1       1.442   7.716  21.325  0.00  0.00    +0.000 N 
ATOM     14  H   UNL     1       2.777   5.664  20.956  0.00  0.00    +0.000 HD
ATOM     15  H   UNL     1       1.744   7.212  22.147  0.00  0.00    +0.000 HD
BRANCH  13  16
ATOM     16  C   UNL     1       0.649   8.882  21.527  0.00  0.00    +0.000 A 
ATOM     17  C   UNL     1       0.274   9.330  22.802  0.00  0.00    +0.000 A 
ATOM     18  C   UNL     1      -0.600  10.405  22.973  0.00  0.00    +0.000 A 
ATOM     19  C   UNL     1      -1.089  11.082  21.862  0.00  0.00    +0.000 A 
ATOM     20 CL   UNL     1      -2.198  12.376  22.138  0.00  0.00    +0.000 Cl
ATOM     21  C   UNL     1      -0.672  10.694  20.584  0.00  0.00    +0.000 A 
ATOM     22 CL   UNL     1      -1.223  11.506  19.159  0.00  0.00    +0.000 Cl
ATOM     23  C   UNL     1       0.203   9.604  20.417  0.00  0.00    +0.000 A 
ENDBRANCH  13  16
ENDBRANCH   2  10
BRANCH   1  24
ATOM     24  C   UNL     1       1.902   4.196  18.050  0.00  0.00    +0.000 C 
ATOM     25  O   UNL     1       1.271   3.980  17.020  0.00  0.00    +0.000 OA
BRANCH  24  26
ATOM     26  O   UNL     1       1.430   3.953  19.304  0.00  0.00    +0.000 OA
BRANCH  26  28
ATOM     27  C   UNL     1       1.778   2.714  21.325  0.00  0.00    +0.000 C 
ATOM     28  C   UNL     1       1.599   2.627  19.817  0.00  0.00    +0.000 C 
ENDBRANCH  26  28
ENDBRANCH  24  26
ENDBRANCH   1  24
TORSDOF 5
ENDMDL
MODEL 3
REMARK VINA RESULT:      -8.1      1.615      1.817
REMARK  Name = 
REMARK  6 active torsions:
REMARK  status: ('A' for Active; 'I' for Inactive)
REMARK    1  A    between atoms: C_1  and  C_2
REMARK    2  A    between atoms: C_2  and  O_3
REMARK    3  A    between atoms: O_3  and  C_4
REMARK    4  A    between atoms: C_4  and  C_6
REMARK    5  A    between atoms: C_7  and  N_8
REMARK    6  A    between atoms: N_11  and  C_12
REMARK                            x       y       z     vdW  Elec       q    Type
REMARK                         _______ _______ _______ _____ _____    ______ ____
ROOT
ATOM      1  C   UNL     1       2.998   5.243  17.952  0.00  0.00    +0.000 A 
ATOM      2  C   UNL     1       3.132   6.544  18.442  0.00  0.00    +0.000 A 
ATOM      3  S   UNL     1       4.500   7.320  17.786  0.00  0.00    +0.000 S 
ATOM      4  C   UNL     1       4.965   5.976  16.896  0.00  0.00    +0.000 A 
ATOM      5  C   UNL     1       4.083   4.923  17.021  0.00  0.00    +0.000 A 
ATOM      6  C   UNL     1       4.322   3.650  16.249  0.00  0.00    +0.000 C 
ATOM      7  C   UNL     1       5.780   3.521  15.778  0.00  0.00    +0.000 C 
ATOM      8  C   UNL     1       6.291   4.814  15.137  0.00  0.00    +0.000 C 
ATOM      9  C   UNL     1       6.243   5.985  16.120  0.00  0.00    +0.000 C 
ENDROOT
BRANCH   2  10
ATOM     10  N   UNL     1       2.312   7.230  19.358  0.00  0.00    +0.000 N 
ATOM     11  C   UNL     1       1.802   8.506  19.157  0.00  0.00    +0.000 C 
ATOM     12  O   UNL     1       2.024   9.206  18.177  0.00  0.00    +0.000 OA
ATOM     13  N   UNL     1       1.008   8.951  20.210  0.00  0.00    +0.000 N 
ATOM     14  H   UNL     1       2.135   6.747  20.232  0.00  0.00    +0.000 HD
ATOM     15  H   UNL     1       1.162   8.525  21.112  0.00  0.00    +0.000 HD
BRANCH  13  16
ATOM     16  C   UNL     1       0.335  10.207  20.186  0.00  0.00    +0.000 A 
ATOM     17  C   UNL     1       0.789  11.321  20.905  0.00  0.00    +0.000 A 
ATOM     18  C   UNL     1       0.052  12.506  20.963  0.00  0.00    +0.000 A 
ATOM     19  C   UNL     1      -1.145  12.610  20.265  0.00  0.00    +0.000 A 
ATOM     20 CL   UNL     1      -2.030  14.086  20.410  0.00  0.00    +0.000 Cl
ATOM     21  C   UNL     1      -1.581  11.533  19.486  0.00  0.00    +0.000 A 
ATOM     22 CL   UNL     1      -3.048  11.601  18.573  0.00  0.00    +0.000 Cl
ATOM     23  C   UNL     1      -0.838  10.338  19.437  0.00  0.00    +0.000 A 
ENDBRANCH  13  16
ENDBRANCH   2  10
BRANCH   1  24
ATOM     24  C   UNL     1       1.937   4.339  18.406  0.00  0.00    +0.000 C 
ATOM     25  O   UNL     1       1.143   3.796  17.643  0.00  0.00    +0.000 OA
BRANCH  24  26
ATOM     26  O   UNL     1       1.868   4.264  19.764  0.00  0.00    +0.000 OA
BRANCH  26  28
ATOM     27  C   UNL     1       1.463   2.697  21.532  0.00  0.00    +0.000 C 
ATOM     28  C   UNL     1       2.378   3.073  20.375  0.00  0.00    +0.000 C 
ENDBRANCH  26  28
ENDBRANCH  24  26
ENDBRANCH   1  24
TORSDOF 5
ENDMDL
MODEL 4
REMARK VINA RESULT:      -8.0      4.206      8.986
REMARK  Name = 
REMARK  6 active torsions:
REMARK  status: ('A' for Active; 'I' for Inactive)
REMARK    1  A    between atoms: C_1  and  C_2
REMARK    2  A    between atoms: C_2  and  O_3
REMARK    3  A    between atoms: O_3  and  C_4
REMARK    4  A    between atoms: C_4  and  C_6
REMARK    5  A    between atoms: C_7  and  N_8
REMARK    6  A    between atoms: N_11  and  C_12
REMARK                            x       y       z     vdW  Elec       q    Type
REMARK                         _______ _______ _______ _____ _____    ______ ____
ROOT
ATOM      1  C   UNL     1      -0.472  11.465  20.748  0.00  0.00    +0.000 A 
ATOM      2  C   UNL     1       0.019  10.468  21.592  0.00  0.00    +0.000 A 
ATOM      3  S   UNL     1      -0.827  10.430  23.071  0.00  0.00    +0.000 S 
ATOM      4  C   UNL     1      -1.809  11.727  22.662  0.00  0.00    +0.000 A 
ATOM      5  C   UNL     1      -1.569  12.195  21.386  0.00  0.00    +0.000 A 
ATOM      6  C   UNL     1      -2.398  13.329  20.837  0.00  0.00    +0.000 C 
ATOM      7  C   UNL     1      -3.095  14.132  21.948  0.00  0.00    +0.000 C 
ATOM      8  C   UNL     1      -3.780  13.219  22.968  0.00  0.00    +0.000 C 
ATOM      9  C   UNL     1      -2.777  12.289  23.653  0.00  0.00    +0.000 C 
ENDROOT
BRANCH   2  10
ATOM     10  N   UNL     1       1.069   9.557  21.365  0.00  0.00    +0.000 N 
ATOM     11  C   UNL     1       0.899   8.261  20.895  0.00  0.00    +0.000 C 
ATOM     12  O   UNL     1      -0.180   7.737  20.649  0.00  0.00    +0.000 OA
ATOM     13  N   UNL     1       2.098   7.572  20.742  0.00  0.00    +0.000 N 
ATOM     14  H   UNL     1       1.995   9.888  21.609  0.00  0.00    +0.000 HD
ATOM     15  H   UNL     1       2.883   7.890  21.293  0.00  0.00    +0.000 HD
BRANCH  13  16
ATOM     16  C   UNL     1       2.162   6.249  20.215  0.00  0.00    +0.000 A 
ATOM     17  C   UNL     1       2.412   5.987  18.861  0.00  0.00    +0.000 A 
ATOM     18  C   UNL     1       2.353   4.692  18.343  0.00  0.00    +0.000 A 
ATOM     19  C   UNL     1       2.078   3.622  19.186  0.00  0.00    +0.000 A 
ATOM     20 CL   UNL     1       1.978   2.050  18.478  0.00  0.00    +0.000 Cl
ATOM     21  C   UNL     1       1.893   3.855  20.553  0.00  0.00    +0.000 A 
ATOM     22 CL   UNL     1       1.569   2.569  21.663  0.00  0.00    +0.000 Cl
ATOM     23  C   UNL     1       1.945   5.164  21.069  0.00  0.00    +0.000 A 
ENDBRANCH  13  16
ENDBRANCH   2  10
BRANCH   1  24
ATOM     24  C   UNL     1       0.124  11.747  19.438  0.00  0.00    +0.000 C 
ATOM     25  O   UNL     1       1.269  12.168  19.296  0.00  0.00    +0.000 OA
BRANCH  24  26
ATOM     26  O   UNL     1      -0.767  11.595  18.420  0.00  0.00    +0.000 OA
BRANCH  26  28
ATOM     27  C   UNL     1      -2.496  10.339  17.336  0.00  0.00    +0.000 C 
ATOM     28  C   UNL     1      -1.200  10.261  18.129  0.00  0.00    +0.000 C 
ENDBRANCH  26  28
ENDBRANCH  24  26
ENDBRANCH   1  24
TORSDOF 5
ENDMDL
MODEL 5
REMARK VINA RESULT:      -8.0      1.949      3.588
REMARK  Name = 
REMARK  6 active torsions:
REMARK  status: ('A' for Active; 'I' for Inactive)
REMARK    1  A    between atoms: C_1  and  C_2
REMARK    2  A    between atoms: C_2  and  O_3
REMARK    3  A    between atoms: O_3  and  C_4
REMARK    4  A    between atoms: C_4  and  C_6
REMARK    5  A    between atoms: C_7  and  N_8
REMARK    6  A    between atoms: N_11  and  C_12
REMARK                            x       y       z     vdW  Elec       q    Type
REMARK                         _______ _______ _______ _____ _____    ______ ____
ROOT
ATOM      1  C   UNL     1       2.918   6.004  18.870  0.00  0.00    +0.000 A 
ATOM      2  C   UNL     1       2.317   6.424  20.059  0.00  0.00    +0.000 A 
ATOM      3  S   UNL     1       1.604   5.119  20.892  0.00  0.00    +0.000 S 
ATOM      4  C   UNL     1       2.020   4.003  19.712  0.00  0.00    +0.000 A 
ATOM      5  C   UNL     1       2.751   4.561  18.683  0.00  0.00    +0.000 A 
ATOM      6  C   UNL     1       3.250   3.688  17.560  0.00  0.00    +0.000 C 
ATOM      7  C   UNL     1       2.477   2.362  17.466  0.00  0.00    +0.000 C 
ATOM      8  C   UNL     1       2.325   1.691  18.834  0.00  0.00    +0.000 C 
ATOM      9  C   UNL     1       1.561   2.583  19.814  0.00  0.00    +0.000 C 
ENDROOT
BRANCH   2  10
ATOM     10  N   UNL     1       2.244   7.722  20.599  0.00  0.00    +0.000 N 
ATOM     11  C   UNL     1       1.060   8.404  20.850  0.00  0.00    +0.000 C 
ATOM     12  O   UNL     1      -0.062   7.980  20.606  0.00  0.00    +0.000 OA
ATOM     13  N   UNL     1       1.262   9.667  21.400  0.00  0.00    +0.000 N 
ATOM     14  H   UNL     1       3.134   8.176  20.768  0.00  0.00    +0.000 HD
ATOM     15  H   UNL     1       2.157  10.103  21.231  0.00  0.00    +0.000 HD
BRANCH  13  16
ATOM     16  C   UNL     1       0.185  10.514  21.792  0.00  0.00    +0.000 A 
ATOM     17  C   UNL     1      -0.538  10.318  22.977  0.00  0.00    +0.000 A 
ATOM     18  C   UNL     1      -1.663  11.085  23.285  0.00  0.00    +0.000 A 
ATOM     19  C   UNL     1      -2.066  12.097  22.422  0.00  0.00    +0.000 A 
ATOM     20 CL   UNL     1      -3.489  12.984  22.837  0.00  0.00    +0.000 Cl
ATOM     21  C   UNL     1      -1.318  12.354  21.268  0.00  0.00    +0.000 A 
ATOM     22 CL   UNL     1      -1.749  13.612  20.162  0.00  0.00    +0.000 Cl
ATOM     23  C   UNL     1      -0.189  11.572  20.959  0.00  0.00    +0.000 A 
ENDBRANCH  13  16
ENDBRANCH   2  10
BRANCH   1  24
ATOM     24  C   UNL     1       3.550   6.942  17.937  0.00  0.00    +0.000 C 
ATOM     25  O   UNL     1       2.988   7.946  17.509  0.00  0.00    +0.000 OA
BRANCH  24  26
ATOM     26  O   UNL     1       4.774   6.514  17.522  0.00  0.00    +0.000 OA
BRANCH  26  28
ATOM     27  C   UNL     1       5.430   5.548  15.429  0.00  0.00    +0.000 C 
ATOM     28  C   UNL     1       5.157   6.842  16.182  0.00  0.00    +0.000 C 
ENDBRANCH  26  28
ENDBRANCH  24  26
ENDBRANCH   1  24
TORSDOF 5
ENDMDL
MODEL 6
REMARK VINA RESULT:      -7.9      1.722      2.078
REMARK  Name = 
REMARK  6 active torsions:
REMARK  status: ('A' for Active; 'I' for Inactive)
REMARK    1  A    between atoms: C_1  and  C_2
REMARK    2  A    between atoms: C_2  and  O_3
REMARK    3  A    between atoms: O_3  and  C_4
REMARK    4  A    between atoms: C_4  and  C_6
REMARK    5  A    between atoms: C_7  and  N_8
REMARK    6  A    between atoms: N_11  and  C_12
REMARK                            x       y       z     vdW  Elec       q    Type
REMARK                         _______ _______ _______ _____ _____    ______ ____
ROOT
ATOM      1  C   UNL     1       3.017   5.263  17.910  0.00  0.00    +0.000 A 
ATOM      2  C   UNL     1       3.174   6.544  18.444  0.00  0.00    +0.000 A 
ATOM      3  S   UNL     1       4.582   7.299  17.850  0.00  0.00    +0.000 S 
ATOM      4  C   UNL     1       5.032   5.969  16.931  0.00  0.00    +0.000 A 
ATOM      5  C   UNL     1       4.117   4.939  16.999  0.00  0.00    +0.000 A 
ATOM      6  C   UNL     1       4.341   3.684  16.195  0.00  0.00    +0.000 C 
ATOM      7  C   UNL     1       5.807   3.525  15.760  0.00  0.00    +0.000 C 
ATOM      8  C   UNL     1       6.373   4.821  15.174  0.00  0.00    +0.000 C 
ATOM      9  C   UNL     1       6.331   5.963  16.191  0.00  0.00    +0.000 C 
ENDROOT
BRANCH   2  10
ATOM     10  N   UNL     1       2.349   7.226  19.359  0.00  0.00    +0.000 N 
ATOM     11  C   UNL     1       1.846   8.506  19.163  0.00  0.00    +0.000 C 
ATOM     12  O   UNL     1       2.078   9.213  18.190  0.00  0.00    +0.000 OA
ATOM     13  N   UNL     1       1.044   8.946  20.212  0.00  0.00    +0.000 N 
ATOM     14  H   UNL     1       2.162   6.738  20.227  0.00  0.00    +0.000 HD
ATOM     15  H   UNL     1       1.189   8.512  21.113  0.00  0.00    +0.000 HD
BRANCH  13  16
ATOM     16  C   UNL     1       0.376  10.204  20.192  0.00  0.00    +0.000 A 
ATOM     17  C   UNL     1      -0.849  10.399  19.538  0.00  0.00    +0.000 A 
ATOM     18  C   UNL     1      -1.428  11.665  19.429  0.00  0.00    +0.000 A 
ATOM     19  C   UNL     1      -0.805  12.763  20.011  0.00  0.00    +0.000 A 
ATOM     20 CL   UNL     1      -1.550  14.307  19.807  0.00  0.00    +0.000 Cl
ATOM     21  C   UNL     1       0.383  12.577  20.727  0.00  0.00    +0.000 A 
ATOM     22 CL   UNL     1       1.199  13.894  21.496  0.00  0.00    +0.000 Cl
ATOM     23  C   UNL     1       0.966  11.301  20.827  0.00  0.00    +0.000 A 
ENDBRANCH  13  16
ENDBRANCH   2  10
BRANCH   1  24
ATOM     24  C   UNL     1       1.917   4.378  18.307  0.00  0.00    +0.000 C 
ATOM     25  O   UNL     1       1.179   3.818  17.501  0.00  0.00    +0.000 OA
BRANCH  24  26
ATOM     26  O   UNL     1       1.744   4.342  19.657  0.00  0.00    +0.000 OA
BRANCH  26  28
ATOM     27  C   UNL     1       1.631   2.824  21.508  0.00  0.00    +0.000 C 
ATOM     28  C   UNL     1       1.000   3.239  20.188  0.00  0.00    +0.000 C 
ENDBRANCH  26  28
ENDBRANCH  24  26
ENDBRANCH   1  24
TORSDOF 5
ENDMDL
MODEL 7
REMARK VINA RESULT:      -7.9      2.408      3.754
REMARK  Name = 
REMARK  6 active torsions:
REMARK  status: ('A' for Active; 'I' for Inactive)
REMARK    1  A    between atoms: C_1  and  C_2
REMARK    2  A    between atoms: C_2  and  O_3
REMARK    3  A    between atoms: O_3  and  C_4
REMARK    4  A    between atoms: C_4  and  C_6
REMARK    5  A    between atoms: C_7  and  N_8
REMARK    6  A    between atoms: N_11  and  C_12
REMARK                            x       y       z     vdW  Elec       q    Type
REMARK                         _______ _______ _______ _____ _____    ______ ____
ROOT
ATOM      1  C   UNL     1       2.593   6.187  18.961  0.00  0.00    +0.000 A 
ATOM      2  C   UNL     1       2.205   6.486  20.269  0.00  0.00    +0.000 A 
ATOM      3  S   UNL     1       1.801   5.075  21.137  0.00  0.00    +0.000 S 
ATOM      4  C   UNL     1       2.077   4.065  19.827  0.00  0.00    +0.000 A 
ATOM      5  C   UNL     1       2.530   4.745  18.715  0.00  0.00    +0.000 A 
ATOM      6  C   UNL     1       2.874   3.983  17.460  0.00  0.00    +0.000 C 
ATOM      7  C   UNL     1       2.229   2.587  17.431  0.00  0.00    +0.000 C 
ATOM      8  C   UNL     1       2.419   1.842  18.755  0.00  0.00    +0.000 C 
ATOM      9  C   UNL     1       1.785   2.602  19.922  0.00  0.00    +0.000 C 
ENDROOT
BRANCH   2  10
ATOM     10  N   UNL     1       2.118   7.742  20.898  0.00  0.00    +0.000 N 
ATOM     11  C   UNL     1       0.945   8.471  21.041  0.00  0.00    +0.000 C 
ATOM     12  O   UNL     1      -0.152   8.132  20.614  0.00  0.00    +0.000 OA
ATOM     13  N   UNL     1       1.126   9.676  21.714  0.00  0.00    +0.000 N 
ATOM     14  H   UNL     1       2.996   8.131  21.222  0.00  0.00    +0.000 HD
ATOM     15  H   UNL     1       2.056  10.071  21.704  0.00  0.00    +0.000 HD
BRANCH  13  16
ATOM     16  C   UNL     1       0.046  10.552  22.024  0.00  0.00    +0.000 A 
ATOM     17  C   UNL     1      -0.792  10.356  23.131  0.00  0.00    +0.000 A 
ATOM     18  C   UNL     1      -1.915  11.156  23.351  0.00  0.00    +0.000 A 
ATOM     19  C   UNL     1      -2.200  12.201  22.479  0.00  0.00    +0.000 A 
ATOM     20 CL   UNL     1      -3.625  13.129  22.781  0.00  0.00    +0.000 Cl
ATOM     21  C   UNL     1      -1.337  12.456  21.408  0.00  0.00    +0.000 A 
ATOM     22 CL   UNL     1      -1.618  13.753  20.298  0.00  0.00    +0.000 Cl
ATOM     23  C   UNL     1      -0.211  11.641  21.187  0.00  0.00    +0.000 A 
ENDBRANCH  13  16
ENDBRANCH   2  10
BRANCH   1  24
ATOM     24  C   UNL     1       2.932   7.229  17.986  0.00  0.00    +0.000 C 
ATOM     25  O   UNL     1       4.060   7.379  17.526  0.00  0.00    +0.000 OA
BRANCH  24  26
ATOM     26  O   UNL     1       1.887   8.068  17.742  0.00  0.00    +0.000 OA
BRANCH  26  28
ATOM     27  C   UNL     1       0.870  10.220  18.022  0.00  0.00    +0.000 C 
ATOM     28  C   UNL     1       2.167   9.473  17.748  0.00  0.00    +0.000 C 
ENDBRANCH  26  28
ENDBRANCH  24  26
ENDBRANCH   1  24
TORSDOF 5
ENDMDL
MODEL 8
REMARK VINA RESULT:      -7.9      4.208      8.936
REMARK  Name = 
REMARK  6 active torsions:
REMARK  status: ('A' for Active; 'I' for Inactive)
REMARK    1  A    between atoms: C_1  and  C_2
REMARK    2  A    between atoms: C_2  and  O_3
REMARK    3  A    between atoms: O_3  and  C_4
REMARK    4  A    between atoms: C_4  and  C_6
REMARK    5  A    between atoms: C_7  and  N_8
REMARK    6  A    between atoms: N_11  and  C_12
REMARK                            x       y       z     vdW  Elec       q    Type
REMARK                         _______ _______ _______ _____ _____    ______ ____
ROOT
ATOM      1  C   UNL     1      -0.546  11.295  20.732  0.00  0.00    +0.000 A 
ATOM      2  C   UNL     1       0.004  10.368  21.620  0.00  0.00    +0.000 A 
ATOM      3  S   UNL     1      -0.774  10.417  23.135  0.00  0.00    +0.000 S 
ATOM      4  C   UNL     1      -1.801  11.664  22.684  0.00  0.00    +0.000 A 
ATOM      5  C   UNL     1      -1.629  12.047  21.369  0.00  0.00    +0.000 A 
ATOM      6  C   UNL     1      -2.506  13.124  20.783  0.00  0.00    +0.000 C 
ATOM      7  C   UNL     1      -3.170  13.988  21.867  0.00  0.00    +0.000 C 
ATOM      8  C   UNL     1      -3.789  13.136  22.978  0.00  0.00    +0.000 C 
ATOM      9  C   UNL     1      -2.735  12.275  23.678  0.00  0.00    +0.000 C 
ENDROOT
BRANCH   2  10
ATOM     10  N   UNL     1       1.062   9.463  21.407  0.00  0.00    +0.000 N 
ATOM     11  C   UNL     1       0.908   8.171  20.923  0.00  0.00    +0.000 C 
ATOM     12  O   UNL     1      -0.163   7.644  20.651  0.00  0.00    +0.000 OA
ATOM     13  N   UNL     1       2.113   7.488  20.790  0.00  0.00    +0.000 N 
ATOM     14  H   UNL     1       1.982   9.796  21.673  0.00  0.00    +0.000 HD
ATOM     15  H   UNL     1       2.885   7.805  21.359  0.00  0.00    +0.000 HD
BRANCH  13  16
ATOM     16  C   UNL     1       2.194   6.169  20.254  0.00  0.00    +0.000 A 
ATOM     17  C   UNL     1       2.458   5.919  18.900  0.00  0.00    +0.000 A 
ATOM     18  C   UNL     1       2.415   4.628  18.372  0.00  0.00    +0.000 A 
ATOM     19  C   UNL     1       2.142   3.549  19.205  0.00  0.00    +0.000 A 
ATOM     20 CL   UNL     1       2.063   1.982  18.485  0.00  0.00    +0.000 Cl
ATOM     21  C   UNL     1       1.944   3.771  20.572  0.00  0.00    +0.000 A 
ATOM     22 CL   UNL     1       1.622   2.473  21.670  0.00  0.00    +0.000 Cl
ATOM     23  C   UNL     1       1.980   5.076  21.098  0.00  0.00    +0.000 A 
ENDBRANCH  13  16
ENDBRANCH   2  10
BRANCH   1  24
ATOM     24  C   UNL     1      -0.015  11.496  19.380  0.00  0.00    +0.000 C 
ATOM     25  O   UNL     1      -0.726  11.566  18.382  0.00  0.00    +0.000 OA
BRANCH  24  26
ATOM     26  O   UNL     1       1.346  11.484  19.351  0.00  0.00    +0.000 OA
BRANCH  26  28
ATOM     27  C   UNL     1       1.995   9.667  17.931  0.00  0.00    +0.000 C 
ATOM     28  C   UNL     1       1.967  11.178  18.098  0.00  0.00    +0.000 C 
ENDBRANCH  26  28
ENDBRANCH  24  26
ENDBRANCH   1  24
TORSDOF 5
ENDMDL
MODEL 9
REMARK VINA RESULT:      -7.8      1.292      1.967
REMARK  Name = 
REMARK  6 active torsions:
REMARK  status: ('A' for Active; 'I' for Inactive)
REMARK    1  A    between atoms: C_1  and  C_2
REMARK    2  A    between atoms: C_2  and  O_3
REMARK    3  A    between atoms: O_3  and  C_4
REMARK    4  A    between atoms: C_4  and  C_6
REMARK    5  A    between atoms: C_7  and  N_8
REMARK    6  A    between atoms: N_11  and  C_12
REMARK                            x       y       z     vdW  Elec       q    Type
REMARK                         _______ _______ _______ _____ _____    ______ ____
ROOT
ATOM      1  C   UNL     1       3.204   5.197  17.943  0.00  0.00    +0.000 A 
ATOM      2  C   UNL     1       3.406   6.418  18.589  0.00  0.00    +0.000 A 
ATOM      3  S   UNL     1       4.837   7.176  18.056  0.00  0.00    +0.000 S 
ATOM      4  C   UNL     1       5.239   5.921  17.018  0.00  0.00    +0.000 A 
ATOM      5  C   UNL     1       4.289   4.920  16.999  0.00  0.00    +0.000 A 
ATOM      6  C   UNL     1       4.468   3.737  16.082  0.00  0.00    +0.000 C 
ATOM      7  C   UNL     1       5.926   3.569  15.625  0.00  0.00    +0.000 C 
ATOM      8  C   UNL     1       6.534   4.893  15.155  0.00  0.00    +0.000 C 
ATOM      9  C   UNL     1       6.534   5.939  16.272  0.00  0.00    +0.000 C 
ENDROOT
BRANCH   2  10
ATOM     10  N   UNL     1       2.609   7.041  19.568  0.00  0.00    +0.000 N 
ATOM     11  C   UNL     1       1.806   8.151  19.339  0.00  0.00    +0.000 C 
ATOM     12  O   UNL     1       1.713   8.745  18.273  0.00  0.00    +0.000 OA
ATOM     13  N   UNL     1       1.106   8.563  20.469  0.00  0.00    +0.000 N 
ATOM     14  H   UNL     1       2.679   6.653  20.501  0.00  0.00    +0.000 HD
ATOM     15  H   UNL     1       1.489   8.300  21.366  0.00  0.00    +0.000 HD
BRANCH  13  16
ATOM     16  C   UNL     1       0.178   9.644  20.446  0.00  0.00    +0.000 A 
ATOM     17  C   UNL     1      -0.477  10.052  19.275  0.00  0.00    +0.000 A 
ATOM     18  C   UNL     1      -1.291  11.186  19.248  0.00  0.00    +0.000 A 
ATOM     19  C   UNL     1      -1.497  11.917  20.413  0.00  0.00    +0.000 A 
ATOM     20 CL   UNL     1      -2.480  13.333  20.306  0.00  0.00    +0.000 Cl
ATOM     21  C   UNL     1      -0.907  11.487  21.606  0.00  0.00    +0.000 A 
ATOM     22 CL   UNL     1      -1.138  12.335  23.096  0.00  0.00    +0.000 Cl
ATOM     23  C   UNL     1      -0.081  10.348  21.626  0.00  0.00    +0.000 A 
ENDBRANCH  13  16
ENDBRANCH   2  10
BRANCH   1  24
ATOM     24  C   UNL     1       2.076   4.316  18.265  0.00  0.00    +0.000 C 
ATOM     25  O   UNL     1       1.288   3.896  17.423  0.00  0.00    +0.000 OA
BRANCH  24  26
ATOM     26  O   UNL     1       1.944   4.115  19.606  0.00  0.00    +0.000 OA
BRANCH  26  28
ATOM     27  C   UNL     1       2.343   2.776  21.552  0.00  0.00    +0.000 C 
ATOM     28  C   UNL     1       2.919   3.276  20.236  0.00  0.00    +0.000 C 
ENDBRANCH  26  28
ENDBRANCH  24  26
ENDBRANCH   1  24
TORSDOF 5
ENDMDL
