MODEL 1
REMARK VINA RESULT:      -8.5      0.000      0.000
REMARK  Name = 
REMARK  8 active torsions:
REMARK  status: ('A' for Active; 'I' for Inactive)
REMARK    1  A    between atoms: C_2  and  O_3
REMARK    2  A    between atoms: C_2  and  C_4
REMARK    3  A    between atoms: C_6  and  S_7
REMARK    4  A    between atoms: S_7  and  N_10
REMARK    5  A    between atoms: N_10  and  C_11
REMARK    6  A    between atoms: C_14  and  O_15
REMARK    7  A    between atoms: O_15  and  C_16
REMARK    8  A    between atoms: C_30  and  O_31
REMARK                            x       y       z     vdW  Elec       q    Type
REMARK                         _______ _______ _______ _____ _____    ______ ____
ROOT
ATOM      1  S   UNL     1       3.651   2.965  18.064  0.00  0.00    +0.000 S 
ATOM      2  O   UNL     1       3.366   1.664  17.505  0.00  0.00    +0.000 OA
ATOM      3  O   UNL     1       4.114   3.139  19.426  0.00  0.00    +0.000 OA
ENDROOT
BRANCH   1   6
ATOM      4  C   UNL     1       5.811   4.059  14.800  0.00  0.00    +0.000 A 
ATOM      5  C   UNL     1       4.888   3.435  15.643  0.00  0.00    +0.000 A 
ATOM      6  C   UNL     1       4.895   3.716  17.014  0.00  0.00    +0.000 A 
ATOM      7  C   UNL     1       5.855   4.606  17.587  0.00  0.00    +0.000 A 
ATOM      8  C   UNL     1       5.928   4.919  18.971  0.00  0.00    +0.000 A 
ATOM      9  C   UNL     1       6.876   5.800  19.492  0.00  0.00    +0.000 A 
ATOM     10  C   UNL     1       7.786   6.408  18.648  0.00  0.00    +0.000 A 
ATOM     11  C   UNL     1       7.743   6.135  17.283  0.00  0.00    +0.000 A 
ATOM     12  C   UNL     1       6.799   5.235  16.725  0.00  0.00    +0.000 A 
ATOM     13  C   UNL     1       6.750   4.951  15.337  0.00  0.00    +0.000 A 
BRANCH   4  15
ATOM     14  O   UNL     1       4.748   3.802  12.693  0.00  0.00    +0.000 OA
ATOM     15  C   UNL     1       5.769   3.711  13.354  0.00  0.00    +0.000 C 
BRANCH  15  16
ATOM     16  O   UNL     1       6.960   3.361  12.827  0.00  0.00    +0.000 OA
ATOM     17  H   UNL     1       7.380   2.619  13.317  0.00  0.00    +0.000 HD
ENDBRANCH  15  16
ENDBRANCH   4  15
BRANCH  13  18
ATOM     18  O   UNL     1       7.614   5.563  14.454  0.00  0.00    +0.000 OA
ATOM     19  H   UNL     1       7.146   5.720  13.614  0.00  0.00    +0.000 HD
ENDBRANCH  13  18
ENDBRANCH   1   6
BRANCH   1  20
ATOM     20  N   UNL     1       2.224   3.883  17.841  0.00  0.00    +0.000 N 
ATOM     21  H   UNL     1       1.450   3.267  18.102  0.00  0.00    +0.000 HD
BRANCH  20  22
ATOM     22  C   UNL     1       2.183   5.072  18.651  0.00  0.00    +0.000 A 
ATOM     23  C   UNL     1       1.648   4.999  19.937  0.00  0.00    +0.000 A 
ATOM     24  C   UNL     1       1.545   6.151  20.724  0.00  0.00    +0.000 A 
ATOM     25  C   UNL     1       1.965   7.386  20.223  0.00  0.00    +0.000 A 
ATOM     26  C   UNL     1       2.442   7.470  18.911  0.00  0.00    +0.000 A 
ATOM     27  C   UNL     1       2.571   6.312  18.133  0.00  0.00    +0.000 A 
BRANCH  25  28
ATOM     28  O   UNL     1       1.801   8.469  21.062  0.00  0.00    +0.000 OA
BRANCH  28  29
ATOM     29  C   UNL     1       0.832   9.412  20.795  0.00  0.00    +0.000 A 
ATOM     30  C   UNL     1       0.281  10.064  21.901  0.00  0.00    +0.000 A 
ATOM     31  C   UNL     1      -0.714  11.035  21.724  0.00  0.00    +0.000 A 
ATOM     32  C   UNL     1      -1.155  11.352  20.439  0.00  0.00    +0.000 A 
ATOM     33  C   UNL     1      -0.582  10.728  19.333  0.00  0.00    +0.000 A 
ATOM     34  C   UNL     1       0.429   9.784  19.508  0.00  0.00    +0.000 A 
ENDBRANCH  28  29
ENDBRANCH  25  28
ENDBRANCH  20  22
ENDBRANCH   1  20
TORSDOF 8
ENDMDL
MODEL 2
REMARK VINA RESULT:      -8.4      4.679     11.108
REMARK  Name = 
REMARK  8 active torsions:
REMARK  status: ('A' for Active; 'I' for Inactive)
REMARK    1  A    between atoms: C_2  and  O_3
REMARK    2  A    between atoms: C_2  and  C_4
REMARK    3  A    between atoms: C_6  and  S_7
REMARK    4  A    between atoms: S_7  and  N_10
REMARK    5  A    between atoms: N_10  and  C_11
REMARK    6  A    between atoms: C_14  and  O_15
REMARK    7  A    between atoms: O_15  and  C_16
REMARK    8  A    between atoms: C_30  and  O_31
REMARK                            x       y       z     vdW  Elec       q    Type
REMARK                         _______ _______ _______ _____ _____    ______ ____
ROOT
ATOM      1  S   UNL     1      -1.500  11.307  18.519  0.00  0.00    +0.000 S 
ATOM      2  O   UNL     1      -1.777   9.900  18.337  0.00  0.00    +0.000 OA
ATOM      3  O   UNL     1      -1.490  12.244  17.414  0.00  0.00    +0.000 OA
ENDROOT
BRANCH   1   6
ATOM      4  C   UNL     1      -3.218  12.839  21.868  0.00  0.00    +0.000 A 
ATOM      5  C   UNL     1      -2.296  12.298  20.968  0.00  0.00    +0.000 A 
ATOM      6  C   UNL     1      -2.714  11.923  19.686  0.00  0.00    +0.000 A 
ATOM      7  C   UNL     1      -4.079  12.046  19.281  0.00  0.00    +0.000 A 
ATOM      8  C   UNL     1      -4.571  11.667  18.003  0.00  0.00    +0.000 A 
ATOM      9  C   UNL     1      -5.911  11.809  17.642  0.00  0.00    +0.000 A 
ATOM     10  C   UNL     1      -6.813  12.341  18.544  0.00  0.00    +0.000 A 
ATOM     11  C   UNL     1      -6.370  12.733  19.805  0.00  0.00    +0.000 A 
ATOM     12  C   UNL     1      -5.017  12.590  20.206  0.00  0.00    +0.000 A 
ATOM     13  C   UNL     1      -4.559  12.986  21.487  0.00  0.00    +0.000 A 
BRANCH   4  15
ATOM     14  O   UNL     1      -3.439  13.160  24.210  0.00  0.00    +0.000 OA
ATOM     15  C   UNL     1      -2.723  13.205  23.223  0.00  0.00    +0.000 C 
BRANCH  15  16
ATOM     16  O   UNL     1      -1.412  13.515  23.276  0.00  0.00    +0.000 OA
ATOM     17  H   UNL     1      -1.165  14.202  22.618  0.00  0.00    +0.000 HD
ENDBRANCH  15  16
ENDBRANCH   4  15
BRANCH  13  18
ATOM     18  O   UNL     1      -5.416  13.556  22.404  0.00  0.00    +0.000 OA
ATOM     19  H   UNL     1      -6.270  13.733  21.970  0.00  0.00    +0.000 HD
ENDBRANCH  13  18
ENDBRANCH   1   6
BRANCH   1  20
ATOM     20  N   UNL     1       0.010  11.378  19.322  0.00  0.00    +0.000 N 
ATOM     21  H   UNL     1      -0.197  11.658  20.284  0.00  0.00    +0.000 HD
BRANCH  20  22
ATOM     22  C   UNL     1       0.707  10.120  19.329  0.00  0.00    +0.000 A 
ATOM     23  C   UNL     1       0.767   9.384  20.512  0.00  0.00    +0.000 A 
ATOM     24  C   UNL     1       1.487   8.184  20.561  0.00  0.00    +0.000 A 
ATOM     25  C   UNL     1       2.161   7.722  19.428  0.00  0.00    +0.000 A 
ATOM     26  C   UNL     1       2.153   8.492  18.260  0.00  0.00    +0.000 A 
ATOM     27  C   UNL     1       1.410   9.678  18.204  0.00  0.00    +0.000 A 
BRANCH  25  28
ATOM     28  O   UNL     1       2.863   6.544  19.580  0.00  0.00    +0.000 OA
BRANCH  28  29
ATOM     29  C   UNL     1       2.203   5.335  19.546  0.00  0.00    +0.000 A 
ATOM     30  C   UNL     1       2.036   4.756  18.285  0.00  0.00    +0.000 A 
ATOM     31  C   UNL     1       1.371   3.528  18.155  0.00  0.00    +0.000 A 
ATOM     32  C   UNL     1       0.876   2.883  19.288  0.00  0.00    +0.000 A 
ATOM     33  C   UNL     1       1.073   3.441  20.549  0.00  0.00    +0.000 A 
ATOM     34  C   UNL     1       1.760   4.647  20.681  0.00  0.00    +0.000 A 
ENDBRANCH  28  29
ENDBRANCH  25  28
ENDBRANCH  20  22
ENDBRANCH   1  20
TORSDOF 8
ENDMDL
MODEL 3
REMARK VINA RESULT:      -8.4      4.623     11.035
REMARK  Name = 
REMARK  8 active torsions:
REMARK  status: ('A' for Active; 'I' for Inactive)
REMARK    1  A    between atoms: C_2  and  O_3
REMARK    2  A    between atoms: C_2  and  C_4
REMARK    3  A    between atoms: C_6  and  S_7
REMARK    4  A    between atoms: S_7  and  N_10
REMARK    5  A    between atoms: N_10  and  C_11
REMARK    6  A    between atoms: C_14  and  O_15
REMARK    7  A    between atoms: O_15  and  C_16
REMARK    8  A    between atoms: C_30  and  O_31
REMARK                            x       y       z     vdW  Elec       q    Type
REMARK                         _______ _______ _______ _____ _____    ______ ____
ROOT
ATOM      1  S   UNL     1      -1.161  11.578  18.628  0.00  0.00    +0.000 S 
ATOM      2  O   UNL     1      -1.418  10.269  18.074  0.00  0.00    +0.000 OA
ATOM      3  O   UNL     1      -0.938  12.742  17.795  0.00  0.00    +0.000 OA
ENDROOT
BRANCH   1   6
ATOM      4  C   UNL     1      -3.405  12.624  21.851  0.00  0.00    +0.000 A 
ATOM      5  C   UNL     1      -2.335  12.252  21.033  0.00  0.00    +0.000 A 
ATOM      6  C   UNL     1      -2.559  11.976  19.679  0.00  0.00    +0.000 A 
ATOM      7  C   UNL     1      -3.870  12.030  19.114  0.00  0.00    +0.000 A 
ATOM      8  C   UNL     1      -4.167  11.744  17.754  0.00  0.00    +0.000 A 
ATOM      9  C   UNL     1      -5.461  11.816  17.236  0.00  0.00    +0.000 A 
ATOM     10  C   UNL     1      -6.509  12.181  18.059  0.00  0.00    +0.000 A 
ATOM     11  C   UNL     1      -6.260  12.478  19.396  0.00  0.00    +0.000 A 
ATOM     12  C   UNL     1      -4.958  12.403  19.954  0.00  0.00    +0.000 A 
ATOM     13  C   UNL     1      -4.698  12.703  21.315  0.00  0.00    +0.000 A 
BRANCH   4  15
ATOM     14  O   UNL     1      -2.445  13.845  23.648  0.00  0.00    +0.000 OA
ATOM     15  C   UNL     1      -3.113  12.890  23.286  0.00  0.00    +0.000 C 
BRANCH  15  16
ATOM     16  O   UNL     1      -3.706  12.036  24.146  0.00  0.00    +0.000 OA
ATOM     17  H   UNL     1      -3.971  12.475  24.984  0.00  0.00    +0.000 HD
ENDBRANCH  15  16
ENDBRANCH   4  15
BRANCH  13  18
ATOM     18  O   UNL     1      -5.707  13.108  22.161  0.00  0.00    +0.000 OA
ATOM     19  H   UNL     1      -5.953  12.362  22.738  0.00  0.00    +0.000 HD
ENDBRANCH  13  18
ENDBRANCH   1   6
BRANCH   1  20
ATOM     20  N   UNL     1       0.178  11.379  19.675  0.00  0.00    +0.000 N 
ATOM     21  H   UNL     1      -0.198  11.427  20.624  0.00  0.00    +0.000 HD
BRANCH  20  22
ATOM     22  C   UNL     1       0.858  10.124  19.491  0.00  0.00    +0.000 A 
ATOM     23  C   UNL     1       0.859   9.195  20.531  0.00  0.00    +0.000 A 
ATOM     24  C   UNL     1       1.560   7.991  20.400  0.00  0.00    +0.000 A 
ATOM     25  C   UNL     1       2.275   7.717  19.232  0.00  0.00    +0.000 A 
ATOM     26  C   UNL     1       2.326   8.676  18.215  0.00  0.00    +0.000 A 
ATOM     27  C   UNL     1       1.602   9.869  18.335  0.00  0.00    +0.000 A 
BRANCH  25  28
ATOM     28  O   UNL     1       2.955   6.516  19.205  0.00  0.00    +0.000 OA
BRANCH  28  29
ATOM     29  C   UNL     1       2.261   5.326  19.258  0.00  0.00    +0.000 A 
ATOM     30  C   UNL     1       1.876   4.891  20.529  0.00  0.00    +0.000 A 
ATOM     31  C   UNL     1       1.171   3.688  20.679  0.00  0.00    +0.000 A 
ATOM     32  C   UNL     1       0.852   2.926  19.555  0.00  0.00    +0.000 A 
ATOM     33  C   UNL     1       1.203   3.376  18.285  0.00  0.00    +0.000 A 
ATOM     34  C   UNL     1       1.879   4.587  18.134  0.00  0.00    +0.000 A 
ENDBRANCH  28  29
ENDBRANCH  25  28
ENDBRANCH  20  22
ENDBRANCH   1  20
TORSDOF 8
ENDMDL
MODEL 4
REMARK VINA RESULT:      -8.4      0.263      1.252
REMARK  Name = 
REMARK  8 active torsions:
REMARK  status: ('A' for Active; 'I' for Inactive)
REMARK    1  A    between atoms: C_2  and  O_3
REMARK    2  A    between atoms: C_2  and  C_4
REMARK    3  A    between atoms: C_6  and  S_7
REMARK    4  A    between atoms: S_7  and  N_10
REMARK    5  A    between atoms: N_10  and  C_11
REMARK    6  A    between atoms: C_14  and  O_15
REMARK    7  A    between atoms: O_15  and  C_16
REMARK    8  A    between atoms: C_30  and  O_31
REMARK                            x       y       z     vdW  Elec       q    Type
REMARK                         _______ _______ _______ _____ _____    ______ ____
ROOT
ATOM      1  S   UNL     1       3.741   2.897  18.104  0.00  0.00    +0.000 S 
ATOM      2  O   UNL     1       3.560   1.552  17.609  0.00  0.00    +0.000 OA
ATOM      3  O   UNL     1       4.162   3.172  19.463  0.00  0.00    +0.000 OA
ENDROOT
BRANCH   1   6
ATOM      4  C   UNL     1       5.831   4.047  14.813  0.00  0.00    +0.000 A 
ATOM      5  C   UNL     1       4.934   3.399  15.667  0.00  0.00    +0.000 A 
ATOM      6  C   UNL     1       4.953   3.679  17.038  0.00  0.00    +0.000 A 
ATOM      7  C   UNL     1       5.900   4.591  17.600  0.00  0.00    +0.000 A 
ATOM      8  C   UNL     1       5.984   4.903  18.983  0.00  0.00    +0.000 A 
ATOM      9  C   UNL     1       6.917   5.806  19.493  0.00  0.00    +0.000 A 
ATOM     10  C   UNL     1       7.801   6.436  18.638  0.00  0.00    +0.000 A 
ATOM     11  C   UNL     1       7.746   6.164  17.273  0.00  0.00    +0.000 A 
ATOM     12  C   UNL     1       6.817   5.243  16.726  0.00  0.00    +0.000 A 
ATOM     13  C   UNL     1       6.756   4.960  15.338  0.00  0.00    +0.000 A 
BRANCH   4  15
ATOM     14  O   UNL     1       4.752   3.793  12.714  0.00  0.00    +0.000 OA
ATOM     15  C   UNL     1       5.778   3.700  13.367  0.00  0.00    +0.000 C 
BRANCH  15  16
ATOM     16  O   UNL     1       6.965   3.347  12.831  0.00  0.00    +0.000 OA
ATOM     17  H   UNL     1       7.067   3.670  11.909  0.00  0.00    +0.000 HD
ENDBRANCH  15  16
ENDBRANCH   4  15
BRANCH  13  18
ATOM     18  O   UNL     1       7.593   5.594  14.445  0.00  0.00    +0.000 OA
ATOM     19  H   UNL     1       7.084   5.827  13.648  0.00  0.00    +0.000 HD
ENDBRANCH  13  18
ENDBRANCH   1   6
BRANCH   1  20
ATOM     20  N   UNL     1       2.260   3.700  17.807  0.00  0.00    +0.000 N 
ATOM     21  H   UNL     1       1.525   3.044  18.083  0.00  0.00    +0.000 HD
BRANCH  20  22
ATOM     22  C   UNL     1       2.117   4.921  18.556  0.00  0.00    +0.000 A 
ATOM     23  C   UNL     1       2.583   6.114  18.004  0.00  0.00    +0.000 A 
ATOM     24  C   UNL     1       2.508   7.305  18.734  0.00  0.00    +0.000 A 
ATOM     25  C   UNL     1       1.978   7.306  20.026  0.00  0.00    +0.000 A 
ATOM     26  C   UNL     1       1.570   6.099  20.604  0.00  0.00    +0.000 A 
ATOM     27  C   UNL     1       1.619   4.912  19.863  0.00  0.00    +0.000 A 
BRANCH  25  28
ATOM     28  O   UNL     1       1.969   8.523  20.677  0.00  0.00    +0.000 OA
BRANCH  28  29
ATOM     29  C   UNL     1       0.943   9.417  20.458  0.00  0.00    +0.000 A 
ATOM     30  C   UNL     1       0.627   9.681  19.122  0.00  0.00    +0.000 A 
ATOM     31  C   UNL     1      -0.399  10.582  18.805  0.00  0.00    +0.000 A 
ATOM     32  C   UNL     1      -1.108  11.215  19.826  0.00  0.00    +0.000 A 
ATOM     33  C   UNL     1      -0.818  10.926  21.157  0.00  0.00    +0.000 A 
ATOM     34  C   UNL     1       0.183  10.008  21.472  0.00  0.00    +0.000 A 
ENDBRANCH  28  29
ENDBRANCH  25  28
ENDBRANCH  20  22
ENDBRANCH   1  20
TORSDOF 8
ENDMDL
MODEL 5
REMARK VINA RESULT:      -8.3      0.247      1.060
REMARK  Name = 
REMARK  8 active torsions:
REMARK  status: ('A' for Active; 'I' for Inactive)
REMARK    1  A    between atoms: C_2  and  O_3
REMARK    2  A    between atoms: C_2  and  C_4
REMARK    3  A    between atoms: C_6  and  S_7
REMARK    4  A    between atoms: S_7  and  N_10
REMARK    5  A    between atoms: N_10  and  C_11
REMARK    6  A    between atoms: C_14  and  O_15
REMARK    7  A    between atoms: O_15  and  C_16
REMARK    8  A    between atoms: C_30  and  O_31
REMARK                            x       y       z     vdW  Elec       q    Type
REMARK                         _______ _______ _______ _____ _____    ______ ____
ROOT
ATOM      1  S   UNL     1       3.745   2.896  18.047  0.00  0.00    +0.000 S 
ATOM      2  O   UNL     1       3.496   1.596  17.469  0.00  0.00    +0.000 OA
ATOM      3  O   UNL     1       4.188   3.064  19.416  0.00  0.00    +0.000 OA
ENDROOT
BRANCH   1   6
ATOM      4  C   UNL     1       5.912   4.086  14.821  0.00  0.00    +0.000 A 
ATOM      5  C   UNL     1       4.993   3.430  15.644  0.00  0.00    +0.000 A 
ATOM      6  C   UNL     1       4.984   3.687  17.020  0.00  0.00    +0.000 A 
ATOM      7  C   UNL     1       5.925   4.583  17.617  0.00  0.00    +0.000 A 
ATOM      8  C   UNL     1       5.981   4.872  19.006  0.00  0.00    +0.000 A 
ATOM      9  C   UNL     1       6.910   5.759  19.552  0.00  0.00    +0.000 A 
ATOM     10  C   UNL     1       7.816   6.397  18.726  0.00  0.00    +0.000 A 
ATOM     11  C   UNL     1       7.788   6.148  17.356  0.00  0.00    +0.000 A 
ATOM     12  C   UNL     1       6.865   5.243  16.774  0.00  0.00    +0.000 A 
ATOM     13  C   UNL     1       6.831   4.984  15.381  0.00  0.00    +0.000 A 
BRANCH   4  15
ATOM     14  O   UNL     1       6.909   3.579  12.726  0.00  0.00    +0.000 OA
ATOM     15  C   UNL     1       5.888   3.763  13.368  0.00  0.00    +0.000 C 
BRANCH  15  16
ATOM     16  O   UNL     1       4.652   3.621  12.846  0.00  0.00    +0.000 OA
ATOM     17  H   UNL     1       4.156   2.881  13.260  0.00  0.00    +0.000 HD
ENDBRANCH  15  16
ENDBRANCH   4  15
BRANCH  13  18
ATOM     18  O   UNL     1       7.692   5.626  14.517  0.00  0.00    +0.000 OA
ATOM     19  H   UNL     1       7.872   6.520  14.859  0.00  0.00    +0.000 HD
ENDBRANCH  13  18
ENDBRANCH   1   6
BRANCH   1  20
ATOM     20  N   UNL     1       2.300   3.785  17.817  0.00  0.00    +0.000 N 
ATOM     21  H   UNL     1       1.540   3.166  18.108  0.00  0.00    +0.000 HD
BRANCH  20  22
ATOM     22  C   UNL     1       2.253   4.998  18.590  0.00  0.00    +0.000 A 
ATOM     23  C   UNL     1       1.692   4.967  19.866  0.00  0.00    +0.000 A 
ATOM     24  C   UNL     1       1.582   6.144  20.616  0.00  0.00    +0.000 A 
ATOM     25  C   UNL     1       2.021   7.359  20.087  0.00  0.00    +0.000 A 
ATOM     26  C   UNL     1       2.526   7.400  18.783  0.00  0.00    +0.000 A 
ATOM     27  C   UNL     1       2.661   6.219  18.043  0.00  0.00    +0.000 A 
BRANCH  25  28
ATOM     28  O   UNL     1       1.849   8.468  20.890  0.00  0.00    +0.000 OA
BRANCH  28  29
ATOM     29  C   UNL     1       0.874   9.395  20.591  0.00  0.00    +0.000 A 
ATOM     30  C   UNL     1       0.617   9.607  19.234  0.00  0.00    +0.000 A 
ATOM     31  C   UNL     1      -0.355  10.535  18.837  0.00  0.00    +0.000 A 
ATOM     32  C   UNL     1      -1.069  11.248  19.799  0.00  0.00    +0.000 A 
ATOM     33  C   UNL     1      -0.839  11.013  21.153  0.00  0.00    +0.000 A 
ATOM     34  C   UNL     1       0.107  10.067  21.548  0.00  0.00    +0.000 A 
ENDBRANCH  28  29
ENDBRANCH  25  28
ENDBRANCH  20  22
ENDBRANCH   1  20
TORSDOF 8
ENDMDL
MODEL 6
REMARK VINA RESULT:      -8.2      4.649     10.826
REMARK  Name = 
REMARK  8 active torsions:
REMARK  status: ('A' for Active; 'I' for Inactive)
REMARK    1  A    between atoms: C_2  and  O_3
REMARK    2  A    between atoms: C_2  and  C_4
REMARK    3  A    between atoms: C_6  and  S_7
REMARK    4  A    between atoms: S_7  and  N_10
REMARK    5  A    between atoms: N_10  and  C_11
REMARK    6  A    between atoms: C_14  and  O_15
REMARK    7  A    between atoms: O_15  and  C_16
REMARK    8  A    between atoms: C_30  and  O_31
REMARK                            x       y       z     vdW  Elec       q    Type
REMARK                         _______ _______ _______ _____ _____    ______ ____
ROOT
ATOM      1  S   UNL     1      -1.509  11.040  18.110  0.00  0.00    +0.000 S 
ATOM      2  O   UNL     1      -1.696   9.620  18.303  0.00  0.00    +0.000 OA
ATOM      3  O   UNL     1      -1.919  11.718  16.897  0.00  0.00    +0.000 OA
ENDROOT
BRANCH   1   6
ATOM      4  C   UNL     1      -2.277  13.019  21.576  0.00  0.00    +0.000 A 
ATOM      5  C   UNL     1      -1.632  12.324  20.550  0.00  0.00    +0.000 A 
ATOM      6  C   UNL     1      -2.368  11.859  19.454  0.00  0.00    +0.000 A 
ATOM      7  C   UNL     1      -3.783  12.046  19.375  0.00  0.00    +0.000 A 
ATOM      8  C   UNL     1      -4.591  11.583  18.301  0.00  0.00    +0.000 A 
ATOM      9  C   UNL     1      -5.970  11.792  18.255  0.00  0.00    +0.000 A 
ATOM     10  C   UNL     1      -6.595  12.477  19.279  0.00  0.00    +0.000 A 
ATOM     11  C   UNL     1      -5.838  12.955  20.346  0.00  0.00    +0.000 A 
ATOM     12  C   UNL     1      -4.437  12.749  20.427  0.00  0.00    +0.000 A 
ATOM     13  C   UNL     1      -3.661  13.231  21.510  0.00  0.00    +0.000 A 
BRANCH   4  15
ATOM     14  O   UNL     1      -0.698  12.725  23.325  0.00  0.00    +0.000 OA
ATOM     15  C   UNL     1      -1.448  13.477  22.725  0.00  0.00    +0.000 C 
BRANCH  15  16
ATOM     16  O   UNL     1      -1.542  14.795  22.994  0.00  0.00    +0.000 OA
ATOM     17  H   UNL     1      -0.713  15.157  23.377  0.00  0.00    +0.000 HD
ENDBRANCH  15  16
ENDBRANCH   4  15
BRANCH  13  18
ATOM     18  O   UNL     1      -4.237  13.952  22.534  0.00  0.00    +0.000 OA
ATOM     19  H   UNL     1      -3.959  13.568  23.385  0.00  0.00    +0.000 HD
ENDBRANCH  13  18
ENDBRANCH   1   6
BRANCH   1  20
ATOM     20  N   UNL     1       0.158  11.323  18.370  0.00  0.00    +0.000 N 
ATOM     21  H   UNL     1       0.212  12.009  19.128  0.00  0.00    +0.000 HD
BRANCH  20  22
ATOM     22  C   UNL     1       0.882  10.138  18.745  0.00  0.00    +0.000 A 
ATOM     23  C   UNL     1       1.557   9.415  17.761  0.00  0.00    +0.000 A 
ATOM     24  C   UNL     1       2.221   8.228  18.089  0.00  0.00    +0.000 A 
ATOM     25  C   UNL     1       2.203   7.751  19.401  0.00  0.00    +0.000 A 
ATOM     26  C   UNL     1       1.474   8.442  20.375  0.00  0.00    +0.000 A 
ATOM     27  C   UNL     1       0.832   9.644  20.052  0.00  0.00    +0.000 A 
BRANCH  25  28
ATOM     28  O   UNL     1       2.864   6.560  19.623  0.00  0.00    +0.000 OA
BRANCH  28  29
ATOM     29  C   UNL     1       2.210   5.361  19.446  0.00  0.00    +0.000 A 
ATOM     30  C   UNL     1       1.642   4.791  20.589  0.00  0.00    +0.000 A 
ATOM     31  C   UNL     1       0.961   3.568  20.504  0.00  0.00    +0.000 A 
ATOM     32  C   UNL     1       0.848   2.921  19.274  0.00  0.00    +0.000 A 
ATOM     33  C   UNL     1       1.382   3.505  18.128  0.00  0.00    +0.000 A 
ATOM     34  C   UNL     1       2.033   4.735  18.208  0.00  0.00    +0.000 A 
ENDBRANCH  28  29
ENDBRANCH  25  28
ENDBRANCH  20  22
ENDBRANCH   1  20
TORSDOF 8
ENDMDL
MODEL 7
REMARK VINA RESULT:      -8.1      4.613      9.926
REMARK  Name = 
REMARK  8 active torsions:
REMARK  status: ('A' for Active; 'I' for Inactive)
REMARK    1  A    between atoms: C_2  and  O_3
REMARK    2  A    between atoms: C_2  and  C_4
REMARK    3  A    between atoms: C_6  and  S_7
REMARK    4  A    between atoms: S_7  and  N_10
REMARK    5  A    between atoms: N_10  and  C_11
REMARK    6  A    between atoms: C_14  and  O_15
REMARK    7  A    between atoms: O_15  and  C_16
REMARK    8  A    between atoms: C_30  and  O_31
REMARK                            x       y       z     vdW  Elec       q    Type
REMARK                         _______ _______ _______ _____ _____    ______ ____
ROOT
ATOM      1  S   UNL     1      -0.641  11.463  19.605  0.00  0.00    +0.000 S 
ATOM      2  O   UNL     1      -0.339  12.808  20.037  0.00  0.00    +0.000 OA
ATOM      3  O   UNL     1      -0.775  10.361  20.536  0.00  0.00    +0.000 OA
ENDROOT
BRANCH   1   6
ATOM      4  C   UNL     1      -3.461  11.046  16.707  0.00  0.00    +0.000 A 
ATOM      5  C   UNL     1      -2.247  11.044  17.400  0.00  0.00    +0.000 A 
ATOM      6  C   UNL     1      -2.190  11.547  18.705  0.00  0.00    +0.000 A 
ATOM      7  C   UNL     1      -3.344  12.100  19.342  0.00  0.00    +0.000 A 
ATOM      8  C   UNL     1      -3.349  12.642  20.655  0.00  0.00    +0.000 A 
ATOM      9  C   UNL     1      -4.499  13.167  21.246  0.00  0.00    +0.000 A 
ATOM     10  C   UNL     1      -5.691  13.165  20.548  0.00  0.00    +0.000 A 
ATOM     11  C   UNL     1      -5.731  12.635  19.261  0.00  0.00    +0.000 A 
ATOM     12  C   UNL     1      -4.577  12.106  18.628  0.00  0.00    +0.000 A 
ATOM     13  C   UNL     1      -4.610  11.566  17.319  0.00  0.00    +0.000 A 
BRANCH   4  15
ATOM     14  O   UNL     1      -2.475  10.572  14.600  0.00  0.00    +0.000 OA
ATOM     15  C   UNL     1      -3.460  10.515  15.317  0.00  0.00    +0.000 C 
BRANCH  15  16
ATOM     16  O   UNL     1      -4.607   9.908  14.949  0.00  0.00    +0.000 OA
ATOM     17  H   UNL     1      -5.386  10.259  15.433  0.00  0.00    +0.000 HD
ENDBRANCH  15  16
ENDBRANCH   4  15
BRANCH  13  18
ATOM     18  O   UNL     1      -5.785  11.510  16.601  0.00  0.00    +0.000 OA
ATOM     19  H   UNL     1      -5.582  11.252  15.684  0.00  0.00    +0.000 HD
ENDBRANCH  13  18
ENDBRANCH   1   6
BRANCH   1  20
ATOM     20  N   UNL     1       0.559  11.071  18.449  0.00  0.00    +0.000 N 
ATOM     21  H   UNL     1       1.268  11.804  18.522  0.00  0.00    +0.000 HD
BRANCH  20  22
ATOM     22  C   UNL     1       1.170   9.789  18.680  0.00  0.00    +0.000 A 
ATOM     23  C   UNL     1       1.126   9.237  19.960  0.00  0.00    +0.000 A 
ATOM     24  C   UNL     1       1.761   8.018  20.224  0.00  0.00    +0.000 A 
ATOM     25  C   UNL     1       2.454   7.352  19.211  0.00  0.00    +0.000 A 
ATOM     26  C   UNL     1       2.551   7.936  17.943  0.00  0.00    +0.000 A 
ATOM     27  C   UNL     1       1.893   9.142  17.672  0.00  0.00    +0.000 A 
BRANCH  25  28
ATOM     28  O   UNL     1       3.069   6.170  19.572  0.00  0.00    +0.000 OA
BRANCH  28  29
ATOM     29  C   UNL     1       2.337   5.005  19.652  0.00  0.00    +0.000 A 
ATOM     30  C   UNL     1       2.022   4.388  18.438  0.00  0.00    +0.000 A 
ATOM     31  C   UNL     1       1.276   3.201  18.423  0.00  0.00    +0.000 A 
ATOM     32  C   UNL     1       0.848   2.634  19.623  0.00  0.00    +0.000 A 
ATOM     33  C   UNL     1       1.190   3.229  20.835  0.00  0.00    +0.000 A 
ATOM     34  C   UNL     1       1.958   4.393  20.851  0.00  0.00    +0.000 A 
ENDBRANCH  28  29
ENDBRANCH  25  28
ENDBRANCH  20  22
ENDBRANCH   1  20
TORSDOF 8
ENDMDL
MODEL 8
REMARK VINA RESULT:      -8.1      3.294      8.625
REMARK  Name = 
REMARK  8 active torsions:
REMARK  status: ('A' for Active; 'I' for Inactive)
REMARK    1  A    between atoms: C_2  and  O_3
REMARK    2  A    between atoms: C_2  and  C_4
REMARK    3  A    between atoms: C_6  and  S_7
REMARK    4  A    between atoms: S_7  and  N_10
REMARK    5  A    between atoms: N_10  and  C_11
REMARK    6  A    between atoms: C_14  and  O_15
REMARK    7  A    between atoms: O_15  and  C_16
REMARK    8  A    between atoms: C_30  and  O_31
REMARK                            x       y       z     vdW  Elec       q    Type
REMARK                         _______ _______ _______ _____ _____    ______ ____
ROOT
ATOM      1  S   UNL     1      -0.103   9.142  21.617  0.00  0.00    +0.000 S 
ATOM      2  O   UNL     1      -0.253   9.980  22.784  0.00  0.00    +0.000 OA
ATOM      3  O   UNL     1      -0.900   7.949  21.412  0.00  0.00    +0.000 OA
ENDROOT
BRANCH   1   6
ATOM      4  C   UNL     1      -1.606  10.612  18.138  0.00  0.00    +0.000 A 
ATOM      5  C   UNL     1      -1.321   9.779  19.224  0.00  0.00    +0.000 A 
ATOM      6  C   UNL     1      -0.396  10.189  20.191  0.00  0.00    +0.000 A 
ATOM      7  C   UNL     1       0.300  11.432  20.077  0.00  0.00    +0.000 A 
ATOM      8  C   UNL     1       1.263  11.897  21.012  0.00  0.00    +0.000 A 
ATOM      9  C   UNL     1       1.915  13.123  20.872  0.00  0.00    +0.000 A 
ATOM     10  C   UNL     1       1.627  13.934  19.791  0.00  0.00    +0.000 A 
ATOM     11  C   UNL     1       0.682  13.519  18.855  0.00  0.00    +0.000 A 
ATOM     12  C   UNL     1       0.011  12.274  18.965  0.00  0.00    +0.000 A 
ATOM     13  C   UNL     1      -0.951  11.845  18.016  0.00  0.00    +0.000 A 
BRANCH   4  15
ATOM     14  O   UNL     1      -3.642   9.602  17.452  0.00  0.00    +0.000 OA
ATOM     15  C   UNL     1      -2.585  10.119  17.131  0.00  0.00    +0.000 C 
BRANCH  15  16
ATOM     16  O   UNL     1      -2.239  10.357  15.850  0.00  0.00    +0.000 OA
ATOM     17  H   UNL     1      -2.437  11.280  15.576  0.00  0.00    +0.000 HD
ENDBRANCH  15  16
ENDBRANCH   4  15
BRANCH  13  18
ATOM     18  O   UNL     1      -1.296  12.638  16.944  0.00  0.00    +0.000 OA
ATOM     19  H   UNL     1      -1.254  13.572  17.217  0.00  0.00    +0.000 HD
ENDBRANCH  13  18
ENDBRANCH   1   6
BRANCH   1  20
ATOM     20  N   UNL     1       1.554   8.719  21.564  0.00  0.00    +0.000 N 
ATOM     21  H   UNL     1       1.756   8.264  22.458  0.00  0.00    +0.000 HD
BRANCH  20  22
ATOM     22  C   UNL     1       1.876   7.822  20.486  0.00  0.00    +0.000 A 
ATOM     23  C   UNL     1       2.052   6.466  20.762  0.00  0.00    +0.000 A 
ATOM     24  C   UNL     1       2.421   5.581  19.742  0.00  0.00    +0.000 A 
ATOM     25  C   UNL     1       2.627   6.052  18.444  0.00  0.00    +0.000 A 
ATOM     26  C   UNL     1       2.512   7.421  18.181  0.00  0.00    +0.000 A 
ATOM     27  C   UNL     1       2.116   8.302  19.195  0.00  0.00    +0.000 A 
BRANCH  25  28
ATOM     28  O   UNL     1       3.012   5.110  17.511  0.00  0.00    +0.000 OA
BRANCH  28  29
ATOM     29  C   UNL     1       4.340   4.980  17.166  0.00  0.00    +0.000 A 
ATOM     30  C   UNL     1       4.626   4.078  16.138  0.00  0.00    +0.000 A 
ATOM     31  C   UNL     1       5.951   3.877  15.724  0.00  0.00    +0.000 A 
ATOM     32  C   UNL     1       6.985   4.582  16.340  0.00  0.00    +0.000 A 
ATOM     33  C   UNL     1       6.698   5.507  17.341  0.00  0.00    +0.000 A 
ATOM     34  C   UNL     1       5.378   5.728  17.732  0.00  0.00    +0.000 A 
ENDBRANCH  28  29
ENDBRANCH  25  28
ENDBRANCH  20  22
ENDBRANCH   1  20
TORSDOF 8
ENDMDL
MODEL 9
REMARK VINA RESULT:      -8.0      4.784     10.990
REMARK  Name = 
REMARK  8 active torsions:
REMARK  status: ('A' for Active; 'I' for Inactive)
REMARK    1  A    between atoms: C_2  and  O_3
REMARK    2  A    between atoms: C_2  and  C_4
REMARK    3  A    between atoms: C_6  and  S_7
REMARK    4  A    between atoms: S_7  and  N_10
REMARK    5  A    between atoms: N_10  and  C_11
REMARK    6  A    between atoms: C_14  and  O_15
REMARK    7  A    between atoms: O_15  and  C_16
REMARK    8  A    between atoms: C_30  and  O_31
REMARK                            x       y       z     vdW  Elec       q    Type
REMARK                         _______ _______ _______ _____ _____    ______ ____
ROOT
ATOM      1  S   UNL     1      -0.367  12.520  19.398  0.00  0.00    +0.000 S 
ATOM      2  O   UNL     1      -0.341  13.741  18.626  0.00  0.00    +0.000 OA
ATOM      3  O   UNL     1       0.574  12.260  20.468  0.00  0.00    +0.000 OA
ENDROOT
BRANCH   1   6
ATOM      4  C   UNL     1      -3.421  12.616  22.079  0.00  0.00    +0.000 A 
ATOM      5  C   UNL     1      -2.147  12.638  21.503  0.00  0.00    +0.000 A 
ATOM      6  C   UNL     1      -2.000  12.409  20.131  0.00  0.00    +0.000 A 
ATOM      7  C   UNL     1      -3.125  12.114  19.299  0.00  0.00    +0.000 A 
ATOM      8  C   UNL     1      -3.042  11.854  17.905  0.00  0.00    +0.000 A 
ATOM      9  C   UNL     1      -4.165  11.577  17.125  0.00  0.00    +0.000 A 
ATOM     10  C   UNL     1      -5.418  11.555  17.708  0.00  0.00    +0.000 A 
ATOM     11  C   UNL     1      -5.544  11.813  19.071  0.00  0.00    +0.000 A 
ATOM     12  C   UNL     1      -4.420  12.086  19.892  0.00  0.00    +0.000 A 
ATOM     13  C   UNL     1      -4.541  12.348  21.280  0.00  0.00    +0.000 A 
BRANCH   4  15
ATOM     14  O   UNL     1      -3.978  12.016  24.307  0.00  0.00    +0.000 OA
ATOM     15  C   UNL     1      -3.517  12.850  23.546  0.00  0.00    +0.000 C 
BRANCH  15  16
ATOM     16  O   UNL     1      -2.990  14.019  23.962  0.00  0.00    +0.000 OA
ATOM     17  H   UNL     1      -3.416  14.794  23.532  0.00  0.00    +0.000 HD
ENDBRANCH  15  16
ENDBRANCH   4  15
BRANCH  13  18
ATOM     18  O   UNL     1      -5.774  12.373  21.895  0.00  0.00    +0.000 OA
ATOM     19  H   UNL     1      -6.303  11.623  21.570  0.00  0.00    +0.000 HD
ENDBRANCH  13  18
ENDBRANCH   1   6
BRANCH   1  20
ATOM     20  N   UNL     1      -0.272  11.250  18.254  0.00  0.00    +0.000 N 
ATOM     21  H   UNL     1       0.168  11.654  17.423  0.00  0.00    +0.000 HD
BRANCH  20  22
ATOM     22  C   UNL     1       0.506  10.131  18.714  0.00  0.00    +0.000 A 
ATOM     23  C   UNL     1       1.427   9.544  17.847  0.00  0.00    +0.000 A 
ATOM     24  C   UNL     1       2.157   8.419  18.249  0.00  0.00    +0.000 A 
ATOM     25  C   UNL     1       1.958   7.869  19.517  0.00  0.00    +0.000 A 
ATOM     26  C   UNL     1       0.989   8.420  20.363  0.00  0.00    +0.000 A 
ATOM     27  C   UNL     1       0.279   9.561  19.970  0.00  0.00    +0.000 A 
BRANCH  25  28
ATOM     28  O   UNL     1       2.704   6.747  19.815  0.00  0.00    +0.000 OA
BRANCH  28  29
ATOM     29  C   UNL     1       2.147   5.492  19.692  0.00  0.00    +0.000 A 
ATOM     30  C   UNL     1       2.131   4.946  18.406  0.00  0.00    +0.000 A 
ATOM     31  C   UNL     1       1.579   3.676  18.187  0.00  0.00    +0.000 A 
ATOM     32  C   UNL     1       1.046   2.956  19.256  0.00  0.00    +0.000 A 
ATOM     33  C   UNL     1       1.093   3.484  20.544  0.00  0.00    +0.000 A 
ATOM     34  C   UNL     1       1.670   4.734  20.766  0.00  0.00    +0.000 A 
ENDBRANCH  28  29
ENDBRANCH  25  28
ENDBRANCH  20  22
ENDBRANCH   1  20
TORSDOF 8
ENDMDL
