MODEL 1
REMARK VINA RESULT:      -6.8      0.000      0.000
REMARK  Name = 
REMARK  3 active torsions:
REMARK  status: ('A' for Active; 'I' for Inactive)
REMARK    1  A    between atoms: C_1  and  C_2
REMARK    2  A    between atoms: C_8  and  C_10
REMARK    3  A    between atoms: N_16  and  C_17
REMARK                            x       y       z     vdW  Elec       q    Type
REMARK                         _______ _______ _______ _____ _____    ______ ____
ROOT
ATOM      1  C   UNL     1      -0.996  10.943  22.982  0.00  0.00    +0.000 C 
ATOM      2  C   UNL     1      -0.758  11.076  21.500  0.00  0.00    +0.000 C 
ATOM      3  O   UNL     1      -0.938  12.156  20.941  0.00  0.00    +0.000 OA
ATOM      4  N   UNL     1      -0.297   9.956  20.832  0.00  0.00    +0.000 N 
ATOM      5  C   UNL     1       0.080  10.057  19.415  0.00  0.00    +0.000 C 
ATOM      6  C   UNL     1       1.503   9.515  19.175  0.00  0.00    +0.000 C 
ATOM      7  N   UNL     1       1.683   8.190  19.791  0.00  0.00    +0.000 N 
ATOM      8  C   UNL     1       2.285   7.176  19.047  0.00  0.00    +0.000 C 
ATOM      9  O   UNL     1       2.730   7.422  17.923  0.00  0.00    +0.000 OA
ATOM     10  C   UNL     1       1.351   8.169  21.222  0.00  0.00    +0.000 C 
ATOM     11  C   UNL     1      -0.100   8.625  21.425  0.00  0.00    +0.000 C 
ENDROOT
BRANCH   8  12
ATOM     12  C   UNL     1       2.389   5.831  19.602  0.00  0.00    +0.000 A 
ATOM     13  C   UNL     1       1.457   5.072  20.305  0.00  0.00    +0.000 A 
ATOM     14  C   UNL     1       2.054   3.852  20.689  0.00  0.00    +0.000 A 
ATOM     15 CL   UNL     1       1.314   2.679  21.664  0.00  0.00    +0.000 Cl
ATOM     16  C   UNL     1       3.295   3.828  20.114  0.00  0.00    +0.000 A 
ATOM     17 CL   UNL     1       4.488   2.605  20.169  0.00  0.00    +0.000 Cl
ATOM     18  N   UNL     1       3.490   4.989  19.414  0.00  0.00    +0.000 N 
ATOM     19  C   UNL     1       4.639   5.329  18.594  0.00  0.00    +0.000 C 
ENDBRANCH   8  12
TORSDOF 1
ENDMDL
MODEL 2
REMARK VINA RESULT:      -6.7      1.199      1.200
REMARK  Name = 
REMARK  3 active torsions:
REMARK  status: ('A' for Active; 'I' for Inactive)
REMARK    1  A    between atoms: C_1  and  C_2
REMARK    2  A    between atoms: C_8  and  C_10
REMARK    3  A    between atoms: N_16  and  C_17
REMARK                            x       y       z     vdW  Elec       q    Type
REMARK                         _______ _______ _______ _____ _____    ______ ____
ROOT
ATOM      1  C   UNL     1      -0.494   9.946  23.180  0.00  0.00    +0.000 C 
ATOM      2  C   UNL     1      -0.265  10.428  21.771  0.00  0.00    +0.000 C 
ATOM      3  O   UNL     1      -0.390  11.621  21.499  0.00  0.00    +0.000 OA
ATOM      4  N   UNL     1       0.124   9.486  20.836  0.00  0.00    +0.000 N 
ATOM      5  C   UNL     1       0.490   9.914  19.479  0.00  0.00    +0.000 C 
ATOM      6  C   UNL     1       1.877   9.376  19.078  0.00  0.00    +0.000 C 
ATOM      7  N   UNL     1       1.989   7.931  19.344  0.00  0.00    +0.000 N 
ATOM      8  C   UNL     1       2.524   7.103  18.359  0.00  0.00    +0.000 C 
ATOM      9  O   UNL     1       2.969   7.595  17.319  0.00  0.00    +0.000 OA
ATOM     10  C   UNL     1       1.672   7.575  20.733  0.00  0.00    +0.000 C 
ATOM     11  C   UNL     1       0.252   8.041  21.078  0.00  0.00    +0.000 C 
ENDROOT
BRANCH   8  12
ATOM     12  C   UNL     1       2.558   5.659  18.563  0.00  0.00    +0.000 A 
ATOM     13  C   UNL     1       1.610   4.684  18.262  0.00  0.00    +0.000 A 
ATOM     14  C   UNL     1       2.080   3.432  18.713  0.00  0.00    +0.000 A 
ATOM     15 CL   UNL     1       1.191   1.989  18.655  0.00  0.00    +0.000 Cl
ATOM     16  C   UNL     1       3.353   3.635  19.170  0.00  0.00    +0.000 A 
ATOM     17 CL   UNL     1       4.466   2.505  19.806  0.00  0.00    +0.000 Cl
ATOM     18  N   UNL     1       3.673   4.961  19.038  0.00  0.00    +0.000 N 
ATOM     19  C   UNL     1       4.953   5.581  19.329  0.00  0.00    +0.000 C 
ENDBRANCH   8  12
TORSDOF 1
ENDMDL
MODEL 3
REMARK VINA RESULT:      -6.6      2.715      3.716
REMARK  Name = 
REMARK  3 active torsions:
REMARK  status: ('A' for Active; 'I' for Inactive)
REMARK    1  A    between atoms: C_1  and  C_2
REMARK    2  A    between atoms: C_8  and  C_10
REMARK    3  A    between atoms: N_16  and  C_17
REMARK                            x       y       z     vdW  Elec       q    Type
REMARK                         _______ _______ _______ _____ _____    ______ ____
ROOT
ATOM      1  C   UNL     1       0.264  10.589  18.367  0.00  0.00    +0.000 C 
ATOM      2  C   UNL     1       0.262   9.859  19.686  0.00  0.00    +0.000 C 
ATOM      3  O   UNL     1      -0.587  10.122  20.535  0.00  0.00    +0.000 OA
ATOM      4  N   UNL     1       1.217   8.874  19.863  0.00  0.00    +0.000 N 
ATOM      5  C   UNL     1       1.185   8.038  21.072  0.00  0.00    +0.000 C 
ATOM      6  C   UNL     1       1.195   6.539  20.714  0.00  0.00    +0.000 C 
ATOM      7  N   UNL     1       2.262   6.225  19.749  0.00  0.00    +0.000 N 
ATOM      8  C   UNL     1       3.078   5.119  19.980  0.00  0.00    +0.000 C 
ATOM      9  O   UNL     1       2.847   4.376  20.937  0.00  0.00    +0.000 OA
ATOM     10  C   UNL     1       2.202   7.051  18.535  0.00  0.00    +0.000 C 
ATOM     11  C   UNL     1       2.286   8.536  18.912  0.00  0.00    +0.000 C 
ENDROOT
BRANCH   8  12
ATOM     12  C   UNL     1       4.200   4.844  19.088  0.00  0.00    +0.000 A 
ATOM     13  C   UNL     1       5.567   5.033  19.275  0.00  0.00    +0.000 A 
ATOM     14  C   UNL     1       6.245   4.675  18.091  0.00  0.00    +0.000 A 
ATOM     15 CL   UNL     1       7.912   4.861  17.839  0.00  0.00    +0.000 Cl
ATOM     16  C   UNL     1       5.304   4.158  17.243  0.00  0.00    +0.000 A 
ATOM     17 CL   UNL     1       5.503   3.512  15.674  0.00  0.00    +0.000 Cl
ATOM     18  N   UNL     1       4.077   4.205  17.850  0.00  0.00    +0.000 N 
ATOM     19  C   UNL     1       2.826   3.684  17.327  0.00  0.00    +0.000 C 
ENDBRANCH   8  12
TORSDOF 1
ENDMDL
MODEL 4
REMARK VINA RESULT:      -6.5      4.130      7.756
REMARK  Name = 
REMARK  3 active torsions:
REMARK  status: ('A' for Active; 'I' for Inactive)
REMARK    1  A    between atoms: C_1  and  C_2
REMARK    2  A    between atoms: C_8  and  C_10
REMARK    3  A    between atoms: N_16  and  C_17
REMARK                            x       y       z     vdW  Elec       q    Type
REMARK                         _______ _______ _______ _____ _____    ______ ____
ROOT
ATOM      1  C   UNL     1       5.234   3.241  12.122  0.00  0.00    +0.000 C 
ATOM      2  C   UNL     1       6.405   3.890  12.814  0.00  0.00    +0.000 C 
ATOM      3  O   UNL     1       7.345   4.329  12.154  0.00  0.00    +0.000 OA
ATOM      4  N   UNL     1       6.344   3.998  14.192  0.00  0.00    +0.000 N 
ATOM      5  C   UNL     1       7.391   4.737  14.912  0.00  0.00    +0.000 C 
ATOM      6  C   UNL     1       6.783   5.813  15.833  0.00  0.00    +0.000 C 
ATOM      7  N   UNL     1       5.704   5.256  16.668  0.00  0.00    +0.000 N 
ATOM      8  C   UNL     1       5.685   5.552  18.030  0.00  0.00    +0.000 C 
ATOM      9  O   UNL     1       6.516   6.334  18.500  0.00  0.00    +0.000 OA
ATOM     10  C   UNL     1       4.657   4.586  15.885  0.00  0.00    +0.000 C 
ATOM     11  C   UNL     1       5.275   3.460  15.046  0.00  0.00    +0.000 C 
ENDROOT
BRANCH   8  12
ATOM     12  C   UNL     1       4.682   4.936  18.893  0.00  0.00    +0.000 A 
ATOM     13  C   UNL     1       4.744   3.776  19.661  0.00  0.00    +0.000 A 
ATOM     14  C   UNL     1       3.489   3.563  20.271  0.00  0.00    +0.000 A 
ATOM     15 CL   UNL     1       3.086   2.203  21.200  0.00  0.00    +0.000 Cl
ATOM     16  C   UNL     1       2.719   4.652  19.970  0.00  0.00    +0.000 A 
ATOM     17 CL   UNL     1       1.118   5.008  20.448  0.00  0.00    +0.000 Cl
ATOM     18  N   UNL     1       3.441   5.512  19.184  0.00  0.00    +0.000 N 
ATOM     19  C   UNL     1       3.023   6.819  18.712  0.00  0.00    +0.000 C 
ENDBRANCH   8  12
TORSDOF 1
ENDMDL
MODEL 5
REMARK VINA RESULT:      -6.5      4.353      7.467
REMARK  Name = 
REMARK  3 active torsions:
REMARK  status: ('A' for Active; 'I' for Inactive)
REMARK    1  A    between atoms: C_1  and  C_2
REMARK    2  A    between atoms: C_8  and  C_10
REMARK    3  A    between atoms: N_16  and  C_17
REMARK                            x       y       z     vdW  Elec       q    Type
REMARK                         _______ _______ _______ _____ _____    ______ ____
ROOT
ATOM      1  C   UNL     1       4.973   3.889  12.551  0.00  0.00    +0.000 C 
ATOM      2  C   UNL     1       6.198   3.893  13.428  0.00  0.00    +0.000 C 
ATOM      3  O   UNL     1       7.319   3.894  12.922  0.00  0.00    +0.000 OA
ATOM      4  N   UNL     1       5.995   3.940  14.796  0.00  0.00    +0.000 N 
ATOM      5  C   UNL     1       7.147   4.080  15.699  0.00  0.00    +0.000 C 
ATOM      6  C   UNL     1       6.955   5.260  16.670  0.00  0.00    +0.000 C 
ATOM      7  N   UNL     1       5.634   5.210  17.321  0.00  0.00    +0.000 N 
ATOM      8  C   UNL     1       5.554   5.404  18.699  0.00  0.00    +0.000 C 
ATOM      9  O   UNL     1       6.568   5.695  19.338  0.00  0.00    +0.000 OA
ATOM     10  C   UNL     1       4.522   5.135  16.364  0.00  0.00    +0.000 C 
ATOM     11  C   UNL     1       4.689   3.899  15.469  0.00  0.00    +0.000 C 
ENDROOT
BRANCH   8  12
ATOM     12  C   UNL     1       4.270   5.265  19.379  0.00  0.00    +0.000 A 
ATOM     13  C   UNL     1       3.272   6.205  19.621  0.00  0.00    +0.000 A 
ATOM     14  C   UNL     1       2.245   5.600  20.378  0.00  0.00    +0.000 A 
ATOM     15 CL   UNL     1       0.892   6.415  20.994  0.00  0.00    +0.000 Cl
ATOM     16  C   UNL     1       2.568   4.275  20.483  0.00  0.00    +0.000 A 
ATOM     17 CL   UNL     1       1.707   3.011  21.244  0.00  0.00    +0.000 Cl
ATOM     18  N   UNL     1       3.758   4.048  19.842  0.00  0.00    +0.000 N 
ATOM     19  C   UNL     1       4.413   2.767  19.650  0.00  0.00    +0.000 C 
ENDBRANCH   8  12
TORSDOF 1
ENDMDL
MODEL 6
REMARK VINA RESULT:      -6.4      2.939      3.961
REMARK  Name = 
REMARK  3 active torsions:
REMARK  status: ('A' for Active; 'I' for Inactive)
REMARK    1  A    between atoms: C_1  and  C_2
REMARK    2  A    between atoms: C_8  and  C_10
REMARK    3  A    between atoms: N_16  and  C_17
REMARK                            x       y       z     vdW  Elec       q    Type
REMARK                         _______ _______ _______ _____ _____    ______ ____
ROOT
ATOM      1  C   UNL     1       0.350  10.421  18.660  0.00  0.00    +0.000 C 
ATOM      2  C   UNL     1       0.549   9.562  19.883  0.00  0.00    +0.000 C 
ATOM      3  O   UNL     1      -0.143   9.744  20.883  0.00  0.00    +0.000 OA
ATOM      4  N   UNL     1       1.497   8.559  19.802  0.00  0.00    +0.000 N 
ATOM      5  C   UNL     1       1.645   7.605  20.911  0.00  0.00    +0.000 C 
ATOM      6  C   UNL     1       1.562   6.150  20.411  0.00  0.00    +0.000 C 
ATOM      7  N   UNL     1       2.448   5.928  19.256  0.00  0.00    +0.000 N 
ATOM      8  C   UNL     1       3.266   4.799  19.239  0.00  0.00    +0.000 C 
ATOM      9  O   UNL     1       3.178   3.965  20.143  0.00  0.00    +0.000 OA
ATOM     10  C   UNL     1       2.208   6.872  18.156  0.00  0.00    +0.000 C 
ATOM     11  C   UNL     1       2.387   8.311  18.658  0.00  0.00    +0.000 C 
ENDROOT
BRANCH   8  12
ATOM     12  C   UNL     1       4.219   4.608  18.151  0.00  0.00    +0.000 A 
ATOM     13  C   UNL     1       4.007   4.280  16.814  0.00  0.00    +0.000 A 
ATOM     14  C   UNL     1       5.257   4.144  16.172  0.00  0.00    +0.000 A 
ATOM     15 CL   UNL     1       5.467   3.637  14.567  0.00  0.00    +0.000 Cl
ATOM     16  C   UNL     1       6.207   4.508  17.086  0.00  0.00    +0.000 A 
ATOM     17 CL   UNL     1       7.904   4.595  16.904  0.00  0.00    +0.000 Cl
ATOM     18  N   UNL     1       5.594   4.840  18.265  0.00  0.00    +0.000 N 
ATOM     19  C   UNL     1       6.232   5.356  19.463  0.00  0.00    +0.000 C 
ENDBRANCH   8  12
TORSDOF 1
ENDMDL
MODEL 7
REMARK VINA RESULT:      -6.2      1.740      1.850
REMARK  Name = 
REMARK  3 active torsions:
REMARK  status: ('A' for Active; 'I' for Inactive)
REMARK    1  A    between atoms: C_1  and  C_2
REMARK    2  A    between atoms: C_8  and  C_10
REMARK    3  A    between atoms: N_16  and  C_17
REMARK                            x       y       z     vdW  Elec       q    Type
REMARK                         _______ _______ _______ _____ _____    ______ ____
ROOT
ATOM      1  C   UNL     1      -0.176   9.573  23.612  0.00  0.00    +0.000 C 
ATOM      2  C   UNL     1      -0.365  10.214  22.262  0.00  0.00    +0.000 C 
ATOM      3  O   UNL     1      -0.803  11.361  22.179  0.00  0.00    +0.000 OA
ATOM      4  N   UNL     1       0.010   9.476  21.154  0.00  0.00    +0.000 N 
ATOM      5  C   UNL     1      -0.026  10.094  19.820  0.00  0.00    +0.000 C 
ATOM      6  C   UNL     1       1.326   9.941  19.097  0.00  0.00    +0.000 C 
ATOM      7  N   UNL     1       1.805   8.549  19.143  0.00  0.00    +0.000 N 
ATOM      8  C   UNL     1       2.284   7.961  17.974  0.00  0.00    +0.000 C 
ATOM      9  O   UNL     1       2.377   8.632  16.943  0.00  0.00    +0.000 OA
ATOM     10  C   UNL     1       1.880   8.011  20.508  0.00  0.00    +0.000 C 
ATOM     11  C   UNL     1       0.499   8.090  21.174  0.00  0.00    +0.000 C 
ENDROOT
BRANCH   8  12
ATOM     12  C   UNL     1       2.675   6.555  17.975  0.00  0.00    +0.000 A 
ATOM     13  C   UNL     1       1.901   5.404  18.103  0.00  0.00    +0.000 A 
ATOM     14  C   UNL     1       2.752   4.278  18.109  0.00  0.00    +0.000 A 
ATOM     15 CL   UNL     1       2.237   2.682  18.364  0.00  0.00    +0.000 Cl
ATOM     16  C   UNL     1       4.015   4.741  17.864  0.00  0.00    +0.000 A 
ATOM     17 CL   UNL     1       5.475   3.867  17.709  0.00  0.00    +0.000 Cl
ATOM     18  N   UNL     1       3.977   6.104  17.729  0.00  0.00    +0.000 N 
ATOM     19  C   UNL     1       5.084   6.977  17.383  0.00  0.00    +0.000 C 
ENDBRANCH   8  12
TORSDOF 1
ENDMDL
MODEL 8
REMARK VINA RESULT:      -6.2      1.111      1.236
REMARK  Name = 
REMARK  3 active torsions:
REMARK  status: ('A' for Active; 'I' for Inactive)
REMARK    1  A    between atoms: C_1  and  C_2
REMARK    2  A    between atoms: C_8  and  C_10
REMARK    3  A    between atoms: N_16  and  C_17
REMARK                            x       y       z     vdW  Elec       q    Type
REMARK                         _______ _______ _______ _____ _____    ______ ____
ROOT
ATOM      1  C   UNL     1      -0.335  11.214  21.294  0.00  0.00    +0.000 C 
ATOM      2  C   UNL     1       0.063  11.063  19.848  0.00  0.00    +0.000 C 
ATOM      3  O   UNL     1       0.056  12.041  19.102  0.00  0.00    +0.000 OA
ATOM      4  N   UNL     1       0.464   9.807  19.432  0.00  0.00    +0.000 N 
ATOM      5  C   UNL     1       0.989   9.624  18.070  0.00  0.00    +0.000 C 
ATOM      6  C   UNL     1       2.362   8.925  18.090  0.00  0.00    +0.000 C 
ATOM      7  N   UNL     1       2.336   7.717  18.932  0.00  0.00    +0.000 N 
ATOM      8  C   UNL     1       2.897   6.539  18.440  0.00  0.00    +0.000 C 
ATOM      9  O   UNL     1       3.474   6.544  17.350  0.00  0.00    +0.000 OA
ATOM     10  C   UNL     1       1.864   7.977  20.299  0.00  0.00    +0.000 C 
ATOM     11  C   UNL     1       0.457   8.589  20.254  0.00  0.00    +0.000 C 
ENDROOT
BRANCH   8  12
ATOM     12  C   UNL     1       2.800   5.308  19.217  0.00  0.00    +0.000 A 
ATOM     13  C   UNL     1       1.709   4.738  19.870  0.00  0.00    +0.000 A 
ATOM     14  C   UNL     1       2.135   3.572  20.542  0.00  0.00    +0.000 A 
ATOM     15 CL   UNL     1       1.156   2.632  21.559  0.00  0.00    +0.000 Cl
ATOM     16  C   UNL     1       3.444   3.378  20.194  0.00  0.00    +0.000 A 
ATOM     17 CL   UNL     1       4.505   2.118  20.647  0.00  0.00    +0.000 Cl
ATOM     18  N   UNL     1       3.842   4.385  19.356  0.00  0.00    +0.000 N 
ATOM     19  C   UNL     1       5.128   4.511  18.694  0.00  0.00    +0.000 C 
ENDBRANCH   8  12
TORSDOF 1
ENDMDL
MODEL 9
REMARK VINA RESULT:      -6.0      4.129      7.531
REMARK  Name = 
REMARK  3 active torsions:
REMARK  status: ('A' for Active; 'I' for Inactive)
REMARK    1  A    between atoms: C_1  and  C_2
REMARK    2  A    between atoms: C_8  and  C_10
REMARK    3  A    between atoms: N_16  and  C_17
REMARK                            x       y       z     vdW  Elec       q    Type
REMARK                         _______ _______ _______ _____ _____    ______ ____
ROOT
ATOM      1  C   UNL     1       6.356   4.498  12.533  0.00  0.00    +0.000 C 
ATOM      2  C   UNL     1       7.333   4.872  13.618  0.00  0.00    +0.000 C 
ATOM      3  O   UNL     1       8.394   5.422  13.330  0.00  0.00    +0.000 OA
ATOM      4  N   UNL     1       6.957   4.609  14.923  0.00  0.00    +0.000 N 
ATOM      5  C   UNL     1       7.805   5.070  16.032  0.00  0.00    +0.000 C 
ATOM      6  C   UNL     1       6.993   5.890  17.054  0.00  0.00    +0.000 C 
ATOM      7  N   UNL     1       5.758   5.189  17.443  0.00  0.00    +0.000 N 
ATOM      8  C   UNL     1       5.425   5.108  18.794  0.00  0.00    +0.000 C 
ATOM      9  O   UNL     1       6.119   5.688  19.633  0.00  0.00    +0.000 OA
ATOM     10  C   UNL     1       4.923   4.812  16.294  0.00  0.00    +0.000 C 
ATOM     11  C   UNL     1       5.727   3.920  15.339  0.00  0.00    +0.000 C 
ENDROOT
BRANCH   8  12
ATOM     12  C   UNL     1       4.257   4.338  19.210  0.00  0.00    +0.000 A 
ATOM     13  C   UNL     1       4.101   2.967  19.397  0.00  0.00    +0.000 A 
ATOM     14  C   UNL     1       2.759   2.701  19.741  0.00  0.00    +0.000 A 
ATOM     15 CL   UNL     1       2.103   1.149  19.942  0.00  0.00    +0.000 Cl
ATOM     16  C   UNL     1       2.143   3.914  19.879  0.00  0.00    +0.000 A 
ATOM     17 CL   UNL     1       0.531   4.263  20.323  0.00  0.00    +0.000 Cl
ATOM     18  N   UNL     1       3.046   4.910  19.614  0.00  0.00    +0.000 N 
ATOM     19  C   UNL     1       2.823   6.340  19.726  0.00  0.00    +0.000 C 
ENDBRANCH   8  12
TORSDOF 1
ENDMDL
