MODEL 1
REMARK VINA RESULT:      -6.3      0.000      0.000
REMARK  Name = 
REMARK  5 active torsions:
REMARK  status: ('A' for Active; 'I' for Inactive)
REMARK    1  A    between atoms: C_1  and  N_2
REMARK    2  A    between atoms: C_8  and  C_9
REMARK    3  A    between atoms: C_9  and  C_10
REMARK    4  A    between atoms: C_9  and  C_11
REMARK    5  A    between atoms: C_9  and  C_12
REMARK                            x       y       z     vdW  Elec       q    Type
REMARK                         _______ _______ _______ _____ _____    ______ ____
ROOT
ATOM      1  C   UNL     1      -0.811  10.726  19.633  0.00  0.00    +0.000 C 
ATOM      2  N   UNL     1       0.511  10.110  19.540  0.00  0.00    +0.000 NA
ATOM      3  C   UNL     1       0.801   9.704  18.139  0.00  0.00    +0.000 C 
ATOM      4  C   UNL     1       2.130   8.912  17.981  0.00  0.00    +0.000 C 
ATOM      5  N   UNL     1       2.074   7.777  18.900  0.00  0.00    +0.000 N 
ATOM      6  C   UNL     1       2.710   6.593  18.593  0.00  0.00    +0.000 A 
ATOM      7  C   UNL     1       2.223   5.425  19.156  0.00  0.00    +0.000 A 
ATOM      8  C   UNL     1       2.785   4.216  18.802  0.00  0.00    +0.000 A 
ATOM      9  N   UNL     1       3.800   4.169  17.915  0.00  0.00    +0.000 NA
ATOM     10  C   UNL     1       4.209   5.349  17.412  0.00  0.00    +0.000 A 
ATOM     11  N   UNL     1       3.701   6.560  17.692  0.00  0.00    +0.000 NA
ATOM     12  C   UNL     1       1.918   8.169  20.304  0.00  0.00    +0.000 C 
ATOM     13  C   UNL     1       0.585   8.933  20.438  0.00  0.00    +0.000 C 
ENDROOT
BRANCH   8  14
ATOM     14  C   UNL     1       2.206   2.893  19.312  0.00  0.00    +0.000 C 
ATOM     15  C   UNL     1       3.172   1.762  18.915  0.00  0.00    +0.000 C 
ATOM     16  C   UNL     1       2.058   2.922  20.846  0.00  0.00    +0.000 C 
ATOM     17  C   UNL     1       0.811   2.582  18.723  0.00  0.00    +0.000 C 
ENDBRANCH   8  14
TORSDOF 1
ENDMDL
MODEL 2
REMARK VINA RESULT:      -6.2      2.129      3.838
REMARK  Name = 
REMARK  5 active torsions:
REMARK  status: ('A' for Active; 'I' for Inactive)
REMARK    1  A    between atoms: C_1  and  N_2
REMARK    2  A    between atoms: C_8  and  C_9
REMARK    3  A    between atoms: C_9  and  C_10
REMARK    4  A    between atoms: C_9  and  C_11
REMARK    5  A    between atoms: C_9  and  C_12
REMARK                            x       y       z     vdW  Elec       q    Type
REMARK                         _______ _______ _______ _____ _____    ______ ____
ROOT
ATOM      1  C   UNL     1       0.741  10.757  19.890  0.00  0.00    +0.000 C 
ATOM      2  N   UNL     1       0.880   9.355  19.501  0.00  0.00    +0.000 NA
ATOM      3  C   UNL     1       1.256   8.522  20.675  0.00  0.00    +0.000 C 
ATOM      4  C   UNL     1       1.562   7.040  20.316  0.00  0.00    +0.000 C 
ATOM      5  N   UNL     1       2.585   7.046  19.273  0.00  0.00    +0.000 N 
ATOM      6  C   UNL     1       3.503   6.020  19.186  0.00  0.00    +0.000 A 
ATOM      7  C   UNL     1       4.728   6.289  18.595  0.00  0.00    +0.000 A 
ATOM      8  C   UNL     1       5.697   5.307  18.568  0.00  0.00    +0.000 A 
ATOM      9  N   UNL     1       5.457   4.098  19.111  0.00  0.00    +0.000 NA
ATOM     10  C   UNL     1       4.244   3.922  19.669  0.00  0.00    +0.000 A 
ATOM     11  N   UNL     1       3.260   4.831  19.751  0.00  0.00    +0.000 NA
ATOM     12  C   UNL     1       2.177   7.755  18.057  0.00  0.00    +0.000 C 
ATOM     13  C   UNL     1       1.900   9.224  18.435  0.00  0.00    +0.000 C 
ENDROOT
BRANCH   8  14
ATOM     14  C   UNL     1       7.101   5.596  18.028  0.00  0.00    +0.000 C 
ATOM     15  C   UNL     1       8.077   5.617  19.218  0.00  0.00    +0.000 C 
ATOM     16  C   UNL     1       7.533   4.503  17.032  0.00  0.00    +0.000 C 
ATOM     17  C   UNL     1       7.193   6.951  17.289  0.00  0.00    +0.000 C 
ENDBRANCH   8  14
TORSDOF 1
ENDMDL
MODEL 3
REMARK VINA RESULT:      -6.2      0.202      1.119
REMARK  Name = 
REMARK  5 active torsions:
REMARK  status: ('A' for Active; 'I' for Inactive)
REMARK    1  A    between atoms: C_1  and  N_2
REMARK    2  A    between atoms: C_8  and  C_9
REMARK    3  A    between atoms: C_9  and  C_10
REMARK    4  A    between atoms: C_9  and  C_11
REMARK    5  A    between atoms: C_9  and  C_12
REMARK                            x       y       z     vdW  Elec       q    Type
REMARK                         _______ _______ _______ _____ _____    ______ ____
ROOT
ATOM      1  C   UNL     1      -0.843  10.664  19.809  0.00  0.00    +0.000 C 
ATOM      2  N   UNL     1       0.491  10.089  19.652  0.00  0.00    +0.000 NA
ATOM      3  C   UNL     1       0.737   9.719  18.232  0.00  0.00    +0.000 C 
ATOM      4  C   UNL     1       2.080   8.969  18.006  0.00  0.00    +0.000 C 
ATOM      5  N   UNL     1       2.093   7.816  18.903  0.00  0.00    +0.000 N 
ATOM      6  C   UNL     1       2.750   6.657  18.547  0.00  0.00    +0.000 A 
ATOM      7  C   UNL     1       2.319   5.463  19.104  0.00  0.00    +0.000 A 
ATOM      8  C   UNL     1       2.900   4.278  18.703  0.00  0.00    +0.000 A 
ATOM      9  N   UNL     1       3.880   4.279  17.778  0.00  0.00    +0.000 NA
ATOM     10  C   UNL     1       4.235   5.480  17.283  0.00  0.00    +0.000 A 
ATOM     11  N   UNL     1       3.704   6.669  17.608  0.00  0.00    +0.000 NA
ATOM     12  C   UNL     1       1.982   8.175  20.320  0.00  0.00    +0.000 C 
ATOM     13  C   UNL     1       0.634   8.898  20.522  0.00  0.00    +0.000 C 
ENDROOT
BRANCH   8  14
ATOM     14  C   UNL     1       2.379   2.930  19.209  0.00  0.00    +0.000 C 
ATOM     15  C   UNL     1       0.893   2.817  18.823  0.00  0.00    +0.000 C 
ATOM     16  C   UNL     1       3.163   1.770  18.566  0.00  0.00    +0.000 C 
ATOM     17  C   UNL     1       2.504   2.774  20.741  0.00  0.00    +0.000 C 
ENDBRANCH   8  14
TORSDOF 1
ENDMDL
MODEL 4
REMARK VINA RESULT:      -6.1      1.731      2.469
REMARK  Name = 
REMARK  5 active torsions:
REMARK  status: ('A' for Active; 'I' for Inactive)
REMARK    1  A    between atoms: C_1  and  N_2
REMARK    2  A    between atoms: C_8  and  C_9
REMARK    3  A    between atoms: C_9  and  C_10
REMARK    4  A    between atoms: C_9  and  C_11
REMARK    5  A    between atoms: C_9  and  C_12
REMARK                            x       y       z     vdW  Elec       q    Type
REMARK                         _______ _______ _______ _____ _____    ______ ____
ROOT
ATOM      1  C   UNL     1      -1.422  10.962  23.092  0.00  0.00    +0.000 C 
ATOM      2  N   UNL     1      -0.188  10.614  22.392  0.00  0.00    +0.000 NA
ATOM      3  C   UNL     1      -0.441  10.455  20.934  0.00  0.00    +0.000 C 
ATOM      4  C   UNL     1       0.793   9.945  20.138  0.00  0.00    +0.000 C 
ATOM      5  N   UNL     1       1.244   8.709  20.775  0.00  0.00    +0.000 N 
ATOM      6  C   UNL     1       1.835   7.711  20.029  0.00  0.00    +0.000 A 
ATOM      7  C   UNL     1       1.754   6.410  20.499  0.00  0.00    +0.000 A 
ATOM      8  C   UNL     1       2.262   5.380  19.734  0.00  0.00    +0.000 A 
ATOM      9  N   UNL     1       2.832   5.635  18.540  0.00  0.00    +0.000 NA
ATOM     10  C   UNL     1       2.864   6.926  18.156  0.00  0.00    +0.000 A 
ATOM     11  N   UNL     1       2.376   7.976  18.833  0.00  0.00    +0.000 NA
ATOM     12  C   UNL     1       1.622   8.879  22.181  0.00  0.00    +0.000 C 
ATOM     13  C   UNL     1       0.377   9.364  22.952  0.00  0.00    +0.000 C 
ENDROOT
BRANCH   8  14
ATOM     14  C   UNL     1       2.093   3.919  20.161  0.00  0.00    +0.000 C 
ATOM     15  C   UNL     1       0.715   3.434  19.675  0.00  0.00    +0.000 C 
ATOM     16  C   UNL     1       3.193   3.041  19.535  0.00  0.00    +0.000 C 
ATOM     17  C   UNL     1       2.172   3.729  21.693  0.00  0.00    +0.000 C 
ENDBRANCH   8  14
TORSDOF 1
ENDMDL
MODEL 5
REMARK VINA RESULT:      -6.1      1.675      2.106
REMARK  Name = 
REMARK  5 active torsions:
REMARK  status: ('A' for Active; 'I' for Inactive)
REMARK    1  A    between atoms: C_1  and  N_2
REMARK    2  A    between atoms: C_8  and  C_9
REMARK    3  A    between atoms: C_9  and  C_10
REMARK    4  A    between atoms: C_9  and  C_11
REMARK    5  A    between atoms: C_9  and  C_12
REMARK                            x       y       z     vdW  Elec       q    Type
REMARK                         _______ _______ _______ _____ _____    ______ ____
ROOT
ATOM      1  C   UNL     1      -1.278  11.012  22.954  0.00  0.00    +0.000 C 
ATOM      2  N   UNL     1      -0.060  10.617  22.248  0.00  0.00    +0.000 NA
ATOM      3  C   UNL     1      -0.338  10.413  20.801  0.00  0.00    +0.000 C 
ATOM      4  C   UNL     1       0.875   9.854  20.006  0.00  0.00    +0.000 C 
ATOM      5  N   UNL     1       1.311   8.632  20.677  0.00  0.00    +0.000 N 
ATOM      6  C   UNL     1       1.873   7.598  19.957  0.00  0.00    +0.000 A 
ATOM      7  C   UNL     1       1.774   6.315  20.471  0.00  0.00    +0.000 A 
ATOM      8  C   UNL     1       2.251   5.250  19.735  0.00  0.00    +0.000 A 
ATOM      9  N   UNL     1       2.809   5.455  18.525  0.00  0.00    +0.000 NA
ATOM     10  C   UNL     1       2.860   6.731  18.097  0.00  0.00    +0.000 A 
ATOM     11  N   UNL     1       2.401   7.812  18.746  0.00  0.00    +0.000 NA
ATOM     12  C   UNL     1       1.713   8.841  22.071  0.00  0.00    +0.000 C 
ATOM     13  C   UNL     1       0.489   9.375  22.842  0.00  0.00    +0.000 C 
ENDROOT
BRANCH   8  14
ATOM     14  C   UNL     1       2.062   3.808  20.213  0.00  0.00    +0.000 C 
ATOM     15  C   UNL     1       3.217   2.961  19.649  0.00  0.00    +0.000 C 
ATOM     16  C   UNL     1       2.085   3.740  21.752  0.00  0.00    +0.000 C 
ATOM     17  C   UNL     1       0.723   3.192  19.747  0.00  0.00    +0.000 C 
ENDBRANCH   8  14
TORSDOF 1
ENDMDL
MODEL 6
REMARK VINA RESULT:      -6.1      1.991      3.796
REMARK  Name = 
REMARK  5 active torsions:
REMARK  status: ('A' for Active; 'I' for Inactive)
REMARK    1  A    between atoms: C_1  and  N_2
REMARK    2  A    between atoms: C_8  and  C_9
REMARK    3  A    between atoms: C_9  and  C_10
REMARK    4  A    between atoms: C_9  and  C_11
REMARK    5  A    between atoms: C_9  and  C_12
REMARK                            x       y       z     vdW  Elec       q    Type
REMARK                         _______ _______ _______ _____ _____    ______ ____
ROOT
ATOM      1  C   UNL     1       0.856  10.616  20.145  0.00  0.00    +0.000 C 
ATOM      2  N   UNL     1       0.934   9.214  19.740  0.00  0.00    +0.000 NA
ATOM      3  C   UNL     1       1.468   8.380  20.850  0.00  0.00    +0.000 C 
ATOM      4  C   UNL     1       1.716   6.897  20.452  0.00  0.00    +0.000 C 
ATOM      5  N   UNL     1       2.583   6.900  19.276  0.00  0.00    +0.000 N 
ATOM      6  C   UNL     1       3.476   5.871  19.061  0.00  0.00    +0.000 A 
ATOM      7  C   UNL     1       4.607   6.136  18.304  0.00  0.00    +0.000 A 
ATOM      8  C   UNL     1       5.560   5.151  18.141  0.00  0.00    +0.000 A 
ATOM      9  N   UNL     1       5.394   3.942  18.713  0.00  0.00    +0.000 NA
ATOM     10  C   UNL     1       4.271   3.771  19.436  0.00  0.00    +0.000 A 
ATOM     11  N   UNL     1       3.311   4.683  19.654  0.00  0.00    +0.000 NA
ATOM     12  C   UNL     1       2.011   7.610  18.129  0.00  0.00    +0.000 C 
ATOM     13  C   UNL     1       1.794   9.081  18.541  0.00  0.00    +0.000 C 
ENDROOT
BRANCH   8  14
ATOM     14  C   UNL     1       6.874   5.435  17.409  0.00  0.00    +0.000 C 
ATOM     15  C   UNL     1       6.639   5.222  15.903  0.00  0.00    +0.000 C 
ATOM     16  C   UNL     1       7.328   6.887  17.653  0.00  0.00    +0.000 C 
ATOM     17  C   UNL     1       8.027   4.512  17.865  0.00  0.00    +0.000 C 
ENDBRANCH   8  14
TORSDOF 1
ENDMDL
MODEL 7
REMARK VINA RESULT:      -5.8      3.694      4.829
REMARK  Name = 
REMARK  5 active torsions:
REMARK  status: ('A' for Active; 'I' for Inactive)
REMARK    1  A    between atoms: C_1  and  N_2
REMARK    2  A    between atoms: C_8  and  C_9
REMARK    3  A    between atoms: C_9  and  C_10
REMARK    4  A    between atoms: C_9  and  C_11
REMARK    5  A    between atoms: C_9  and  C_12
REMARK                            x       y       z     vdW  Elec       q    Type
REMARK                         _______ _______ _______ _____ _____    ______ ____
ROOT
ATOM      1  C   UNL     1       8.214   8.428  17.842  0.00  0.00    +0.000 C 
ATOM      2  N   UNL     1       7.735   7.078  17.551  0.00  0.00    +0.000 NA
ATOM      3  C   UNL     1       6.582   7.125  16.613  0.00  0.00    +0.000 C 
ATOM      4  C   UNL     1       5.923   5.738  16.365  0.00  0.00    +0.000 C 
ATOM      5  N   UNL     1       5.572   5.181  17.669  0.00  0.00    +0.000 N 
ATOM      6  C   UNL     1       4.476   4.355  17.808  0.00  0.00    +0.000 A 
ATOM      7  C   UNL     1       3.861   4.289  19.048  0.00  0.00    +0.000 A 
ATOM      8  C   UNL     1       2.714   3.538  19.196  0.00  0.00    +0.000 A 
ATOM      9  N   UNL     1       2.194   2.873  18.145  0.00  0.00    +0.000 NA
ATOM     10  C   UNL     1       2.850   2.996  16.975  0.00  0.00    +0.000 A 
ATOM     11  N   UNL     1       3.957   3.721  16.750  0.00  0.00    +0.000 NA
ATOM     12  C   UNL     1       6.723   5.008  18.560  0.00  0.00    +0.000 C 
ATOM     13  C   UNL     1       7.345   6.398  18.808  0.00  0.00    +0.000 C 
ENDROOT
BRANCH   8  14
ATOM     14  C   UNL     1       1.940   3.527  20.517  0.00  0.00    +0.000 C 
ATOM     15  C   UNL     1       0.502   3.058  20.226  0.00  0.00    +0.000 C 
ATOM     16  C   UNL     1       2.597   2.561  21.522  0.00  0.00    +0.000 C 
ATOM     17  C   UNL     1       1.880   4.917  21.190  0.00  0.00    +0.000 C 
ENDBRANCH   8  14
TORSDOF 1
ENDMDL
MODEL 8
REMARK VINA RESULT:      -5.8      3.661      4.806
REMARK  Name = 
REMARK  5 active torsions:
REMARK  status: ('A' for Active; 'I' for Inactive)
REMARK    1  A    between atoms: C_1  and  N_2
REMARK    2  A    between atoms: C_8  and  C_9
REMARK    3  A    between atoms: C_9  and  C_10
REMARK    4  A    between atoms: C_9  and  C_11
REMARK    5  A    between atoms: C_9  and  C_12
REMARK                            x       y       z     vdW  Elec       q    Type
REMARK                         _______ _______ _______ _____ _____    ______ ____
ROOT
ATOM      1  C   UNL     1       8.547   8.439  18.424  0.00  0.00    +0.000 C 
ATOM      2  N   UNL     1       8.024   7.146  17.987  0.00  0.00    +0.000 NA
ATOM      3  C   UNL     1       6.906   7.333  17.024  0.00  0.00    +0.000 C 
ATOM      4  C   UNL     1       6.201   6.007  16.620  0.00  0.00    +0.000 C 
ATOM      5  N   UNL     1       5.783   5.343  17.852  0.00  0.00    +0.000 N 
ATOM      6  C   UNL     1       4.651   4.556  17.876  0.00  0.00    +0.000 A 
ATOM      7  C   UNL     1       3.991   4.396  19.084  0.00  0.00    +0.000 A 
ATOM      8  C   UNL     1       2.809   3.685  19.122  0.00  0.00    +0.000 A 
ATOM      9  N   UNL     1       2.300   3.149  17.996  0.00  0.00    +0.000 NA
ATOM     10  C   UNL     1       3.001   3.355  16.865  0.00  0.00    +0.000 A 
ATOM     11  N   UNL     1       4.143   4.050  16.745  0.00  0.00    +0.000 NA
ATOM     12  C   UNL     1       6.894   5.034  18.757  0.00  0.00    +0.000 C 
ATOM     13  C   UNL     1       7.563   6.365  19.159  0.00  0.00    +0.000 C 
ENDROOT
BRANCH   8  14
ATOM     14  C   UNL     1       1.990   3.579  20.412  0.00  0.00    +0.000 C 
ATOM     15  C   UNL     1       2.762   2.681  21.397  0.00  0.00    +0.000 C 
ATOM     16  C   UNL     1       1.790   4.971  21.042  0.00  0.00    +0.000 C 
ATOM     17  C   UNL     1       0.587   2.972  20.185  0.00  0.00    +0.000 C 
ENDBRANCH   8  14
TORSDOF 1
ENDMDL
MODEL 9
REMARK VINA RESULT:      -5.7      3.760      5.052
REMARK  Name = 
REMARK  5 active torsions:
REMARK  status: ('A' for Active; 'I' for Inactive)
REMARK    1  A    between atoms: C_1  and  N_2
REMARK    2  A    between atoms: C_8  and  C_9
REMARK    3  A    between atoms: C_9  and  C_10
REMARK    4  A    between atoms: C_9  and  C_11
REMARK    5  A    between atoms: C_9  and  C_12
REMARK                            x       y       z     vdW  Elec       q    Type
REMARK                         _______ _______ _______ _____ _____    ______ ____
ROOT
ATOM      1  C   UNL     1       7.974   7.983  17.233  0.00  0.00    +0.000 C 
ATOM      2  N   UNL     1       7.681   6.568  17.453  0.00  0.00    +0.000 NA
ATOM      3  C   UNL     1       6.778   6.051  16.390  0.00  0.00    +0.000 C 
ATOM      4  C   UNL     1       6.304   4.590  16.630  0.00  0.00    +0.000 C 
ATOM      5  N   UNL     1       5.701   4.539  17.961  0.00  0.00    +0.000 N 
ATOM      6  C   UNL     1       4.670   3.664  18.231  0.00  0.00    +0.000 A 
ATOM      7  C   UNL     1       3.789   3.988  19.251  0.00  0.00    +0.000 A 
ATOM      8  C   UNL     1       2.700   3.176  19.489  0.00  0.00    +0.000 A 
ATOM      9  N   UNL     1       2.492   2.077  18.738  0.00  0.00    +0.000 NA
ATOM     10  C   UNL     1       3.392   1.838  17.766  0.00  0.00    +0.000 A 
ATOM     11  N   UNL     1       4.462   2.589  17.461  0.00  0.00    +0.000 NA
ATOM     12  C   UNL     1       6.622   4.923  19.035  0.00  0.00    +0.000 C 
ATOM     13  C   UNL     1       7.060   6.381  18.785  0.00  0.00    +0.000 C 
ENDROOT
BRANCH   8  14
ATOM     14  C   UNL     1       1.642   3.556  20.529  0.00  0.00    +0.000 C 
ATOM     15  C   UNL     1       1.854   2.672  21.772  0.00  0.00    +0.000 C 
ATOM     16  C   UNL     1       1.781   5.038  20.928  0.00  0.00    +0.000 C 
ATOM     17  C   UNL     1       0.198   3.353  20.018  0.00  0.00    +0.000 C 
ENDBRANCH   8  14
TORSDOF 1
ENDMDL
