MODEL 1
REMARK VINA RESULT:      -7.8      0.000      0.000
REMARK  Name = 
REMARK  6 active torsions:
REMARK  status: ('A' for Active; 'I' for Inactive)
REMARK    1  A    between atoms: C_1  and  C_2
REMARK    2  A    between atoms: C_2  and  C_3
REMARK    3  A    between atoms: C_2  and  C_13
REMARK    4  A    between atoms: N_5  and  C_6
REMARK    5  A    between atoms: C_15  and  N_16
REMARK    6  A    between atoms: C_17  and  C_19
REMARK                            x       y       z     vdW  Elec       q    Type
REMARK                         _______ _______ _______ _____ _____    ______ ____
ROOT
ATOM      1  C   UNL     1       3.364   3.922  19.646  0.00  0.00    +0.000 C 
ATOM      2  C   UNL     1       4.790   4.650  19.345  0.00  0.00    +0.000 C 
ATOM      3  C   UNL     1       4.378   3.870  18.052  0.00  0.00    +0.000 C 
ATOM      4  C   UNL     1       4.097   2.667  18.991  0.00  0.00    +0.000 C 
ATOM      5  C   UNL     1       2.829   4.141  18.140  0.00  0.00    +0.000 C 
ENDROOT
BRANCH   3   6
ATOM      6  N   UNL     1       5.030   3.823  16.793  0.00  0.00    +0.000 N 
ATOM      7  C   UNL     1       5.188   4.882  15.929  0.00  0.00    +0.000 C 
ATOM      8  O   UNL     1       4.780   6.011  16.164  0.00  0.00    +0.000 OA
ATOM      9  H   UNL     1       5.403   2.928  16.496  0.00  0.00    +0.000 HD
BRANCH   7  10
ATOM     10  C   UNL     1       5.924   4.587  14.661  0.00  0.00    +0.000 A 
ATOM     11  C   UNL     1       5.358   3.686  13.748  0.00  0.00    +0.000 A 
ATOM     12  C   UNL     1       5.973   3.449  12.515  0.00  0.00    +0.000 A 
ATOM     13  C   UNL     1       7.160   4.104  12.185  0.00  0.00    +0.000 A 
ATOM     14  C   UNL     1       7.745   4.976  13.102  0.00  0.00    +0.000 A 
ATOM     15 CL   UNL     1       9.211   5.780  12.692  0.00  0.00    +0.000 Cl
ATOM     16  C   UNL     1       7.134   5.209  14.332  0.00  0.00    +0.000 A 
ATOM     17  F   UNL     1       7.723   6.055  15.195  0.00  0.00    +0.000 F 
ENDBRANCH   7  10
ENDBRANCH   3   6
BRANCH   1  19
ATOM     18  C   UNL     1       1.697   2.725  21.015  0.00  0.00    +0.000 C 
ATOM     19  C   UNL     1       2.522   4.013  20.875  0.00  0.00    +0.000 C 
BRANCH  19  20
ATOM     20  C   UNL     1       1.553   5.184  20.774  0.00  0.00    +0.000 C 
ATOM     21  O   UNL     1       0.360   4.983  20.546  0.00  0.00    +0.000 OA
ATOM     22  N   UNL     1       2.152   6.431  20.860  0.00  0.00    +0.000 N 
ATOM     23  H   UNL     1       3.164   6.471  20.840  0.00  0.00    +0.000 HD
BRANCH  22  24
ATOM     24  C   UNL     1       1.458   7.659  20.751  0.00  0.00    +0.000 A 
ATOM     25  C   UNL     1       0.634   8.152  21.771  0.00  0.00    +0.000 A 
ATOM     26  C   UNL     1      -0.111   9.318  21.596  0.00  0.00    +0.000 A 
ATOM     27  C   UNL     1      -0.014  10.011  20.403  0.00  0.00    +0.000 A 
ATOM     28  F   UNL     1      -0.750  11.116  20.220  0.00  0.00    +0.000 F 
ATOM     29  C   UNL     1       0.837   9.573  19.393  0.00  0.00    +0.000 A 
ATOM     30  C   UNL     1       1.584   8.402  19.568  0.00  0.00    +0.000 A 
ENDBRANCH  22  24
ENDBRANCH  19  20
ENDBRANCH   1  19
TORSDOF 5
ENDMDL
MODEL 2
REMARK VINA RESULT:      -7.8      1.398      1.900
REMARK  Name = 
REMARK  6 active torsions:
REMARK  status: ('A' for Active; 'I' for Inactive)
REMARK    1  A    between atoms: C_1  and  C_2
REMARK    2  A    between atoms: C_2  and  C_3
REMARK    3  A    between atoms: C_2  and  C_13
REMARK    4  A    between atoms: N_5  and  C_6
REMARK    5  A    between atoms: C_15  and  N_16
REMARK    6  A    between atoms: C_17  and  C_19
REMARK                            x       y       z     vdW  Elec       q    Type
REMARK                         _______ _______ _______ _____ _____    ______ ____
ROOT
ATOM      1  C   UNL     1       3.661   4.156  19.487  0.00  0.00    +0.000 C 
ATOM      2  C   UNL     1       5.200   4.579  19.164  0.00  0.00    +0.000 C 
ATOM      3  C   UNL     1       4.573   4.038  17.836  0.00  0.00    +0.000 C 
ATOM      4  C   UNL     1       4.067   2.841  18.684  0.00  0.00    +0.000 C 
ATOM      5  C   UNL     1       3.129   4.631  18.040  0.00  0.00    +0.000 C 
ENDROOT
BRANCH   3   6
ATOM      6  N   UNL     1       5.147   3.970  16.541  0.00  0.00    +0.000 N 
ATOM      7  C   UNL     1       5.450   5.047  15.738  0.00  0.00    +0.000 C 
ATOM      8  O   UNL     1       5.259   6.209  16.068  0.00  0.00    +0.000 OA
ATOM      9  H   UNL     1       5.342   3.049  16.164  0.00  0.00    +0.000 HD
BRANCH   7  10
ATOM     10  C   UNL     1       6.062   4.724  14.413  0.00  0.00    +0.000 A 
ATOM     11  C   UNL     1       7.298   5.298  14.084  0.00  0.00    +0.000 A 
ATOM     12  C   UNL     1       7.943   4.953  12.892  0.00  0.00    +0.000 A 
ATOM     13  C   UNL     1       7.356   4.040  12.016  0.00  0.00    +0.000 A 
ATOM     14  C   UNL     1       6.112   3.492  12.321  0.00  0.00    +0.000 A 
ATOM     15 CL   UNL     1       5.390   2.367  11.235  0.00  0.00    +0.000 Cl
ATOM     16  C   UNL     1       5.468   3.837  13.507  0.00  0.00    +0.000 A 
ATOM     17  F   UNL     1       4.269   3.292  13.773  0.00  0.00    +0.000 F 
ENDBRANCH   7  10
ENDBRANCH   3   6
BRANCH   1  19
ATOM     18  C   UNL     1       2.159   3.003  21.069  0.00  0.00    +0.000 C 
ATOM     19  C   UNL     1       2.910   4.309  20.767  0.00  0.00    +0.000 C 
BRANCH  19  20
ATOM     20  C   UNL     1       1.881   5.428  20.653  0.00  0.00    +0.000 C 
ATOM     21  O   UNL     1       0.681   5.161  20.598  0.00  0.00    +0.000 OA
ATOM     22  N   UNL     1       2.427   6.695  20.523  0.00  0.00    +0.000 N 
ATOM     23  H   UNL     1       3.427   6.765  20.374  0.00  0.00    +0.000 HD
BRANCH  22  24
ATOM     24  C   UNL     1       1.669   7.878  20.361  0.00  0.00    +0.000 A 
ATOM     25  C   UNL     1       1.626   8.585  19.152  0.00  0.00    +0.000 A 
ATOM     26  C   UNL     1       0.946   9.799  19.051  0.00  0.00    +0.000 A 
ATOM     27  C   UNL     1       0.283  10.298  20.157  0.00  0.00    +0.000 A 
ATOM     28  F   UNL     1      -0.347  11.477  20.072  0.00  0.00    +0.000 F 
ATOM     29  C   UNL     1       0.264   9.590  21.355  0.00  0.00    +0.000 A 
ATOM     30  C   UNL     1       0.947   8.372  21.457  0.00  0.00    +0.000 A 
ENDBRANCH  22  24
ENDBRANCH  19  20
ENDBRANCH   1  19
TORSDOF 5
ENDMDL
MODEL 3
REMARK VINA RESULT:      -7.6      3.201      8.532
REMARK  Name = 
REMARK  6 active torsions:
REMARK  status: ('A' for Active; 'I' for Inactive)
REMARK    1  A    between atoms: C_1  and  C_2
REMARK    2  A    between atoms: C_2  and  C_3
REMARK    3  A    between atoms: C_2  and  C_13
REMARK    4  A    between atoms: N_5  and  C_6
REMARK    5  A    between atoms: C_15  and  N_16
REMARK    6  A    between atoms: C_17  and  C_19
REMARK                            x       y       z     vdW  Elec       q    Type
REMARK                         _______ _______ _______ _____ _____    ______ ____
ROOT
ATOM      1  C   UNL     1       2.463   3.657  19.903  0.00  0.00    +0.000 C 
ATOM      2  C   UNL     1       1.744   4.737  18.919  0.00  0.00    +0.000 C 
ATOM      3  C   UNL     1       1.555   5.242  20.389  0.00  0.00    +0.000 C 
ATOM      4  C   UNL     1       1.100   3.795  20.717  0.00  0.00    +0.000 C 
ATOM      5  C   UNL     1       2.960   4.790  20.937  0.00  0.00    +0.000 C 
ENDROOT
BRANCH   3   6
ATOM      6  N   UNL     1       0.953   6.440  20.850  0.00  0.00    +0.000 N 
ATOM      7  C   UNL     1       1.334   7.717  20.503  0.00  0.00    +0.000 C 
ATOM      8  O   UNL     1       2.251   7.961  19.732  0.00  0.00    +0.000 OA
ATOM      9  H   UNL     1       0.182   6.353  21.502  0.00  0.00    +0.000 HD
BRANCH   7  10
ATOM     10  C   UNL     1       0.537   8.825  21.112  0.00  0.00    +0.000 A 
ATOM     11  C   UNL     1       0.406   8.872  22.507  0.00  0.00    +0.000 A 
ATOM     12  C   UNL     1      -0.259   9.940  23.119  0.00  0.00    +0.000 A 
ATOM     13  C   UNL     1      -0.805  10.964  22.344  0.00  0.00    +0.000 A 
ATOM     14  C   UNL     1      -0.707  10.905  20.955  0.00  0.00    +0.000 A 
ATOM     15 CL   UNL     1      -1.384  12.169  20.002  0.00  0.00    +0.000 Cl
ATOM     16  C   UNL     1      -0.048   9.841  20.346  0.00  0.00    +0.000 A 
ATOM     17  F   UNL     1       0.030   9.812  19.004  0.00  0.00    +0.000 F 
ENDBRANCH   7  10
ENDBRANCH   3   6
BRANCH   1  19
ATOM     18  C   UNL     1       4.357   2.219  20.560  0.00  0.00    +0.000 C 
ATOM     19  C   UNL     1       3.241   2.440  19.528  0.00  0.00    +0.000 C 
BRANCH  19  20
ATOM     20  C   UNL     1       3.893   2.622  18.162  0.00  0.00    +0.000 C 
ATOM     21  O   UNL     1       3.696   1.799  17.268  0.00  0.00    +0.000 OA
ATOM     22  N   UNL     1       4.760   3.700  18.081  0.00  0.00    +0.000 N 
ATOM     23  H   UNL     1       4.997   4.181  18.941  0.00  0.00    +0.000 HD
BRANCH  22  24
ATOM     24  C   UNL     1       5.508   4.038  16.929  0.00  0.00    +0.000 A 
ATOM     25  C   UNL     1       6.863   4.387  16.987  0.00  0.00    +0.000 A 
ATOM     26  C   UNL     1       7.549   4.808  15.847  0.00  0.00    +0.000 A 
ATOM     27  C   UNL     1       6.883   4.855  14.636  0.00  0.00    +0.000 A 
ATOM     28  F   UNL     1       7.530   5.286  13.544  0.00  0.00    +0.000 F 
ATOM     29  C   UNL     1       5.552   4.463  14.539  0.00  0.00    +0.000 A 
ATOM     30  C   UNL     1       4.863   4.042  15.684  0.00  0.00    +0.000 A 
ENDBRANCH  22  24
ENDBRANCH  19  20
ENDBRANCH   1  19
TORSDOF 5
ENDMDL
MODEL 4
REMARK VINA RESULT:      -7.6      3.206      8.840
REMARK  Name = 
REMARK  6 active torsions:
REMARK  status: ('A' for Active; 'I' for Inactive)
REMARK    1  A    between atoms: C_1  and  C_2
REMARK    2  A    between atoms: C_2  and  C_3
REMARK    3  A    between atoms: C_2  and  C_13
REMARK    4  A    between atoms: N_5  and  C_6
REMARK    5  A    between atoms: C_15  and  N_16
REMARK    6  A    between atoms: C_17  and  C_19
REMARK                            x       y       z     vdW  Elec       q    Type
REMARK                         _______ _______ _______ _____ _____    ______ ____
ROOT
ATOM      1  C   UNL     1       3.129   4.549  19.398  0.00  0.00    +0.000 C 
ATOM      2  C   UNL     1       3.762   6.044  19.532  0.00  0.00    +0.000 C 
ATOM      3  C   UNL     1       2.308   6.096  20.109  0.00  0.00    +0.000 C 
ATOM      4  C   UNL     1       1.879   5.350  18.817  0.00  0.00    +0.000 C 
ATOM      5  C   UNL     1       2.309   4.672  20.781  0.00  0.00    +0.000 C 
ENDROOT
BRANCH   3   6
ATOM      6  N   UNL     1       1.628   7.180  20.720  0.00  0.00    +0.000 N 
ATOM      7  C   UNL     1       1.385   8.405  20.141  0.00  0.00    +0.000 C 
ATOM      8  O   UNL     1       1.729   8.694  19.004  0.00  0.00    +0.000 OA
ATOM      9  H   UNL     1       1.303   7.050  21.672  0.00  0.00    +0.000 HD
BRANCH   7  10
ATOM     10  C   UNL     1       0.637   9.389  20.983  0.00  0.00    +0.000 A 
ATOM     11  C   UNL     1      -0.067   8.921  22.101  0.00  0.00    +0.000 A 
ATOM     12  C   UNL     1      -0.707   9.819  22.960  0.00  0.00    +0.000 A 
ATOM     13  C   UNL     1      -0.656  11.190  22.707  0.00  0.00    +0.000 A 
ATOM     14  C   UNL     1       0.014  11.659  21.579  0.00  0.00    +0.000 A 
ATOM     15 CL   UNL     1       0.073  13.352  21.269  0.00  0.00    +0.000 Cl
ATOM     16  C   UNL     1       0.649  10.765  20.721  0.00  0.00    +0.000 A 
ATOM     17  F   UNL     1       1.287  11.248  19.641  0.00  0.00    +0.000 F 
ENDBRANCH   7  10
ENDBRANCH   3   6
BRANCH   1  19
ATOM     18  C   UNL     1       4.318   2.506  20.103  0.00  0.00    +0.000 C 
ATOM     19  C   UNL     1       3.792   3.307  18.903  0.00  0.00    +0.000 C 
BRANCH  19  20
ATOM     20  C   UNL     1       4.978   3.652  18.010  0.00  0.00    +0.000 C 
ATOM     21  O   UNL     1       6.081   3.877  18.508  0.00  0.00    +0.000 OA
ATOM     22  N   UNL     1       4.665   3.777  16.666  0.00  0.00    +0.000 N 
ATOM     23  H   UNL     1       3.685   3.773  16.407  0.00  0.00    +0.000 HD
BRANCH  22  24
ATOM     24  C   UNL     1       5.594   4.132  15.660  0.00  0.00    +0.000 A 
ATOM     25  C   UNL     1       6.627   5.053  15.880  0.00  0.00    +0.000 A 
ATOM     26  C   UNL     1       7.468   5.454  14.842  0.00  0.00    +0.000 A 
ATOM     27  C   UNL     1       7.293   4.913  13.581  0.00  0.00    +0.000 A 
ATOM     28  F   UNL     1       8.080   5.317  12.575  0.00  0.00    +0.000 F 
ATOM     29  C   UNL     1       6.309   3.957  13.347  0.00  0.00    +0.000 A 
ATOM     30  C   UNL     1       5.464   3.555  14.389  0.00  0.00    +0.000 A 
ENDBRANCH  22  24
ENDBRANCH  19  20
ENDBRANCH   1  19
TORSDOF 5
ENDMDL
MODEL 5
REMARK VINA RESULT:      -7.6      4.494      6.875
REMARK  Name = 
REMARK  6 active torsions:
REMARK  status: ('A' for Active; 'I' for Inactive)
REMARK    1  A    between atoms: C_1  and  C_2
REMARK    2  A    between atoms: C_2  and  C_3
REMARK    3  A    between atoms: C_2  and  C_13
REMARK    4  A    between atoms: N_5  and  C_6
REMARK    5  A    between atoms: C_15  and  N_16
REMARK    6  A    between atoms: C_17  and  C_19
REMARK                            x       y       z     vdW  Elec       q    Type
REMARK                         _______ _______ _______ _____ _____    ______ ____
ROOT
ATOM      1  C   UNL     1       0.467  11.018  18.989  0.00  0.00    +0.000 C 
ATOM      2  C   UNL     1       0.784   9.712  19.907  0.00  0.00    +0.000 C 
ATOM      3  C   UNL     1       1.280   9.398  18.456  0.00  0.00    +0.000 C 
ATOM      4  C   UNL     1      -0.101   9.922  17.982  0.00  0.00    +0.000 C 
ATOM      5  C   UNL     1       1.807  10.840  18.109  0.00  0.00    +0.000 C 
ENDROOT
BRANCH   3   6
ATOM      6  N   UNL     1       1.956   8.248  17.974  0.00  0.00    +0.000 N 
ATOM      7  C   UNL     1       2.436   7.214  18.746  0.00  0.00    +0.000 C 
ATOM      8  O   UNL     1       2.321   7.171  19.962  0.00  0.00    +0.000 OA
ATOM      9  H   UNL     1       2.112   8.184  16.974  0.00  0.00    +0.000 HD
BRANCH   7  10
ATOM     10  C   UNL     1       3.107   6.102  18.006  0.00  0.00    +0.000 A 
ATOM     11  C   UNL     1       4.292   6.375  17.309  0.00  0.00    +0.000 A 
ATOM     12  C   UNL     1       4.994   5.344  16.676  0.00  0.00    +0.000 A 
ATOM     13  C   UNL     1       4.514   4.035  16.727  0.00  0.00    +0.000 A 
ATOM     14  C   UNL     1       3.320   3.763  17.389  0.00  0.00    +0.000 A 
ATOM     15 CL   UNL     1       2.730   2.146  17.447  0.00  0.00    +0.000 Cl
ATOM     16  C   UNL     1       2.619   4.790  18.017  0.00  0.00    +0.000 A 
ATOM     17  F   UNL     1       1.469   4.495  18.648  0.00  0.00    +0.000 F 
ENDBRANCH   7  10
ENDBRANCH   3   6
BRANCH   1  19
ATOM     18  C   UNL     1       0.710  12.882  20.588  0.00  0.00    +0.000 C 
ATOM     19  C   UNL     1      -0.109  12.328  19.413  0.00  0.00    +0.000 C 
BRANCH  19  20
ATOM     20  C   UNL     1      -1.548  12.151  19.884  0.00  0.00    +0.000 C 
ATOM     21  O   UNL     1      -1.784  11.866  21.058  0.00  0.00    +0.000 OA
ATOM     22  N   UNL     1      -2.495  12.242  18.876  0.00  0.00    +0.000 N 
ATOM     23  H   UNL     1      -2.164  12.273  17.919  0.00  0.00    +0.000 HD
BRANCH  22  24
ATOM     24  C   UNL     1      -3.885  12.070  19.070  0.00  0.00    +0.000 A 
ATOM     25  C   UNL     1      -4.592  12.731  20.084  0.00  0.00    +0.000 A 
ATOM     26  C   UNL     1      -5.943  12.468  20.309  0.00  0.00    +0.000 A 
ATOM     27  C   UNL     1      -6.601  11.559  19.501  0.00  0.00    +0.000 A 
ATOM     28  F   UNL     1      -7.891  11.283  19.733  0.00  0.00    +0.000 F 
ATOM     29  C   UNL     1      -5.937  10.929  18.453  0.00  0.00    +0.000 A 
ATOM     30  C   UNL     1      -4.580  11.191  18.227  0.00  0.00    +0.000 A 
ENDBRANCH  22  24
ENDBRANCH  19  20
ENDBRANCH   1  19
TORSDOF 5
ENDMDL
MODEL 6
REMARK VINA RESULT:      -7.4      3.136      8.715
REMARK  Name = 
REMARK  6 active torsions:
REMARK  status: ('A' for Active; 'I' for Inactive)
REMARK    1  A    between atoms: C_1  and  C_2
REMARK    2  A    between atoms: C_2  and  C_3
REMARK    3  A    between atoms: C_2  and  C_13
REMARK    4  A    between atoms: N_5  and  C_6
REMARK    5  A    between atoms: C_15  and  N_16
REMARK    6  A    between atoms: C_17  and  C_19
REMARK                            x       y       z     vdW  Elec       q    Type
REMARK                         _______ _______ _______ _____ _____    ______ ____
ROOT
ATOM      1  C   UNL     1       2.951   3.999  19.804  0.00  0.00    +0.000 C 
ATOM      2  C   UNL     1       1.462   4.456  19.327  0.00  0.00    +0.000 C 
ATOM      3  C   UNL     1       1.931   5.461  20.432  0.00  0.00    +0.000 C 
ATOM      4  C   UNL     1       2.330   4.209  21.256  0.00  0.00    +0.000 C 
ATOM      5  C   UNL     1       3.449   5.518  20.018  0.00  0.00    +0.000 C 
ENDROOT
BRANCH   3   6
ATOM      6  N   UNL     1       1.274   6.619  20.922  0.00  0.00    +0.000 N 
ATOM      7  C   UNL     1       1.352   7.880  20.375  0.00  0.00    +0.000 C 
ATOM      8  O   UNL     1       2.006   8.142  19.376  0.00  0.00    +0.000 OA
ATOM      9  H   UNL     1       0.706   6.514  21.756  0.00  0.00    +0.000 HD
BRANCH   7  10
ATOM     10  C   UNL     1       0.557   8.942  21.066  0.00  0.00    +0.000 A 
ATOM     11  C   UNL     1       0.511   8.943  22.467  0.00  0.00    +0.000 A 
ATOM     12  C   UNL     1      -0.150   9.969  23.151  0.00  0.00    +0.000 A 
ATOM     13  C   UNL     1      -0.775  10.996  22.442  0.00  0.00    +0.000 A 
ATOM     14  C   UNL     1      -0.761  10.981  21.049  0.00  0.00    +0.000 A 
ATOM     15 CL   UNL     1      -1.536  12.249  20.178  0.00  0.00    +0.000 Cl
ATOM     16  C   UNL     1      -0.106   9.958  20.368  0.00  0.00    +0.000 A 
ATOM     17  F   UNL     1      -0.109   9.972  19.024  0.00  0.00    +0.000 F 
ENDBRANCH   7  10
ENDBRANCH   3   6
BRANCH   1  19
ATOM     18  C   UNL     1       4.456   2.150  20.438  0.00  0.00    +0.000 C 
ATOM     19  C   UNL     1       3.793   2.891  19.267  0.00  0.00    +0.000 C 
BRANCH  19  20
ATOM     20  C   UNL     1       4.898   3.442  18.373  0.00  0.00    +0.000 C 
ATOM     21  O   UNL     1       5.948   3.850  18.869  0.00  0.00    +0.000 OA
ATOM     22  N   UNL     1       4.561   3.522  17.032  0.00  0.00    +0.000 N 
ATOM     23  H   UNL     1       3.596   3.351  16.776  0.00  0.00    +0.000 HD
BRANCH  22  24
ATOM     24  C   UNL     1       5.410   4.040  16.026  0.00  0.00    +0.000 A 
ATOM     25  C   UNL     1       5.408   3.550  14.713  0.00  0.00    +0.000 A 
ATOM     26  C   UNL     1       6.322   4.017  13.768  0.00  0.00    +0.000 A 
ATOM     27  C   UNL     1       7.229   4.996  14.129  0.00  0.00    +0.000 A 
ATOM     28  F   UNL     1       8.128   5.425  13.232  0.00  0.00    +0.000 F 
ATOM     29  C   UNL     1       7.219   5.538  15.410  0.00  0.00    +0.000 A 
ATOM     30  C   UNL     1       6.302   5.070  16.359  0.00  0.00    +0.000 A 
ENDBRANCH  22  24
ENDBRANCH  19  20
ENDBRANCH   1  19
TORSDOF 5
ENDMDL
MODEL 7
REMARK VINA RESULT:      -7.4      4.033      6.449
REMARK  Name = 
REMARK  6 active torsions:
REMARK  status: ('A' for Active; 'I' for Inactive)
REMARK    1  A    between atoms: C_1  and  C_2
REMARK    2  A    between atoms: C_2  and  C_3
REMARK    3  A    between atoms: C_2  and  C_13
REMARK    4  A    between atoms: N_5  and  C_6
REMARK    5  A    between atoms: C_15  and  N_16
REMARK    6  A    between atoms: C_17  and  C_19
REMARK                            x       y       z     vdW  Elec       q    Type
REMARK                         _______ _______ _______ _____ _____    ______ ____
ROOT
ATOM      1  C   UNL     1       0.561  10.881  18.910  0.00  0.00    +0.000 C 
ATOM      2  C   UNL     1       0.815   9.558  19.824  0.00  0.00    +0.000 C 
ATOM      3  C   UNL     1       1.400   9.266  18.402  0.00  0.00    +0.000 C 
ATOM      4  C   UNL     1       0.052   9.804  17.851  0.00  0.00    +0.000 C 
ATOM      5  C   UNL     1       1.952  10.712  18.112  0.00  0.00    +0.000 C 
ENDROOT
BRANCH   3   6
ATOM      6  N   UNL     1       2.100   8.121  17.943  0.00  0.00    +0.000 N 
ATOM      7  C   UNL     1       2.569   7.096  18.733  0.00  0.00    +0.000 C 
ATOM      8  O   UNL     1       2.419   7.056  19.946  0.00  0.00    +0.000 OA
ATOM      9  H   UNL     1       2.285   8.056  16.948  0.00  0.00    +0.000 HD
BRANCH   7  10
ATOM     10  C   UNL     1       3.271   5.987  18.016  0.00  0.00    +0.000 A 
ATOM     11  C   UNL     1       2.649   4.733  17.942  0.00  0.00    +0.000 A 
ATOM     12  C   UNL     1       3.234   3.696  17.208  0.00  0.00    +0.000 A 
ATOM     13  C   UNL     1       4.447   3.900  16.549  0.00  0.00    +0.000 A 
ATOM     14  C   UNL     1       5.086   5.134  16.647  0.00  0.00    +0.000 A 
ATOM     15 CL   UNL     1       6.585   5.380  15.835  0.00  0.00    +0.000 Cl
ATOM     16  C   UNL     1       4.506   6.165  17.381  0.00  0.00    +0.000 A 
ATOM     17  F   UNL     1       5.147   7.344  17.456  0.00  0.00    +0.000 F 
ENDBRANCH   7  10
ENDBRANCH   3   6
BRANCH   1  19
ATOM     18  C   UNL     1       0.777  12.769  20.484  0.00  0.00    +0.000 C 
ATOM     19  C   UNL     1      -0.037  12.186  19.319  0.00  0.00    +0.000 C 
BRANCH  19  20
ATOM     20  C   UNL     1      -1.471  11.991  19.797  0.00  0.00    +0.000 C 
ATOM     21  O   UNL     1      -1.692  11.571  20.933  0.00  0.00    +0.000 OA
ATOM     22  N   UNL     1      -2.434  12.230  18.830  0.00  0.00    +0.000 N 
ATOM     23  H   UNL     1      -2.121  12.370  17.876  0.00  0.00    +0.000 HD
BRANCH  22  24
ATOM     24  C   UNL     1      -3.825  12.073  19.033  0.00  0.00    +0.000 A 
ATOM     25  C   UNL     1      -4.523  12.762  20.033  0.00  0.00    +0.000 A 
ATOM     26  C   UNL     1      -5.875  12.515  20.270  0.00  0.00    +0.000 A 
ATOM     27  C   UNL     1      -6.542  11.591  19.486  0.00  0.00    +0.000 A 
ATOM     28  F   UNL     1      -7.833  11.330  19.729  0.00  0.00    +0.000 F 
ATOM     29  C   UNL     1      -5.887  10.931  18.451  0.00  0.00    +0.000 A 
ATOM     30  C   UNL     1      -4.529  11.178  18.214  0.00  0.00    +0.000 A 
ENDBRANCH  22  24
ENDBRANCH  19  20
ENDBRANCH   1  19
TORSDOF 5
ENDMDL
MODEL 8
REMARK VINA RESULT:      -7.4      4.460      6.647
REMARK  Name = 
REMARK  6 active torsions:
REMARK  status: ('A' for Active; 'I' for Inactive)
REMARK    1  A    between atoms: C_1  and  C_2
REMARK    2  A    between atoms: C_2  and  C_3
REMARK    3  A    between atoms: C_2  and  C_13
REMARK    4  A    between atoms: N_5  and  C_6
REMARK    5  A    between atoms: C_15  and  N_16
REMARK    6  A    between atoms: C_17  and  C_19
REMARK                            x       y       z     vdW  Elec       q    Type
REMARK                         _______ _______ _______ _____ _____    ______ ____
ROOT
ATOM      1  C   UNL     1       0.822  10.674  19.099  0.00  0.00    +0.000 C 
ATOM      2  C   UNL     1       1.096   9.323  19.967  0.00  0.00    +0.000 C 
ATOM      3  C   UNL     1       1.628   9.066  18.517  0.00  0.00    +0.000 C 
ATOM      4  C   UNL     1       0.268   9.631  18.029  0.00  0.00    +0.000 C 
ATOM      5  C   UNL     1       2.184  10.515  18.249  0.00  0.00    +0.000 C 
ENDROOT
BRANCH   3   6
ATOM      6  N   UNL     1       2.302   7.930  18.003  0.00  0.00    +0.000 N 
ATOM      7  C   UNL     1       2.711   6.838  18.735  0.00  0.00    +0.000 C 
ATOM      8  O   UNL     1       2.523   6.724  19.938  0.00  0.00    +0.000 OA
ATOM      9  H   UNL     1       2.515   7.923  17.011  0.00  0.00    +0.000 HD
BRANCH   7  10
ATOM     10  C   UNL     1       3.395   5.754  17.965  0.00  0.00    +0.000 A 
ATOM     11  C   UNL     1       4.382   6.109  17.035  0.00  0.00    +0.000 A 
ATOM     12  C   UNL     1       5.104   5.120  16.358  0.00  0.00    +0.000 A 
ATOM     13  C   UNL     1       4.842   3.771  16.599  0.00  0.00    +0.000 A 
ATOM     14  C   UNL     1       3.839   3.412  17.498  0.00  0.00    +0.000 A 
ATOM     15 CL   UNL     1       3.517   1.746  17.790  0.00  0.00    +0.000 Cl
ATOM     16  C   UNL     1       3.118   4.397  18.169  0.00  0.00    +0.000 A 
ATOM     17  F   UNL     1       2.157   4.019  19.030  0.00  0.00    +0.000 F 
ENDBRANCH   7  10
ENDBRANCH   3   6
BRANCH   1  19
ATOM     18  C   UNL     1      -0.084  11.866  21.060  0.00  0.00    +0.000 C 
ATOM     19  C   UNL     1       0.251  11.971  19.565  0.00  0.00    +0.000 C 
BRANCH  19  20
ATOM     20  C   UNL     1      -1.037  12.289  18.815  0.00  0.00    +0.000 C 
ATOM     21  O   UNL     1      -1.024  13.076  17.869  0.00  0.00    +0.000 OA
ATOM     22  N   UNL     1      -2.172  11.704  19.355  0.00  0.00    +0.000 N 
ATOM     23  H   UNL     1      -2.084  11.246  20.255  0.00  0.00    +0.000 HD
BRANCH  22  24
ATOM     24  C   UNL     1      -3.481  11.891  18.853  0.00  0.00    +0.000 A 
ATOM     25  C   UNL     1      -4.493  12.508  19.601  0.00  0.00    +0.000 A 
ATOM     26  C   UNL     1      -5.798  12.592  19.116  0.00  0.00    +0.000 A 
ATOM     27  C   UNL     1      -6.090  12.079  17.866  0.00  0.00    +0.000 A 
ATOM     28  F   UNL     1      -7.349  12.132  17.409  0.00  0.00    +0.000 F 
ATOM     29  C   UNL     1      -5.094  11.508  17.080  0.00  0.00    +0.000 A 
ATOM     30  C   UNL     1      -3.784  11.423  17.567  0.00  0.00    +0.000 A 
ENDBRANCH  22  24
ENDBRANCH  19  20
ENDBRANCH   1  19
TORSDOF 5
ENDMDL
MODEL 9
REMARK VINA RESULT:      -7.4      4.380      6.870
REMARK  Name = 
REMARK  6 active torsions:
REMARK  status: ('A' for Active; 'I' for Inactive)
REMARK    1  A    between atoms: C_1  and  C_2
REMARK    2  A    between atoms: C_2  and  C_3
REMARK    3  A    between atoms: C_2  and  C_13
REMARK    4  A    between atoms: N_5  and  C_6
REMARK    5  A    between atoms: C_15  and  N_16
REMARK    6  A    between atoms: C_17  and  C_19
REMARK                            x       y       z     vdW  Elec       q    Type
REMARK                         _______ _______ _______ _____ _____    ______ ____
ROOT
ATOM      1  C   UNL     1       0.548  11.065  18.996  0.00  0.00    +0.000 C 
ATOM      2  C   UNL     1       0.766   9.729  19.901  0.00  0.00    +0.000 C 
ATOM      3  C   UNL     1       1.307   9.418  18.466  0.00  0.00    +0.000 C 
ATOM      4  C   UNL     1      -0.027  10.015  17.945  0.00  0.00    +0.000 C 
ATOM      5  C   UNL     1       1.914  10.841  18.169  0.00  0.00    +0.000 C 
ENDROOT
BRANCH   3   6
ATOM      6  N   UNL     1       1.950   8.247  17.989  0.00  0.00    +0.000 N 
ATOM      7  C   UNL     1       2.433   7.221  18.769  0.00  0.00    +0.000 C 
ATOM      8  O   UNL     1       2.350   7.204  19.989  0.00  0.00    +0.000 OA
ATOM      9  H   UNL     1       2.077   8.161  16.987  0.00  0.00    +0.000 HD
BRANCH   7  10
ATOM     10  C   UNL     1       3.063   6.082  18.034  0.00  0.00    +0.000 A 
ATOM     11  C   UNL     1       4.250   6.313  17.324  0.00  0.00    +0.000 A 
ATOM     12  C   UNL     1       4.915   5.255  16.695  0.00  0.00    +0.000 A 
ATOM     13  C   UNL     1       4.397   3.962  16.763  0.00  0.00    +0.000 A 
ATOM     14  C   UNL     1       3.201   3.732  17.438  0.00  0.00    +0.000 A 
ATOM     15 CL   UNL     1       2.564   2.133  17.517  0.00  0.00    +0.000 Cl
ATOM     16  C   UNL     1       2.537   4.785  18.062  0.00  0.00    +0.000 A 
ATOM     17  F   UNL     1       1.384   4.531  18.706  0.00  0.00    +0.000 F 
ENDBRANCH   7  10
ENDBRANCH   3   6
BRANCH   1  19
ATOM     18  C   UNL     1       0.947  12.992  20.485  0.00  0.00    +0.000 C 
ATOM     19  C   UNL     1       0.014  12.392  19.422  0.00  0.00    +0.000 C 
BRANCH  19  20
ATOM     20  C   UNL     1      -1.369  12.239  20.042  0.00  0.00    +0.000 C 
ATOM     21  O   UNL     1      -2.273  11.691  19.411  0.00  0.00    +0.000 OA
ATOM     22  N   UNL     1      -1.510  12.842  21.282  0.00  0.00    +0.000 N 
ATOM     23  H   UNL     1      -0.758  13.439  21.605  0.00  0.00    +0.000 HD
BRANCH  22  24
ATOM     24  C   UNL     1      -2.713  12.865  22.026  0.00  0.00    +0.000 A 
ATOM     25  C   UNL     1      -3.863  13.529  21.578  0.00  0.00    +0.000 A 
ATOM     26  C   UNL     1      -5.003  13.615  22.377  0.00  0.00    +0.000 A 
ATOM     27  C   UNL     1      -5.005  13.011  23.621  0.00  0.00    +0.000 A 
ATOM     28  F   UNL     1      -6.088  13.116  24.404  0.00  0.00    +0.000 F 
ATOM     29  C   UNL     1      -3.896  12.300  24.069  0.00  0.00    +0.000 A 
ATOM     30  C   UNL     1      -2.751  12.215  23.268  0.00  0.00    +0.000 A 
ENDBRANCH  22  24
ENDBRANCH  19  20
ENDBRANCH   1  19
TORSDOF 5
ENDMDL
