MODEL 1
REMARK VINA RESULT:      -7.7      0.000      0.000
REMARK  Name = 
REMARK  15 active torsions:
REMARK  status: ('A' for Active; 'I' for Inactive)
REMARK    1  A    between atoms: C_1  and  C_2
REMARK    2  A    between atoms: N_4  and  C_5
REMARK    3  A    between atoms: C_7  and  N_8
REMARK    4  A    between atoms: C_11  and  C_12
REMARK    5  A    between atoms: C_12  and  O_13
REMARK    6  A    between atoms: O_13  and  C_14
REMARK    7  A    between atoms: C_14  and  C_16
REMARK    8  A    between atoms: C_16  and  C_17
REMARK    9  A    between atoms: C_17  and  C_18
REMARK   10  A    between atoms: C_18  and  C_19
REMARK   11  A    between atoms: C_19  and  O_21
REMARK   12  A    between atoms: O_21  and  C_22
REMARK   13  A    between atoms: C_22  and  C_23
REMARK   14  A    between atoms: C_22  and  C_24
REMARK   15  A    between atoms: C_22  and  C_25
REMARK                            x       y       z     vdW  Elec       q    Type
REMARK                         _______ _______ _______ _____ _____    ______ ____
ROOT
ATOM      1  C   UNL     1       4.439   4.305  18.644  0.00  0.00    +0.000 C 
ATOM      2  C   UNL     1       3.568   3.053  18.697  0.00  0.00    +0.000 C 
ATOM      3  C   UNL     1       2.411   3.524  19.554  0.00  0.00    +0.000 C 
ATOM      4  C   UNL     1       2.238   4.959  19.043  0.00  0.00    +0.000 C 
ATOM      5  O   UNL     1       3.531   5.420  18.604  0.00  0.00    +0.000 OA
ENDROOT
BRANCH   1   9
ATOM      6  C   UNL     1       5.422   4.175  13.757  0.00  0.00    +0.000 C 
ATOM      7  C   UNL     1       5.814   4.338  15.188  0.00  0.00    +0.000 A 
ATOM      8  C   UNL     1       5.001   4.118  16.231  0.00  0.00    +0.000 A 
ATOM      9  N   UNL     1       5.392   4.343  17.539  0.00  0.00    +0.000 N 
ATOM     10  C   UNL     1       6.675   4.786  17.842  0.00  0.00    +0.000 A 
ATOM     11  O   UNL     1       7.054   5.068  18.975  0.00  0.00    +0.000 OA
ATOM     12  N   UNL     1       7.527   4.917  16.781  0.00  0.00    +0.000 N 
ATOM     13  C   UNL     1       7.187   4.816  15.466  0.00  0.00    +0.000 A 
ATOM     14  O   UNL     1       7.967   5.117  14.568  0.00  0.00    +0.000 OA
ATOM     15  H   UNL     1       8.444   5.280  16.988  0.00  0.00    +0.000 HD
ENDBRANCH   1   9
BRANCH   3  16
ATOM     16  N   UNL     1       2.841   3.496  20.965  0.00  0.00    +0.000 NA
ATOM     17  N   UNL     1       2.091   2.901  21.761  0.00  0.00    +0.000 NA
ATOM     18  N   UNL     1       1.400   2.357  22.485  0.00  0.00    +0.000 NA
ENDBRANCH   3  16
BRANCH   4  19
ATOM     19  C   UNL     1       1.639   5.950  20.041  0.00  0.00    +0.000 C 
BRANCH  19  20
ATOM     20  O   UNL     1       2.376   7.179  20.066  0.00  0.00    +0.000 OA
BRANCH  20  21
ATOM     21  C   UNL     1       1.613   8.290  20.251  0.00  0.00    +0.000 C 
ATOM     22  O   UNL     1       1.258   9.055  19.370  0.00  0.00    +0.000 OA
BRANCH  21  23
ATOM     23  C   UNL     1       1.244   8.423  21.706  0.00  0.00    +0.000 C 
BRANCH  23  24
ATOM     24  C   UNL     1      -0.184   8.925  21.883  0.00  0.00    +0.000 C 
BRANCH  24  25
ATOM     25  C   UNL     1      -0.384   9.855  23.090  0.00  0.00    +0.000 C 
BRANCH  25  26
ATOM     26  C   UNL     1      -0.927  11.173  22.604  0.00  0.00    +0.000 C 
ATOM     27  O   UNL     1      -1.171  12.108  23.355  0.00  0.00    +0.000 OA
BRANCH  26  28
ATOM     28  O   UNL     1      -1.131  11.179  21.262  0.00  0.00    +0.000 OA
BRANCH  28  29
ATOM     29  C   UNL     1      -0.509  12.224  20.462  0.00  0.00    +0.000 C 
ATOM     30  C   UNL     1       0.990  12.340  20.782  0.00  0.00    +0.000 C 
ATOM     31  C   UNL     1      -0.649  11.797  18.991  0.00  0.00    +0.000 C 
ATOM     32  C   UNL     1      -1.245  13.560  20.632  0.00  0.00    +0.000 C 
ENDBRANCH  28  29
ENDBRANCH  26  28
ENDBRANCH  25  26
ENDBRANCH  24  25
ENDBRANCH  23  24
ENDBRANCH  21  23
ENDBRANCH  20  21
ENDBRANCH  19  20
ENDBRANCH   4  19
TORSDOF 11
ENDMDL
MODEL 2
REMARK VINA RESULT:      -7.5      1.358      1.860
REMARK  Name = 
REMARK  15 active torsions:
REMARK  status: ('A' for Active; 'I' for Inactive)
REMARK    1  A    between atoms: C_1  and  C_2
REMARK    2  A    between atoms: N_4  and  C_5
REMARK    3  A    between atoms: C_7  and  N_8
REMARK    4  A    between atoms: C_11  and  C_12
REMARK    5  A    between atoms: C_12  and  O_13
REMARK    6  A    between atoms: O_13  and  C_14
REMARK    7  A    between atoms: C_14  and  C_16
REMARK    8  A    between atoms: C_16  and  C_17
REMARK    9  A    between atoms: C_17  and  C_18
REMARK   10  A    between atoms: C_18  and  C_19
REMARK   11  A    between atoms: C_19  and  O_21
REMARK   12  A    between atoms: O_21  and  C_22
REMARK   13  A    between atoms: C_22  and  C_23
REMARK   14  A    between atoms: C_22  and  C_24
REMARK   15  A    between atoms: C_22  and  C_25
REMARK                            x       y       z     vdW  Elec       q    Type
REMARK                         _______ _______ _______ _____ _____    ______ ____
ROOT
ATOM      1  C   UNL     1       4.968   4.189  17.939  0.00  0.00    +0.000 C 
ATOM      2  C   UNL     1       4.218   2.859  17.944  0.00  0.00    +0.000 C 
ATOM      3  C   UNL     1       3.089   3.151  18.910  0.00  0.00    +0.000 C 
ATOM      4  C   UNL     1       2.752   4.599  18.533  0.00  0.00    +0.000 C 
ATOM      5  O   UNL     1       3.964   5.212  18.052  0.00  0.00    +0.000 OA
ENDROOT
BRANCH   1   9
ATOM      6  C   UNL     1       5.937   3.600  13.083  0.00  0.00    +0.000 C 
ATOM      7  C   UNL     1       6.229   4.150  14.439  0.00  0.00    +0.000 A 
ATOM      8  C   UNL     1       5.566   3.817  15.556  0.00  0.00    +0.000 A 
ATOM      9  N   UNL     1       5.832   4.402  16.782  0.00  0.00    +0.000 N 
ATOM     10  C   UNL     1       6.833   5.355  16.923  0.00  0.00    +0.000 A 
ATOM     11  O   UNL     1       7.067   5.956  17.968  0.00  0.00    +0.000 OA
ATOM     12  N   UNL     1       7.567   5.621  15.800  0.00  0.00    +0.000 N 
ATOM     13  C   UNL     1       7.299   5.167  14.545  0.00  0.00    +0.000 A 
ATOM     14  O   UNL     1       7.898   5.587  13.561  0.00  0.00    +0.000 OA
ATOM     15  H   UNL     1       8.265   6.343  15.885  0.00  0.00    +0.000 HD
ENDBRANCH   1   9
BRANCH   3  16
ATOM     16  N   UNL     1       3.620   3.055  20.283  0.00  0.00    +0.000 NA
ATOM     17  N   UNL     1       4.493   2.191  20.480  0.00  0.00    +0.000 NA
ATOM     18  N   UNL     1       5.290   1.396  20.655  0.00  0.00    +0.000 NA
ENDBRANCH   3  16
BRANCH   4  19
ATOM     19  C   UNL     1       2.141   5.449  19.647  0.00  0.00    +0.000 C 
BRANCH  19  20
ATOM     20  O   UNL     1       2.795   6.719  19.756  0.00  0.00    +0.000 OA
BRANCH  20  21
ATOM     21  C   UNL     1       1.954   7.789  19.746  0.00  0.00    +0.000 C 
ATOM     22  O   UNL     1       1.900   8.634  18.869  0.00  0.00    +0.000 OA
BRANCH  21  23
ATOM     23  C   UNL     1       1.074   7.760  20.969  0.00  0.00    +0.000 C 
BRANCH  23  24
ATOM     24  C   UNL     1       1.197   9.042  21.784  0.00  0.00    +0.000 C 
BRANCH  24  25
ATOM     25  C   UNL     1      -0.079   9.900  21.814  0.00  0.00    +0.000 C 
BRANCH  25  26
ATOM     26  C   UNL     1       0.108  11.081  20.899  0.00  0.00    +0.000 C 
ATOM     27  O   UNL     1       1.210  11.472  20.535  0.00  0.00    +0.000 OA
BRANCH  26  28
ATOM     28  O   UNL     1      -1.073  11.660  20.562  0.00  0.00    +0.000 OA
BRANCH  28  29
ATOM     29  C   UNL     1      -1.497  11.629  19.170  0.00  0.00    +0.000 C 
ATOM     30  C   UNL     1      -3.003  11.909  19.048  0.00  0.00    +0.000 C 
ATOM     31  C   UNL     1      -0.744  12.763  18.454  0.00  0.00    +0.000 C 
ATOM     32  C   UNL     1      -1.095  10.308  18.501  0.00  0.00    +0.000 C 
ENDBRANCH  28  29
ENDBRANCH  26  28
ENDBRANCH  25  26
ENDBRANCH  24  25
ENDBRANCH  23  24
ENDBRANCH  21  23
ENDBRANCH  20  21
ENDBRANCH  19  20
ENDBRANCH   4  19
TORSDOF 11
ENDMDL
MODEL 3
REMARK VINA RESULT:      -7.5      2.126      2.954
REMARK  Name = 
REMARK  15 active torsions:
REMARK  status: ('A' for Active; 'I' for Inactive)
REMARK    1  A    between atoms: C_1  and  C_2
REMARK    2  A    between atoms: N_4  and  C_5
REMARK    3  A    between atoms: C_7  and  N_8
REMARK    4  A    between atoms: C_11  and  C_12
REMARK    5  A    between atoms: C_12  and  O_13
REMARK    6  A    between atoms: O_13  and  C_14
REMARK    7  A    between atoms: C_14  and  C_16
REMARK    8  A    between atoms: C_16  and  C_17
REMARK    9  A    between atoms: C_17  and  C_18
REMARK   10  A    between atoms: C_18  and  C_19
REMARK   11  A    between atoms: C_19  and  O_21
REMARK   12  A    between atoms: O_21  and  C_22
REMARK   13  A    between atoms: C_22  and  C_23
REMARK   14  A    between atoms: C_22  and  C_24
REMARK   15  A    between atoms: C_22  and  C_25
REMARK                            x       y       z     vdW  Elec       q    Type
REMARK                         _______ _______ _______ _____ _____    ______ ____
ROOT
ATOM      1  C   UNL     1       5.078   4.600  17.193  0.00  0.00    +0.000 C 
ATOM      2  C   UNL     1       4.141   3.408  17.373  0.00  0.00    +0.000 C 
ATOM      3  C   UNL     1       3.132   3.961  18.359  0.00  0.00    +0.000 C 
ATOM      4  C   UNL     1       2.990   5.400  17.850  0.00  0.00    +0.000 C 
ATOM      5  O   UNL     1       4.245   5.772  17.249  0.00  0.00    +0.000 OA
ENDROOT
BRANCH   1   9
ATOM      6  C   UNL     1       5.638   3.402  12.385  0.00  0.00    +0.000 C 
ATOM      7  C   UNL     1       6.093   4.031  13.660  0.00  0.00    +0.000 A 
ATOM      8  C   UNL     1       5.462   3.912  14.837  0.00  0.00    +0.000 A 
ATOM      9  N   UNL     1       5.887   4.566  15.980  0.00  0.00    +0.000 N 
ATOM     10  C   UNL     1       7.024   5.366  15.971  0.00  0.00    +0.000 A 
ATOM     11  O   UNL     1       7.409   6.024  16.934  0.00  0.00    +0.000 OA
ATOM     12  N   UNL     1       7.715   5.408  14.792  0.00  0.00    +0.000 N 
ATOM     13  C   UNL     1       7.304   4.879  13.605  0.00  0.00    +0.000 A 
ATOM     14  O   UNL     1       7.894   5.106  12.554  0.00  0.00    +0.000 OA
ATOM     15  H   UNL     1       8.515   6.020  14.765  0.00  0.00    +0.000 HD
ENDBRANCH   1   9
BRANCH   3  16
ATOM     16  N   UNL     1       3.730   3.916  19.706  0.00  0.00    +0.000 NA
ATOM     17  N   UNL     1       3.093   3.291  20.574  0.00  0.00    +0.000 NA
ATOM     18  N   UNL     1       2.505   2.719  21.365  0.00  0.00    +0.000 NA
ENDBRANCH   3  16
BRANCH   4  19
ATOM     19  C   UNL     1       2.584   6.436  18.898  0.00  0.00    +0.000 C 
BRANCH  19  20
ATOM     20  O   UNL     1       2.356   7.721  18.306  0.00  0.00    +0.000 OA
BRANCH  20  21
ATOM     21  C   UNL     1       1.628   8.576  19.075  0.00  0.00    +0.000 C 
ATOM     22  O   UNL     1       1.513   8.508  20.286  0.00  0.00    +0.000 OA
BRANCH  21  23
ATOM     23  C   UNL     1       1.006   9.641  18.209  0.00  0.00    +0.000 C 
BRANCH  23  24
ATOM     24  C   UNL     1       0.642  10.882  19.015  0.00  0.00    +0.000 C 
BRANCH  24  25
ATOM     25  C   UNL     1      -0.845  10.979  19.392  0.00  0.00    +0.000 C 
BRANCH  25  26
ATOM     26  C   UNL     1      -1.513  11.976  18.481  0.00  0.00    +0.000 C 
ATOM     27  O   UNL     1      -0.894  12.845  17.881  0.00  0.00    +0.000 OA
BRANCH  26  28
ATOM     28  O   UNL     1      -2.860  11.807  18.435  0.00  0.00    +0.000 OA
BRANCH  28  29
ATOM     29  C   UNL     1      -3.429  10.999  17.367  0.00  0.00    +0.000 C 
ATOM     30  C   UNL     1      -4.836  11.493  16.996  0.00  0.00    +0.000 C 
ATOM     31  C   UNL     1      -2.521  11.188  16.140  0.00  0.00    +0.000 C 
ATOM     32  C   UNL     1      -3.413   9.509  17.734  0.00  0.00    +0.000 C 
ENDBRANCH  28  29
ENDBRANCH  26  28
ENDBRANCH  25  26
ENDBRANCH  24  25
ENDBRANCH  23  24
ENDBRANCH  21  23
ENDBRANCH  20  21
ENDBRANCH  19  20
ENDBRANCH   4  19
TORSDOF 11
ENDMDL
MODEL 4
REMARK VINA RESULT:      -7.4      1.749      2.441
REMARK  Name = 
REMARK  15 active torsions:
REMARK  status: ('A' for Active; 'I' for Inactive)
REMARK    1  A    between atoms: C_1  and  C_2
REMARK    2  A    between atoms: N_4  and  C_5
REMARK    3  A    between atoms: C_7  and  N_8
REMARK    4  A    between atoms: C_11  and  C_12
REMARK    5  A    between atoms: C_12  and  O_13
REMARK    6  A    between atoms: O_13  and  C_14
REMARK    7  A    between atoms: C_14  and  C_16
REMARK    8  A    between atoms: C_16  and  C_17
REMARK    9  A    between atoms: C_17  and  C_18
REMARK   10  A    between atoms: C_18  and  C_19
REMARK   11  A    between atoms: C_19  and  O_21
REMARK   12  A    between atoms: O_21  and  C_22
REMARK   13  A    between atoms: C_22  and  C_23
REMARK   14  A    between atoms: C_22  and  C_24
REMARK   15  A    between atoms: C_22  and  C_25
REMARK                            x       y       z     vdW  Elec       q    Type
REMARK                         _______ _______ _______ _____ _____    ______ ____
ROOT
ATOM      1  C   UNL     1       5.129   4.458  17.079  0.00  0.00    +0.000 C 
ATOM      2  C   UNL     1       4.392   3.148  17.348  0.00  0.00    +0.000 C 
ATOM      3  C   UNL     1       3.314   3.597  18.312  0.00  0.00    +0.000 C 
ATOM      4  C   UNL     1       2.944   4.961  17.717  0.00  0.00    +0.000 C 
ATOM      5  O   UNL     1       4.122   5.485  17.074  0.00  0.00    +0.000 OA
ENDROOT
BRANCH   1   9
ATOM      6  C   UNL     1       5.699   3.326  12.256  0.00  0.00    +0.000 C 
ATOM      7  C   UNL     1       6.135   3.967  13.532  0.00  0.00    +0.000 A 
ATOM      8  C   UNL     1       5.522   3.808  14.714  0.00  0.00    +0.000 A 
ATOM      9  N   UNL     1       5.926   4.473  15.857  0.00  0.00    +0.000 N 
ATOM     10  C   UNL     1       7.022   5.329  15.843  0.00  0.00    +0.000 A 
ATOM     11  O   UNL     1       7.383   5.998  16.808  0.00  0.00    +0.000 OA
ATOM     12  N   UNL     1       7.698   5.414  14.658  0.00  0.00    +0.000 N 
ATOM     13  C   UNL     1       7.302   4.875  13.472  0.00  0.00    +0.000 A 
ATOM     14  O   UNL     1       7.869   5.138  12.417  0.00  0.00    +0.000 OA
ATOM     15  H   UNL     1       8.466   6.066  14.629  0.00  0.00    +0.000 HD
ENDBRANCH   1   9
BRANCH   3  16
ATOM     16  N   UNL     1       3.919   3.733  19.651  0.00  0.00    +0.000 NA
ATOM     17  N   UNL     1       4.495   2.727  20.104  0.00  0.00    +0.000 NA
ATOM     18  N   UNL     1       5.018   1.802  20.514  0.00  0.00    +0.000 NA
ENDBRANCH   3  16
BRANCH   4  19
ATOM     19  C   UNL     1       2.386   5.986  18.704  0.00  0.00    +0.000 C 
BRANCH  19  20
ATOM     20  O   UNL     1       3.065   7.243  18.595  0.00  0.00    +0.000 OA
BRANCH  20  21
ATOM     21  C   UNL     1       2.250   8.304  18.347  0.00  0.00    +0.000 C 
ATOM     22  O   UNL     1       2.125   8.859  17.269  0.00  0.00    +0.000 OA
BRANCH  21  23
ATOM     23  C   UNL     1       1.498   8.677  19.599  0.00  0.00    +0.000 C 
BRANCH  23  24
ATOM     24  C   UNL     1       0.967  10.103  19.535  0.00  0.00    +0.000 C 
BRANCH  24  25
ATOM     25  C   UNL     1      -0.533  10.209  19.215  0.00  0.00    +0.000 C 
BRANCH  25  26
ATOM     26  C   UNL     1      -1.018  11.580  19.605  0.00  0.00    +0.000 C 
ATOM     27  O   UNL     1      -0.733  12.589  18.974  0.00  0.00    +0.000 OA
BRANCH  26  28
ATOM     28  O   UNL     1      -1.771  11.555  20.736  0.00  0.00    +0.000 OA
BRANCH  28  29
ATOM     29  C   UNL     1      -1.154  11.938  21.997  0.00  0.00    +0.000 C 
ATOM     30  C   UNL     1       0.026  12.894  21.762  0.00  0.00    +0.000 C 
ATOM     31  C   UNL     1      -2.226  12.694  22.800  0.00  0.00    +0.000 C 
ATOM     32  C   UNL     1      -0.749  10.701  22.810  0.00  0.00    +0.000 C 
ENDBRANCH  28  29
ENDBRANCH  26  28
ENDBRANCH  25  26
ENDBRANCH  24  25
ENDBRANCH  23  24
ENDBRANCH  21  23
ENDBRANCH  20  21
ENDBRANCH  19  20
ENDBRANCH   4  19
TORSDOF 11
ENDMDL
MODEL 5
REMARK VINA RESULT:      -7.4      1.174      1.777
REMARK  Name = 
REMARK  15 active torsions:
REMARK  status: ('A' for Active; 'I' for Inactive)
REMARK    1  A    between atoms: C_1  and  C_2
REMARK    2  A    between atoms: N_4  and  C_5
REMARK    3  A    between atoms: C_7  and  N_8
REMARK    4  A    between atoms: C_11  and  C_12
REMARK    5  A    between atoms: C_12  and  O_13
REMARK    6  A    between atoms: O_13  and  C_14
REMARK    7  A    between atoms: C_14  and  C_16
REMARK    8  A    between atoms: C_16  and  C_17
REMARK    9  A    between atoms: C_17  and  C_18
REMARK   10  A    between atoms: C_18  and  C_19
REMARK   11  A    between atoms: C_19  and  O_21
REMARK   12  A    between atoms: O_21  and  C_22
REMARK   13  A    between atoms: C_22  and  C_23
REMARK   14  A    between atoms: C_22  and  C_24
REMARK   15  A    between atoms: C_22  and  C_25
REMARK                            x       y       z     vdW  Elec       q    Type
REMARK                         _______ _______ _______ _____ _____    ______ ____
ROOT
ATOM      1  C   UNL     1       4.387   4.339  18.756  0.00  0.00    +0.000 C 
ATOM      2  C   UNL     1       3.422   3.158  18.716  0.00  0.00    +0.000 C 
ATOM      3  C   UNL     1       2.309   3.643  19.622  0.00  0.00    +0.000 C 
ATOM      4  C   UNL     1       2.245   5.125  19.232  0.00  0.00    +0.000 C 
ATOM      5  O   UNL     1       3.568   5.520  18.819  0.00  0.00    +0.000 OA
ENDROOT
BRANCH   1   9
ATOM      6  C   UNL     1       5.349   4.267  13.863  0.00  0.00    +0.000 C 
ATOM      7  C   UNL     1       5.747   4.417  15.294  0.00  0.00    +0.000 A 
ATOM      8  C   UNL     1       4.940   4.181  16.339  0.00  0.00    +0.000 A 
ATOM      9  N   UNL     1       5.335   4.395  17.648  0.00  0.00    +0.000 N 
ATOM     10  C   UNL     1       6.616   4.843  17.950  0.00  0.00    +0.000 A 
ATOM     11  O   UNL     1       6.999   5.116  19.084  0.00  0.00    +0.000 OA
ATOM     12  N   UNL     1       7.463   4.991  16.886  0.00  0.00    +0.000 N 
ATOM     13  C   UNL     1       7.117   4.901  15.572  0.00  0.00    +0.000 A 
ATOM     14  O   UNL     1       7.891   5.217  14.674  0.00  0.00    +0.000 OA
ATOM     15  H   UNL     1       8.378   5.358  17.093  0.00  0.00    +0.000 HD
ENDBRANCH   1   9
BRANCH   3  16
ATOM     16  N   UNL     1       2.742   3.466  21.021  0.00  0.00    +0.000 NA
ATOM     17  N   UNL     1       1.990   2.797  21.753  0.00  0.00    +0.000 NA
ATOM     18  N   UNL     1       1.296   2.185  22.418  0.00  0.00    +0.000 NA
ENDBRANCH   3  16
BRANCH   4  19
ATOM     19  C   UNL     1       1.730   6.073  20.315  0.00  0.00    +0.000 C 
BRANCH  19  20
ATOM     20  O   UNL     1       2.251   7.397  20.145  0.00  0.00    +0.000 OA
BRANCH  20  21
ATOM     21  C   UNL     1       1.494   8.378  20.705  0.00  0.00    +0.000 C 
ATOM     22  O   UNL     1       1.293   8.517  21.900  0.00  0.00    +0.000 OA
BRANCH  21  23
ATOM     23  C   UNL     1       0.960   9.291  19.632  0.00  0.00    +0.000 C 
BRANCH  23  24
ATOM     24  C   UNL     1      -0.352   9.945  20.047  0.00  0.00    +0.000 C 
BRANCH  24  25
ATOM     25  C   UNL     1      -0.407  11.463  19.811  0.00  0.00    +0.000 C 
BRANCH  25  26
ATOM     26  C   UNL     1       0.126  12.165  21.033  0.00  0.00    +0.000 C 
ATOM     27  O   UNL     1       1.206  11.890  21.538  0.00  0.00    +0.000 OA
BRANCH  26  28
ATOM     28  O   UNL     1      -0.740  13.099  21.505  0.00  0.00    +0.000 OA
BRANCH  28  29
ATOM     29  C   UNL     1      -1.738  12.697  22.485  0.00  0.00    +0.000 C 
ATOM     30  C   UNL     1      -1.359  11.359  23.138  0.00  0.00    +0.000 C 
ATOM     31  C   UNL     1      -1.741  13.776  23.580  0.00  0.00    +0.000 C 
ATOM     32  C   UNL     1      -3.140  12.662  21.860  0.00  0.00    +0.000 C 
ENDBRANCH  28  29
ENDBRANCH  26  28
ENDBRANCH  25  26
ENDBRANCH  24  25
ENDBRANCH  23  24
ENDBRANCH  21  23
ENDBRANCH  20  21
ENDBRANCH  19  20
ENDBRANCH   4  19
TORSDOF 11
ENDMDL
MODEL 6
REMARK VINA RESULT:      -7.3      1.350      2.056
REMARK  Name = 
REMARK  15 active torsions:
REMARK  status: ('A' for Active; 'I' for Inactive)
REMARK    1  A    between atoms: C_1  and  C_2
REMARK    2  A    between atoms: N_4  and  C_5
REMARK    3  A    between atoms: C_7  and  N_8
REMARK    4  A    between atoms: C_11  and  C_12
REMARK    5  A    between atoms: C_12  and  O_13
REMARK    6  A    between atoms: O_13  and  C_14
REMARK    7  A    between atoms: C_14  and  C_16
REMARK    8  A    between atoms: C_16  and  C_17
REMARK    9  A    between atoms: C_17  and  C_18
REMARK   10  A    between atoms: C_18  and  C_19
REMARK   11  A    between atoms: C_19  and  O_21
REMARK   12  A    between atoms: O_21  and  C_22
REMARK   13  A    between atoms: C_22  and  C_23
REMARK   14  A    between atoms: C_22  and  C_24
REMARK   15  A    between atoms: C_22  and  C_25
REMARK                            x       y       z     vdW  Elec       q    Type
REMARK                         _______ _______ _______ _____ _____    ______ ____
ROOT
ATOM      1  C   UNL     1       4.893   4.239  17.838  0.00  0.00    +0.000 C 
ATOM      2  C   UNL     1       4.056   2.963  17.861  0.00  0.00    +0.000 C 
ATOM      3  C   UNL     1       2.973   3.327  18.855  0.00  0.00    +0.000 C 
ATOM      4  C   UNL     1       2.724   4.795  18.487  0.00  0.00    +0.000 C 
ATOM      5  O   UNL     1       3.962   5.328  17.976  0.00  0.00    +0.000 OA
ENDROOT
BRANCH   1   9
ATOM      6  C   UNL     1       5.701   3.600  12.959  0.00  0.00    +0.000 C 
ATOM      7  C   UNL     1       6.063   4.125  14.309  0.00  0.00    +0.000 A 
ATOM      8  C   UNL     1       5.406   3.835  15.441  0.00  0.00    +0.000 A 
ATOM      9  N   UNL     1       5.740   4.397  16.661  0.00  0.00    +0.000 N 
ATOM     10  C   UNL     1       6.807   5.280  16.778  0.00  0.00    +0.000 A 
ATOM     11  O   UNL     1       7.106   5.862  17.818  0.00  0.00    +0.000 OA
ATOM     12  N   UNL     1       7.530   5.499  15.638  0.00  0.00    +0.000 N 
ATOM     13  C   UNL     1       7.201   5.068  14.389  0.00  0.00    +0.000 A 
ATOM     14  O   UNL     1       7.803   5.448  13.391  0.00  0.00    +0.000 OA
ATOM     15  H   UNL     1       8.276   6.172  15.706  0.00  0.00    +0.000 HD
ENDBRANCH   1   9
BRANCH   3  16
ATOM     16  N   UNL     1       3.529   3.193  20.214  0.00  0.00    +0.000 NA
ATOM     17  N   UNL     1       2.743   2.809  21.099  0.00  0.00    +0.000 NA
ATOM     18  N   UNL     1       2.018   2.459  21.905  0.00  0.00    +0.000 NA
ENDBRANCH   3  16
BRANCH   4  19
ATOM     19  C   UNL     1       2.199   5.681  19.616  0.00  0.00    +0.000 C 
BRANCH  19  20
ATOM     20  O   UNL     1       2.794   6.984  19.580  0.00  0.00    +0.000 OA
BRANCH  20  21
ATOM     21  C   UNL     1       1.907   8.013  19.662  0.00  0.00    +0.000 C 
ATOM     22  O   UNL     1       1.387   8.414  20.689  0.00  0.00    +0.000 OA
BRANCH  21  23
ATOM     23  C   UNL     1       1.680   8.604  18.294  0.00  0.00    +0.000 C 
BRANCH  23  24
ATOM     24  C   UNL     1       1.611  10.125  18.342  0.00  0.00    +0.000 C 
BRANCH  24  25
ATOM     25  C   UNL     1       0.235  10.686  18.735  0.00  0.00    +0.000 C 
BRANCH  25  26
ATOM     26  C   UNL     1       0.433  11.863  19.654  0.00  0.00    +0.000 C 
ATOM     27  O   UNL     1       1.540  12.288  19.958  0.00  0.00    +0.000 OA
BRANCH  26  28
ATOM     28  O   UNL     1      -0.745  12.360  20.112  0.00  0.00    +0.000 OA
BRANCH  28  29
ATOM     29  C   UNL     1      -0.999  12.351  21.545  0.00  0.00    +0.000 C 
ATOM     30  C   UNL     1      -0.329  13.554  22.227  0.00  0.00    +0.000 C 
ATOM     31  C   UNL     1      -2.520  12.491  21.723  0.00  0.00    +0.000 C 
ATOM     32  C   UNL     1      -0.576  11.016  22.172  0.00  0.00    +0.000 C 
ENDBRANCH  28  29
ENDBRANCH  26  28
ENDBRANCH  25  26
ENDBRANCH  24  25
ENDBRANCH  23  24
ENDBRANCH  21  23
ENDBRANCH  20  21
ENDBRANCH  19  20
ENDBRANCH   4  19
TORSDOF 11
ENDMDL
MODEL 7
REMARK VINA RESULT:      -7.2      1.595      2.420
REMARK  Name = 
REMARK  15 active torsions:
REMARK  status: ('A' for Active; 'I' for Inactive)
REMARK    1  A    between atoms: C_1  and  C_2
REMARK    2  A    between atoms: N_4  and  C_5
REMARK    3  A    between atoms: C_7  and  N_8
REMARK    4  A    between atoms: C_11  and  C_12
REMARK    5  A    between atoms: C_12  and  O_13
REMARK    6  A    between atoms: O_13  and  C_14
REMARK    7  A    between atoms: C_14  and  C_16
REMARK    8  A    between atoms: C_16  and  C_17
REMARK    9  A    between atoms: C_17  and  C_18
REMARK   10  A    between atoms: C_18  and  C_19
REMARK   11  A    between atoms: C_19  and  O_21
REMARK   12  A    between atoms: O_21  and  C_22
REMARK   13  A    between atoms: C_22  and  C_23
REMARK   14  A    between atoms: C_22  and  C_24
REMARK   15  A    between atoms: C_22  and  C_25
REMARK                            x       y       z     vdW  Elec       q    Type
REMARK                         _______ _______ _______ _____ _____    ______ ____
ROOT
ATOM      1  C   UNL     1       4.915   3.838  18.887  0.00  0.00    +0.000 C 
ATOM      2  C   UNL     1       4.103   2.545  18.856  0.00  0.00    +0.000 C 
ATOM      3  C   UNL     1       3.053   2.820  19.912  0.00  0.00    +0.000 C 
ATOM      4  C   UNL     1       2.762   4.304  19.651  0.00  0.00    +0.000 C 
ATOM      5  O   UNL     1       3.969   4.895  19.131  0.00  0.00    +0.000 OA
ENDROOT
BRANCH   1   9
ATOM      6  C   UNL     1       5.323   4.124  13.925  0.00  0.00    +0.000 C 
ATOM      7  C   UNL     1       5.851   4.276  15.313  0.00  0.00    +0.000 A 
ATOM      8  C   UNL     1       5.211   3.871  16.420  0.00  0.00    +0.000 A 
ATOM      9  N   UNL     1       5.712   4.090  17.691  0.00  0.00    +0.000 N 
ATOM     10  C   UNL     1       6.935   4.724  17.884  0.00  0.00    +0.000 A 
ATOM     11  O   UNL     1       7.395   5.007  18.987  0.00  0.00    +0.000 OA
ATOM     12  N   UNL     1       7.624   5.049  16.749  0.00  0.00    +0.000 N 
ATOM     13  C   UNL     1       7.152   4.961  15.475  0.00  0.00    +0.000 A 
ATOM     14  O   UNL     1       7.763   5.433  14.522  0.00  0.00    +0.000 OA
ATOM     15  H   UNL     1       8.489   5.548  16.881  0.00  0.00    +0.000 HD
ENDBRANCH   1   9
BRANCH   3  16
ATOM     16  N   UNL     1       3.664   2.609  21.238  0.00  0.00    +0.000 NA
ATOM     17  N   UNL     1       4.646   1.846  21.280  0.00  0.00    +0.000 NA
ATOM     18  N   UNL     1       5.543   1.145  21.312  0.00  0.00    +0.000 NA
ENDBRANCH   3  16
BRANCH   4  19
ATOM     19  C   UNL     1       2.264   5.102  20.856  0.00  0.00    +0.000 C 
BRANCH  19  20
ATOM     20  O   UNL     1       1.213   6.004  20.488  0.00  0.00    +0.000 OA
BRANCH  20  21
ATOM     21  C   UNL     1       1.521   7.321  20.640  0.00  0.00    +0.000 C 
ATOM     22  O   UNL     1       1.421   7.953  21.678  0.00  0.00    +0.000 OA
BRANCH  21  23
ATOM     23  C   UNL     1       2.034   7.881  19.338  0.00  0.00    +0.000 C 
BRANCH  23  24
ATOM     24  C   UNL     1       1.548   9.305  19.105  0.00  0.00    +0.000 C 
BRANCH  24  25
ATOM     25  C   UNL     1       0.736   9.495  17.814  0.00  0.00    +0.000 C 
BRANCH  25  26
ATOM     26  C   UNL     1      -0.607  10.079  18.165  0.00  0.00    +0.000 C 
ATOM     27  O   UNL     1      -1.536  10.133  17.370  0.00  0.00    +0.000 OA
BRANCH  26  28
ATOM     28  O   UNL     1      -0.643  10.552  19.438  0.00  0.00    +0.000 OA
BRANCH  28  29
ATOM     29  C   UNL     1      -0.894  11.969  19.653  0.00  0.00    +0.000 C 
ATOM     30  C   UNL     1      -2.399  12.243  19.802  0.00  0.00    +0.000 C 
ATOM     31  C   UNL     1      -0.210  12.342  20.979  0.00  0.00    +0.000 C 
ATOM     32  C   UNL     1      -0.255  12.816  18.544  0.00  0.00    +0.000 C 
ENDBRANCH  28  29
ENDBRANCH  26  28
ENDBRANCH  25  26
ENDBRANCH  24  25
ENDBRANCH  23  24
ENDBRANCH  21  23
ENDBRANCH  20  21
ENDBRANCH  19  20
ENDBRANCH   4  19
TORSDOF 11
ENDMDL
MODEL 8
REMARK VINA RESULT:      -7.2      1.135      1.519
REMARK  Name = 
REMARK  15 active torsions:
REMARK  status: ('A' for Active; 'I' for Inactive)
REMARK    1  A    between atoms: C_1  and  C_2
REMARK    2  A    between atoms: N_4  and  C_5
REMARK    3  A    between atoms: C_7  and  N_8
REMARK    4  A    between atoms: C_11  and  C_12
REMARK    5  A    between atoms: C_12  and  O_13
REMARK    6  A    between atoms: O_13  and  C_14
REMARK    7  A    between atoms: C_14  and  C_16
REMARK    8  A    between atoms: C_16  and  C_17
REMARK    9  A    between atoms: C_17  and  C_18
REMARK   10  A    between atoms: C_18  and  C_19
REMARK   11  A    between atoms: C_19  and  O_21
REMARK   12  A    between atoms: O_21  and  C_22
REMARK   13  A    between atoms: C_22  and  C_23
REMARK   14  A    between atoms: C_22  and  C_24
REMARK   15  A    between atoms: C_22  and  C_25
REMARK                            x       y       z     vdW  Elec       q    Type
REMARK                         _______ _______ _______ _____ _____    ______ ____
ROOT
ATOM      1  C   UNL     1       4.794   4.273  17.811  0.00  0.00    +0.000 C 
ATOM      2  C   UNL     1       4.123   2.906  17.912  0.00  0.00    +0.000 C 
ATOM      3  C   UNL     1       2.918   3.222  18.774  0.00  0.00    +0.000 C 
ATOM      4  C   UNL     1       2.524   4.599  18.226  0.00  0.00    +0.000 C 
ATOM      5  O   UNL     1       3.727   5.237  17.755  0.00  0.00    +0.000 OA
ENDROOT
BRANCH   1   9
ATOM      6  C   UNL     1       5.931   3.586  13.004  0.00  0.00    +0.000 C 
ATOM      7  C   UNL     1       6.199   4.127  14.370  0.00  0.00    +0.000 A 
ATOM      8  C   UNL     1       5.469   3.846  15.458  0.00  0.00    +0.000 A 
ATOM      9  N   UNL     1       5.718   4.422  16.691  0.00  0.00    +0.000 N 
ATOM     10  C   UNL     1       6.771   5.312  16.871  0.00  0.00    +0.000 A 
ATOM     11  O   UNL     1       6.997   5.906  17.922  0.00  0.00    +0.000 OA
ATOM     12  N   UNL     1       7.568   5.522  15.780  0.00  0.00    +0.000 N 
ATOM     13  C   UNL     1       7.325   5.075  14.516  0.00  0.00    +0.000 A 
ATOM     14  O   UNL     1       7.992   5.448  13.556  0.00  0.00    +0.000 OA
ATOM     15  H   UNL     1       8.305   6.199  15.890  0.00  0.00    +0.000 HD
ENDBRANCH   1   9
BRANCH   3  16
ATOM     16  N   UNL     1       3.362   3.301  20.178  0.00  0.00    +0.000 NA
ATOM     17  N   UNL     1       2.560   2.890  21.037  0.00  0.00    +0.000 NA
ATOM     18  N   UNL     1       1.821   2.514  21.818  0.00  0.00    +0.000 NA
ENDBRANCH   3  16
BRANCH   4  19
ATOM     19  C   UNL     1       1.793   5.517  19.206  0.00  0.00    +0.000 C 
BRANCH  19  20
ATOM     20  O   UNL     1       2.610   6.629  19.591  0.00  0.00    +0.000 OA
BRANCH  20  21
ATOM     21  C   UNL     1       2.311   7.795  18.958  0.00  0.00    +0.000 C 
ATOM     22  O   UNL     1       2.817   8.181  17.918  0.00  0.00    +0.000 OA
BRANCH  21  23
ATOM     23  C   UNL     1       1.237   8.530  19.716  0.00  0.00    +0.000 C 
BRANCH  23  24
ATOM     24  C   UNL     1       1.171   8.088  21.173  0.00  0.00    +0.000 C 
BRANCH  24  25
ATOM     25  C   UNL     1       1.438   9.211  22.189  0.00  0.00    +0.000 C 
BRANCH  25  26
ATOM     26  C   UNL     1       0.125   9.831  22.585  0.00  0.00    +0.000 C 
ATOM     27  O   UNL     1      -0.164  10.091  23.746  0.00  0.00    +0.000 OA
BRANCH  26  28
ATOM     28  O   UNL     1      -0.689  10.034  21.517  0.00  0.00    +0.000 OA
BRANCH  28  29
ATOM     29  C   UNL     1      -0.836  11.384  20.993  0.00  0.00    +0.000 C 
ATOM     30  C   UNL     1      -1.345  11.357  19.544  0.00  0.00    +0.000 C 
ATOM     31  C   UNL     1      -1.901  12.079  21.858  0.00  0.00    +0.000 C 
ATOM     32  C   UNL     1       0.471  12.175  21.137  0.00  0.00    +0.000 C 
ENDBRANCH  28  29
ENDBRANCH  26  28
ENDBRANCH  25  26
ENDBRANCH  24  25
ENDBRANCH  23  24
ENDBRANCH  21  23
ENDBRANCH  20  21
ENDBRANCH  19  20
ENDBRANCH   4  19
TORSDOF 11
ENDMDL
MODEL 9
REMARK VINA RESULT:      -7.2      1.504      2.114
REMARK  Name = 
REMARK  15 active torsions:
REMARK  status: ('A' for Active; 'I' for Inactive)
REMARK    1  A    between atoms: C_1  and  C_2
REMARK    2  A    between atoms: N_4  and  C_5
REMARK    3  A    between atoms: C_7  and  N_8
REMARK    4  A    between atoms: C_11  and  C_12
REMARK    5  A    between atoms: C_12  and  O_13
REMARK    6  A    between atoms: O_13  and  C_14
REMARK    7  A    between atoms: C_14  and  C_16
REMARK    8  A    between atoms: C_16  and  C_17
REMARK    9  A    between atoms: C_17  and  C_18
REMARK   10  A    between atoms: C_18  and  C_19
REMARK   11  A    between atoms: C_19  and  O_21
REMARK   12  A    between atoms: O_21  and  C_22
REMARK   13  A    between atoms: C_22  and  C_23
REMARK   14  A    between atoms: C_22  and  C_24
REMARK   15  A    between atoms: C_22  and  C_25
REMARK                            x       y       z     vdW  Elec       q    Type
REMARK                         _______ _______ _______ _____ _____    ______ ____
ROOT
ATOM      1  C   UNL     1       4.315   4.713  18.968  0.00  0.00    +0.000 C 
ATOM      2  C   UNL     1       3.172   3.703  18.910  0.00  0.00    +0.000 C 
ATOM      3  C   UNL     1       2.153   4.344  19.829  0.00  0.00    +0.000 C 
ATOM      4  C   UNL     1       2.328   5.824  19.467  0.00  0.00    +0.000 C 
ATOM      5  O   UNL     1       3.696   6.009  19.056  0.00  0.00    +0.000 OA
ENDROOT
BRANCH   1   9
ATOM      6  C   UNL     1       5.242   4.293  14.086  0.00  0.00    +0.000 C 
ATOM      7  C   UNL     1       5.657   4.495  15.506  0.00  0.00    +0.000 A 
ATOM      8  C   UNL     1       4.842   4.379  16.563  0.00  0.00    +0.000 A 
ATOM      9  N   UNL     1       5.258   4.637  17.857  0.00  0.00    +0.000 N 
ATOM     10  C   UNL     1       6.570   5.008  18.131  0.00  0.00    +0.000 A 
ATOM     11  O   UNL     1       6.978   5.316  19.248  0.00  0.00    +0.000 OA
ATOM     12  N   UNL     1       7.419   5.033  17.059  0.00  0.00    +0.000 N 
ATOM     13  C   UNL     1       7.061   4.894  15.753  0.00  0.00    +0.000 A 
ATOM     14  O   UNL     1       7.850   5.101  14.837  0.00  0.00    +0.000 OA
ATOM     15  H   UNL     1       8.360   5.344  17.243  0.00  0.00    +0.000 HD
ENDBRANCH   1   9
BRANCH   3  16
ATOM     16  N   UNL     1       2.553   4.073  21.223  0.00  0.00    +0.000 NA
ATOM     17  N   UNL     1       1.970   3.134  21.795  0.00  0.00    +0.000 NA
ATOM     18  N   UNL     1       1.431   2.275  22.313  0.00  0.00    +0.000 NA
ENDBRANCH   3  16
BRANCH   4  19
ATOM     19  C   UNL     1       1.973   6.822  20.570  0.00  0.00    +0.000 C 
BRANCH  19  20
ATOM     20  O   UNL     1       1.535   8.072  20.024  0.00  0.00    +0.000 OA
BRANCH  20  21
ATOM     21  C   UNL     1       1.087   8.965  20.948  0.00  0.00    +0.000 C 
ATOM     22  O   UNL     1       1.355   8.942  22.137  0.00  0.00    +0.000 OA
BRANCH  21  23
ATOM     23  C   UNL     1       0.230  10.009  20.279  0.00  0.00    +0.000 C 
BRANCH  23  24
ATOM     24  C   UNL     1       0.511  11.404  20.824  0.00  0.00    +0.000 C 
BRANCH  24  25
ATOM     25  C   UNL     1      -0.748  12.216  21.166  0.00  0.00    +0.000 C 
BRANCH  25  26
ATOM     26  C   UNL     1      -1.300  11.728  22.480  0.00  0.00    +0.000 C 
ATOM     27  O   UNL     1      -0.599  11.222  23.347  0.00  0.00    +0.000 OA
BRANCH  26  28
ATOM     28  O   UNL     1      -2.645  11.892  22.563  0.00  0.00    +0.000 OA
BRANCH  28  29
ATOM     29  C   UNL     1      -3.168  13.065  23.247  0.00  0.00    +0.000 C 
ATOM     30  C   UNL     1      -4.019  12.659  24.460  0.00  0.00    +0.000 C 
ATOM     31  C   UNL     1      -1.951  13.853  23.763  0.00  0.00    +0.000 C 
ATOM     32  C   UNL     1      -3.934  13.973  22.276  0.00  0.00    +0.000 C 
ENDBRANCH  28  29
ENDBRANCH  26  28
ENDBRANCH  25  26
ENDBRANCH  24  25
ENDBRANCH  23  24
ENDBRANCH  21  23
ENDBRANCH  20  21
ENDBRANCH  19  20
ENDBRANCH   4  19
TORSDOF 11
ENDMDL
