MODEL 1
REMARK VINA RESULT:      -7.5      0.000      0.000
REMARK  Name = 
REMARK  4 active torsions:
REMARK  status: ('A' for Active; 'I' for Inactive)
REMARK    1  A    between atoms: C_1  and  C_2
REMARK    2  A    between atoms: C_2  and  C_3
REMARK    3  A    between atoms: C_9  and  C_10
REMARK    4  A    between atoms: C_10  and  O_12
REMARK                            x       y       z     vdW  Elec       q    Type
REMARK                         _______ _______ _______ _____ _____    ______ ____
ROOT
ATOM      1  C   UNL     1       5.208   4.038  15.359  0.00  0.00    +0.000 C 
ATOM      2  C   UNL     1       5.300   4.884  16.629  0.00  0.00    +0.000 C 
ATOM      3  C   UNL     1       5.261   6.376  16.309  0.00  0.00    +0.000 C 
ATOM      4  C   UNL     1       6.614   4.543  17.374  0.00  0.00    +0.000 C 
ATOM      5  O   UNL     1       7.753   4.701  16.969  0.00  0.00    +0.000 OA
ATOM      6  N   UNL     1       6.268   4.010  18.610  0.00  0.00    +0.000 N 
ATOM      7  C   UNL     1       4.895   3.971  18.782  0.00  0.00    +0.000 A 
ATOM      8  C   UNL     1       4.207   3.497  19.878  0.00  0.00    +0.000 A 
ATOM      9  C   UNL     1       2.808   3.547  19.838  0.00  0.00    +0.000 A 
ATOM     10  C   UNL     1       2.144   4.061  18.700  0.00  0.00    +0.000 A 
ATOM     11  C   UNL     1       2.874   4.539  17.600  0.00  0.00    +0.000 A 
ATOM     12  C   UNL     1       4.256   4.485  17.654  0.00  0.00    +0.000 A 
ATOM     13  H   UNL     1       6.956   3.698  19.279  0.00  0.00    +0.000 HD
ENDROOT
BRANCH   9  14
ATOM     14  C   UNL     1       2.074   2.982  21.002  0.00  0.00    +0.000 C 
ATOM     15  O   UNL     1       2.644   2.577  22.000  0.00  0.00    +0.000 OA
BRANCH  14  16
ATOM     16  O   UNL     1       0.732   2.990  20.877  0.00  0.00    +0.000 OA
ATOM     17  H   UNL     1       0.354   3.745  20.392  0.00  0.00    +0.000 HD
ENDBRANCH  14  16
ENDBRANCH   9  14
TORSDOF 2
ENDMDL
MODEL 2
REMARK VINA RESULT:      -7.0      1.875      2.172
REMARK  Name = 
REMARK  4 active torsions:
REMARK  status: ('A' for Active; 'I' for Inactive)
REMARK    1  A    between atoms: C_1  and  C_2
REMARK    2  A    between atoms: C_2  and  C_3
REMARK    3  A    between atoms: C_9  and  C_10
REMARK    4  A    between atoms: C_10  and  O_12
REMARK                            x       y       z     vdW  Elec       q    Type
REMARK                         _______ _______ _______ _____ _____    ______ ____
ROOT
ATOM      1  C   UNL     1       6.254   5.479  15.505  0.00  0.00    +0.000 C 
ATOM      2  C   UNL     1       6.509   5.860  16.964  0.00  0.00    +0.000 C 
ATOM      3  C   UNL     1       7.406   7.090  17.070  0.00  0.00    +0.000 C 
ATOM      4  C   UNL     1       7.171   4.664  17.694  0.00  0.00    +0.000 C 
ATOM      5  O   UNL     1       8.253   4.159  17.447  0.00  0.00    +0.000 OA
ATOM      6  N   UNL     1       6.303   4.255  18.699  0.00  0.00    +0.000 N 
ATOM      7  C   UNL     1       5.160   5.036  18.734  0.00  0.00    +0.000 A 
ATOM      8  C   UNL     1       4.090   4.904  19.593  0.00  0.00    +0.000 A 
ATOM      9  C   UNL     1       3.028   5.805  19.449  0.00  0.00    +0.000 A 
ATOM     10  C   UNL     1       3.068   6.802  18.447  0.00  0.00    +0.000 A 
ATOM     11  C   UNL     1       4.175   6.913  17.590  0.00  0.00    +0.000 A 
ATOM     12  C   UNL     1       5.218   6.015  17.744  0.00  0.00    +0.000 A 
ATOM     13  H   UNL     1       6.508   3.478  19.310  0.00  0.00    +0.000 HD
ENDROOT
BRANCH   9  14
ATOM     14  C   UNL     1       1.854   5.620  20.342  0.00  0.00    +0.000 C 
ATOM     15  O   UNL     1       1.219   4.580  20.380  0.00  0.00    +0.000 OA
BRANCH  14  16
ATOM     16  O   UNL     1       1.574   6.678  21.130  0.00  0.00    +0.000 OA
ATOM     17  H   UNL     1       0.685   6.689  21.527  0.00  0.00    +0.000 HD
ENDBRANCH  14  16
ENDBRANCH   9  14
TORSDOF 2
ENDMDL
MODEL 3
REMARK VINA RESULT:      -7.0      1.555      2.219
REMARK  Name = 
REMARK  4 active torsions:
REMARK  status: ('A' for Active; 'I' for Inactive)
REMARK    1  A    between atoms: C_1  and  C_2
REMARK    2  A    between atoms: C_2  and  C_3
REMARK    3  A    between atoms: C_9  and  C_10
REMARK    4  A    between atoms: C_10  and  O_12
REMARK                            x       y       z     vdW  Elec       q    Type
REMARK                         _______ _______ _______ _____ _____    ______ ____
ROOT
ATOM      1  C   UNL     1       6.334   7.013  17.273  0.00  0.00    +0.000 C 
ATOM      2  C   UNL     1       6.401   5.674  18.008  0.00  0.00    +0.000 C 
ATOM      3  C   UNL     1       7.421   5.711  19.144  0.00  0.00    +0.000 C 
ATOM      4  C   UNL     1       6.781   4.559  17.001  0.00  0.00    +0.000 C 
ATOM      5  O   UNL     1       7.814   4.467  16.360  0.00  0.00    +0.000 OA
ATOM      6  N   UNL     1       5.719   3.664  16.948  0.00  0.00    +0.000 N 
ATOM      7  C   UNL     1       4.695   4.037  17.802  0.00  0.00    +0.000 A 
ATOM      8  C   UNL     1       3.494   3.388  17.993  0.00  0.00    +0.000 A 
ATOM      9  C   UNL     1       2.593   3.946  18.908  0.00  0.00    +0.000 A 
ATOM     10  C   UNL     1       2.919   5.140  19.593  0.00  0.00    +0.000 A 
ATOM     11  C   UNL     1       4.153   5.775  19.379  0.00  0.00    +0.000 A 
ATOM     12  C   UNL     1       5.034   5.212  18.473  0.00  0.00    +0.000 A 
ATOM     13  H   UNL     1       5.723   2.852  16.349  0.00  0.00    +0.000 HD
ENDROOT
BRANCH   9  14
ATOM     14  C   UNL     1       1.278   3.270  19.065  0.00  0.00    +0.000 C 
ATOM     15  O   UNL     1       0.858   2.461  18.257  0.00  0.00    +0.000 OA
BRANCH  14  16
ATOM     16  O   UNL     1       0.610   3.596  20.190  0.00  0.00    +0.000 OA
ATOM     17  H   UNL     1       0.062   2.891  20.578  0.00  0.00    +0.000 HD
ENDBRANCH  14  16
ENDBRANCH   9  14
TORSDOF 2
ENDMDL
MODEL 4
REMARK VINA RESULT:      -7.0      1.568      1.927
REMARK  Name = 
REMARK  4 active torsions:
REMARK  status: ('A' for Active; 'I' for Inactive)
REMARK    1  A    between atoms: C_1  and  C_2
REMARK    2  A    between atoms: C_2  and  C_3
REMARK    3  A    between atoms: C_9  and  C_10
REMARK    4  A    between atoms: C_10  and  O_12
REMARK                            x       y       z     vdW  Elec       q    Type
REMARK                         _______ _______ _______ _____ _____    ______ ____
ROOT
ATOM      1  C   UNL     1       5.235   6.593  15.387  0.00  0.00    +0.000 C 
ATOM      2  C   UNL     1       5.550   5.838  16.679  0.00  0.00    +0.000 C 
ATOM      3  C   UNL     1       6.433   6.666  17.608  0.00  0.00    +0.000 C 
ATOM      4  C   UNL     1       6.261   4.506  16.331  0.00  0.00    +0.000 C 
ATOM      5  O   UNL     1       7.338   4.370  15.775  0.00  0.00    +0.000 OA
ATOM      6  N   UNL     1       5.445   3.470  16.766  0.00  0.00    +0.000 N 
ATOM      7  C   UNL     1       4.294   3.947  17.370  0.00  0.00    +0.000 A 
ATOM      8  C   UNL     1       3.265   3.200  17.904  0.00  0.00    +0.000 A 
ATOM      9  C   UNL     1       2.185   3.893  18.465  0.00  0.00    +0.000 A 
ATOM     10  C   UNL     1       2.166   5.307  18.466  0.00  0.00    +0.000 A 
ATOM     11  C   UNL     1       3.232   6.039  17.917  0.00  0.00    +0.000 A 
ATOM     12  C   UNL     1       4.293   5.341  17.367  0.00  0.00    +0.000 A 
ATOM     13  H   UNL     1       5.688   2.498  16.641  0.00  0.00    +0.000 HD
ENDROOT
BRANCH   9  14
ATOM     14  C   UNL     1       1.055   3.080  18.987  0.00  0.00    +0.000 C 
ATOM     15  O   UNL     1       0.608   2.119  18.386  0.00  0.00    +0.000 OA
BRANCH  14  16
ATOM     16  O   UNL     1       0.592   3.469  20.193  0.00  0.00    +0.000 OA
ATOM     17  H   UNL     1       0.662   4.421  20.388  0.00  0.00    +0.000 HD
ENDBRANCH  14  16
ENDBRANCH   9  14
TORSDOF 2
ENDMDL
MODEL 5
REMARK VINA RESULT:      -6.9      1.908      5.361
REMARK  Name = 
REMARK  4 active torsions:
REMARK  status: ('A' for Active; 'I' for Inactive)
REMARK    1  A    between atoms: C_1  and  C_2
REMARK    2  A    between atoms: C_2  and  C_3
REMARK    3  A    between atoms: C_9  and  C_10
REMARK    4  A    between atoms: C_10  and  O_12
REMARK                            x       y       z     vdW  Elec       q    Type
REMARK                         _______ _______ _______ _____ _____    ______ ____
ROOT
ATOM      1  C   UNL     1       2.555   2.720  20.951  0.00  0.00    +0.000 C 
ATOM      2  C   UNL     1       2.224   3.663  19.793  0.00  0.00    +0.000 C 
ATOM      3  C   UNL     1       1.326   4.810  20.247  0.00  0.00    +0.000 C 
ATOM      4  C   UNL     1       1.521   2.861  18.669  0.00  0.00    +0.000 C 
ATOM      5  O   UNL     1       0.452   2.278  18.738  0.00  0.00    +0.000 OA
ATOM      6  N   UNL     1       2.334   2.918  17.543  0.00  0.00    +0.000 N 
ATOM      7  C   UNL     1       3.475   3.667  17.776  0.00  0.00    +0.000 A 
ATOM      8  C   UNL     1       4.498   3.921  16.888  0.00  0.00    +0.000 A 
ATOM      9  C   UNL     1       5.568   4.703  17.338  0.00  0.00    +0.000 A 
ATOM     10  C   UNL     1       5.584   5.198  18.663  0.00  0.00    +0.000 A 
ATOM     11  C   UNL     1       4.524   4.925  19.543  0.00  0.00    +0.000 A 
ATOM     12  C   UNL     1       3.472   4.151  19.084  0.00  0.00    +0.000 A 
ATOM     13  H   UNL     1       2.095   2.459  16.677  0.00  0.00    +0.000 HD
ENDROOT
BRANCH   9  14
ATOM     14  C   UNL     1       6.694   4.925  16.392  0.00  0.00    +0.000 C 
ATOM     15  O   UNL     1       7.800   4.445  16.567  0.00  0.00    +0.000 OA
BRANCH  14  16
ATOM     16  O   UNL     1       6.380   5.665  15.309  0.00  0.00    +0.000 OA
ATOM     17  H   UNL     1       6.444   6.630  15.421  0.00  0.00    +0.000 HD
ENDBRANCH  14  16
ENDBRANCH   9  14
TORSDOF 2
ENDMDL
MODEL 6
REMARK VINA RESULT:      -6.9      1.949      5.550
REMARK  Name = 
REMARK  4 active torsions:
REMARK  status: ('A' for Active; 'I' for Inactive)
REMARK    1  A    between atoms: C_1  and  C_2
REMARK    2  A    between atoms: C_2  and  C_3
REMARK    3  A    between atoms: C_9  and  C_10
REMARK    4  A    between atoms: C_10  and  O_12
REMARK                            x       y       z     vdW  Elec       q    Type
REMARK                         _______ _______ _______ _____ _____    ______ ____
ROOT
ATOM      1  C   UNL     1       3.785   5.302  19.763  0.00  0.00    +0.000 C 
ATOM      2  C   UNL     1       3.264   4.640  18.487  0.00  0.00    +0.000 C 
ATOM      3  C   UNL     1       1.811   5.020  18.214  0.00  0.00    +0.000 C 
ATOM      4  C   UNL     1       3.385   3.102  18.624  0.00  0.00    +0.000 C 
ATOM      5  O   UNL     1       2.825   2.389  19.439  0.00  0.00    +0.000 OA
ATOM      6  N   UNL     1       4.264   2.662  17.641  0.00  0.00    +0.000 N 
ATOM      7  C   UNL     1       4.725   3.711  16.864  0.00  0.00    +0.000 A 
ATOM      8  C   UNL     1       5.613   3.638  15.812  0.00  0.00    +0.000 A 
ATOM      9  C   UNL     1       5.949   4.832  15.163  0.00  0.00    +0.000 A 
ATOM     10  C   UNL     1       5.394   6.060  15.594  0.00  0.00    +0.000 A 
ATOM     11  C   UNL     1       4.490   6.100  16.666  0.00  0.00    +0.000 A 
ATOM     12  C   UNL     1       4.166   4.912  17.298  0.00  0.00    +0.000 A 
ATOM     13  H   UNL     1       4.516   1.691  17.533  0.00  0.00    +0.000 HD
ENDROOT
BRANCH   9  14
ATOM     14  C   UNL     1       6.950   4.751  14.066  0.00  0.00    +0.000 C 
ATOM     15  O   UNL     1       7.886   5.526  13.976  0.00  0.00    +0.000 OA
BRANCH  14  16
ATOM     16  O   UNL     1       6.760   3.730  13.206  0.00  0.00    +0.000 OA
ATOM     17  H   UNL     1       5.905   3.270  13.275  0.00  0.00    +0.000 HD
ENDBRANCH  14  16
ENDBRANCH   9  14
TORSDOF 2
ENDMDL
MODEL 7
REMARK VINA RESULT:      -6.9      1.935      5.074
REMARK  Name = 
REMARK  4 active torsions:
REMARK  status: ('A' for Active; 'I' for Inactive)
REMARK    1  A    between atoms: C_1  and  C_2
REMARK    2  A    between atoms: C_2  and  C_3
REMARK    3  A    between atoms: C_9  and  C_10
REMARK    4  A    between atoms: C_10  and  O_12
REMARK                            x       y       z     vdW  Elec       q    Type
REMARK                         _______ _______ _______ _____ _____    ______ ____
ROOT
ATOM      1  C   UNL     1       1.973   4.384  19.287  0.00  0.00    +0.000 C 
ATOM      2  C   UNL     1       3.089   3.820  18.407  0.00  0.00    +0.000 C 
ATOM      3  C   UNL     1       2.529   3.175  17.142  0.00  0.00    +0.000 C 
ATOM      4  C   UNL     1       3.895   2.773  19.215  0.00  0.00    +0.000 C 
ATOM      5  O   UNL     1       3.483   1.724  19.679  0.00  0.00    +0.000 OA
ATOM      6  N   UNL     1       5.198   3.245  19.328  0.00  0.00    +0.000 N 
ATOM      7  C   UNL     1       5.357   4.460  18.685  0.00  0.00    +0.000 A 
ATOM      8  C   UNL     1       6.508   5.214  18.606  0.00  0.00    +0.000 A 
ATOM      9  C   UNL     1       6.444   6.425  17.905  0.00  0.00    +0.000 A 
ATOM     10  C   UNL     1       5.230   6.845  17.314  0.00  0.00    +0.000 A 
ATOM     11  C   UNL     1       4.075   6.052  17.410  0.00  0.00    +0.000 A 
ATOM     12  C   UNL     1       4.153   4.857  18.105  0.00  0.00    +0.000 A 
ATOM     13  H   UNL     1       5.917   2.740  19.826  0.00  0.00    +0.000 HD
ENDROOT
BRANCH   9  14
ATOM     14  C   UNL     1       7.676   7.257  17.873  0.00  0.00    +0.000 C 
ATOM     15  O   UNL     1       7.920   8.028  16.961  0.00  0.00    +0.000 OA
BRANCH  14  16
ATOM     16  O   UNL     1       8.477   7.117  18.949  0.00  0.00    +0.000 OA
ATOM     17  H   UNL     1       8.201   6.449  19.600  0.00  0.00    +0.000 HD
ENDBRANCH  14  16
ENDBRANCH   9  14
TORSDOF 2
ENDMDL
MODEL 8
REMARK VINA RESULT:      -6.8      1.410      5.197
REMARK  Name = 
REMARK  4 active torsions:
REMARK  status: ('A' for Active; 'I' for Inactive)
REMARK    1  A    between atoms: C_1  and  C_2
REMARK    2  A    between atoms: C_2  and  C_3
REMARK    3  A    between atoms: C_9  and  C_10
REMARK    4  A    between atoms: C_10  and  O_12
REMARK                            x       y       z     vdW  Elec       q    Type
REMARK                         _______ _______ _______ _____ _____    ______ ____
ROOT
ATOM      1  C   UNL     1       1.064   4.841  20.459  0.00  0.00    +0.000 C 
ATOM      2  C   UNL     1       1.727   3.604  19.852  0.00  0.00    +0.000 C 
ATOM      3  C   UNL     1       0.706   2.706  19.159  0.00  0.00    +0.000 C 
ATOM      4  C   UNL     1       2.447   2.811  20.972  0.00  0.00    +0.000 C 
ATOM      5  O   UNL     1       1.936   2.283  21.945  0.00  0.00    +0.000 OA
ATOM      6  N   UNL     1       3.804   2.805  20.675  0.00  0.00    +0.000 N 
ATOM      7  C   UNL     1       4.071   3.480  19.495  0.00  0.00    +0.000 A 
ATOM      8  C   UNL     1       5.303   3.677  18.911  0.00  0.00    +0.000 A 
ATOM      9  C   UNL     1       5.345   4.399  17.711  0.00  0.00    +0.000 A 
ATOM     10  C   UNL     1       4.153   4.906  17.142  0.00  0.00    +0.000 A 
ATOM     11  C   UNL     1       2.912   4.685  17.760  0.00  0.00    +0.000 A 
ATOM     12  C   UNL     1       2.887   3.969  18.945  0.00  0.00    +0.000 A 
ATOM     13  H   UNL     1       4.488   2.357  21.267  0.00  0.00    +0.000 HD
ENDROOT
BRANCH   9  14
ATOM     14  C   UNL     1       6.684   4.654  17.118  0.00  0.00    +0.000 C 
ATOM     15  O   UNL     1       6.843   5.378  16.150  0.00  0.00    +0.000 OA
BRANCH  14  16
ATOM     16  O   UNL     1       7.707   4.053  17.759  0.00  0.00    +0.000 OA
ATOM     17  H   UNL     1       8.373   4.647  18.147  0.00  0.00    +0.000 HD
ENDBRANCH  14  16
ENDBRANCH   9  14
TORSDOF 2
ENDMDL
MODEL 9
REMARK VINA RESULT:      -6.7      1.573      5.222
REMARK  Name = 
REMARK  4 active torsions:
REMARK  status: ('A' for Active; 'I' for Inactive)
REMARK    1  A    between atoms: C_1  and  C_2
REMARK    2  A    between atoms: C_2  and  C_3
REMARK    3  A    between atoms: C_9  and  C_10
REMARK    4  A    between atoms: C_10  and  O_12
REMARK                            x       y       z     vdW  Elec       q    Type
REMARK                         _______ _______ _______ _____ _____    ______ ____
ROOT
ATOM      1  C   UNL     1       1.939   5.150  20.577  0.00  0.00    +0.000 C 
ATOM      2  C   UNL     1       2.539   4.304  19.454  0.00  0.00    +0.000 C 
ATOM      3  C   UNL     1       1.452   3.686  18.579  0.00  0.00    +0.000 C 
ATOM      4  C   UNL     1       3.415   3.185  20.070  0.00  0.00    +0.000 C 
ATOM      5  O   UNL     1       3.047   2.280  20.800  0.00  0.00    +0.000 OA
ATOM      6  N   UNL     1       4.721   3.392  19.644  0.00  0.00    +0.000 N 
ATOM      7  C   UNL     1       4.816   4.495  18.813  0.00  0.00    +0.000 A 
ATOM      8  C   UNL     1       5.957   4.994  18.220  0.00  0.00    +0.000 A 
ATOM      9  C   UNL     1       5.826   6.132  17.416  0.00  0.00    +0.000 A 
ATOM     10  C   UNL     1       4.561   6.739  17.238  0.00  0.00    +0.000 A 
ATOM     11  C   UNL     1       3.417   6.205  17.852  0.00  0.00    +0.000 A 
ATOM     12  C   UNL     1       3.561   5.079  18.644  0.00  0.00    +0.000 A 
ATOM     13  H   UNL     1       5.485   2.795  19.923  0.00  0.00    +0.000 HD
ENDROOT
BRANCH   9  14
ATOM     14  C   UNL     1       7.070   6.695  16.827  0.00  0.00    +0.000 C 
ATOM     15  O   UNL     1       7.595   7.708  17.254  0.00  0.00    +0.000 OA
BRANCH  14  16
ATOM     16  O   UNL     1       7.587   5.974  15.811  0.00  0.00    +0.000 OA
ATOM     17  H   UNL     1       8.501   5.661  15.934  0.00  0.00    +0.000 HD
ENDBRANCH  14  16
ENDBRANCH   9  14
TORSDOF 2
ENDMDL
