MODEL 1
REMARK VINA RESULT:      -7.1      0.000      0.000
REMARK  Name = 
REMARK  10 active torsions:
REMARK  status: ('A' for Active; 'I' for Inactive)
REMARK    1  A    between atoms: C_1  and  C_2
REMARK    2  A    between atoms: C_2  and  C_3
REMARK    3  A    between atoms: C_8  and  C_9
REMARK    4  A    between atoms: N_11  and  C_12
REMARK    5  A    between atoms: C_12  and  C_13
REMARK    6  A    between atoms: C_12  and  C_18
REMARK    7  A    between atoms: C_13  and  C_14
REMARK    8  A    between atoms: C_14  and  N_15
REMARK    9  A    between atoms: N_15  and  C_16
REMARK   10  A    between atoms: N_15  and  C_17
REMARK                            x       y       z     vdW  Elec       q    Type
REMARK                         _______ _______ _______ _____ _____    ______ ____
ROOT
ATOM      1  C   UNL     1       2.464   5.767  19.014  0.00  0.00    +0.000 C 
ENDROOT
BRANCH   1   2
ATOM      2  C   UNL     1       2.051   7.233  19.055  0.00  0.00    +0.000 A 
ATOM      3  C   UNL     1       1.600   7.803  20.255  0.00  0.00    +0.000 A 
ATOM      4  C   UNL     1       1.214   9.145  20.302  0.00  0.00    +0.000 A 
ATOM      5  C   UNL     1       1.269   9.923  19.149  0.00  0.00    +0.000 A 
ATOM      6 CL   UNL     1       0.757  11.564  19.195  0.00  0.00    +0.000 Cl
ATOM      7  C   UNL     1       1.732   9.380  17.953  0.00  0.00    +0.000 A 
ATOM      8  C   UNL     1       2.129   8.043  17.908  0.00  0.00    +0.000 A 
ENDBRANCH   1   2
BRANCH   1  11
ATOM      9  C   UNL     1       3.850   4.613  17.291  0.00  0.00    +0.000 C 
ATOM     10  O   UNL     1       3.032   3.716  17.121  0.00  0.00    +0.000 OA
ATOM     11  N   UNL     1       3.675   5.631  18.202  0.00  0.00    +0.000 N 
ATOM     12  H   UNL     1       4.223   6.466  18.059  0.00  0.00    +0.000 HD
BRANCH   9  18
ATOM     13  C   UNL     1       6.398   4.879  16.910  0.00  0.00    +0.000 A 
ATOM     14  C   UNL     1       7.458   4.879  15.978  0.00  0.00    +0.000 A 
ATOM     15  C   UNL     1       7.234   4.664  14.618  0.00  0.00    +0.000 A 
ATOM     16  C   UNL     1       5.946   4.438  14.155  0.00  0.00    +0.000 A 
ATOM     17  C   UNL     1       4.877   4.444  15.058  0.00  0.00    +0.000 A 
ATOM     18  C   UNL     1       5.081   4.675  16.436  0.00  0.00    +0.000 A 
BRANCH  13  20
ATOM     19  C   UNL     1       7.660   6.178  18.644  0.00  0.00    +0.000 C 
ATOM     20  C   UNL     1       6.792   4.959  18.369  0.00  0.00    +0.000 C 
ENDBRANCH  13  20
ENDBRANCH   9  18
ENDBRANCH   1  11
BRANCH   1  21
ATOM     21  C   UNL     1       2.701   5.196  20.431  0.00  0.00    +0.000 C 
BRANCH  21  22
ATOM     22  C   UNL     1       1.622   4.174  20.843  0.00  0.00    +0.000 C 
BRANCH  22  23
ATOM     23  N   UNL     1       1.992   2.759  20.633  0.00  0.00    +0.000 NA
ATOM     24  C   UNL     1       1.331   2.175  19.464  0.00  0.00    +0.000 C 
ATOM     25  C   UNL     1       3.448   2.661  20.458  0.00  0.00    +0.000 C 
ENDBRANCH  22  23
ENDBRANCH  21  22
ENDBRANCH   1  21
TORSDOF 7
ENDMDL
MODEL 2
REMARK VINA RESULT:      -7.1      2.779      6.310
REMARK  Name = 
REMARK  10 active torsions:
REMARK  status: ('A' for Active; 'I' for Inactive)
REMARK    1  A    between atoms: C_1  and  C_2
REMARK    2  A    between atoms: C_2  and  C_3
REMARK    3  A    between atoms: C_8  and  C_9
REMARK    4  A    between atoms: N_11  and  C_12
REMARK    5  A    between atoms: C_12  and  C_13
REMARK    6  A    between atoms: C_12  and  C_18
REMARK    7  A    between atoms: C_13  and  C_14
REMARK    8  A    between atoms: C_14  and  N_15
REMARK    9  A    between atoms: N_15  and  C_16
REMARK   10  A    between atoms: N_15  and  C_17
REMARK                            x       y       z     vdW  Elec       q    Type
REMARK                         _______ _______ _______ _____ _____    ______ ____
ROOT
ATOM      1  C   UNL     1       2.947   5.178  18.284  0.00  0.00    +0.000 C 
ENDROOT
BRANCH   1   2
ATOM      2  C   UNL     1       4.035   5.137  17.217  0.00  0.00    +0.000 A 
ATOM      3  C   UNL     1       4.488   3.903  16.722  0.00  0.00    +0.000 A 
ATOM      4  C   UNL     1       5.488   3.854  15.749  0.00  0.00    +0.000 A 
ATOM      5  C   UNL     1       6.047   5.035  15.269  0.00  0.00    +0.000 A 
ATOM      6 CL   UNL     1       7.307   4.976  14.099  0.00  0.00    +0.000 Cl
ATOM      7  C   UNL     1       5.598   6.268  15.733  0.00  0.00    +0.000 A 
ATOM      8  C   UNL     1       4.591   6.320  16.699  0.00  0.00    +0.000 A 
ENDBRANCH   1   2
BRANCH   1  11
ATOM      9  C   UNL     1       2.055   7.174  19.483  0.00  0.00    +0.000 C 
ATOM     10  O   UNL     1       2.219   6.678  20.593  0.00  0.00    +0.000 OA
ATOM     11  N   UNL     1       2.353   6.516  18.311  0.00  0.00    +0.000 N 
ATOM     12  H   UNL     1       2.482   7.088  17.490  0.00  0.00    +0.000 HD
BRANCH   9  18
ATOM     13  C   UNL     1       0.696   9.237  20.262  0.00  0.00    +0.000 A 
ATOM     14  C   UNL     1       0.361  10.587  20.025  0.00  0.00    +0.000 A 
ATOM     15  C   UNL     1       0.889  11.291  18.943  0.00  0.00    +0.000 A 
ATOM     16  C   UNL     1       1.769  10.666  18.072  0.00  0.00    +0.000 A 
ATOM     17  C   UNL     1       2.108   9.324  18.280  0.00  0.00    +0.000 A 
ATOM     18  C   UNL     1       1.573   8.590  19.361  0.00  0.00    +0.000 A 
BRANCH  13  20
ATOM     19  C   UNL     1       0.068   9.694  22.645  0.00  0.00    +0.000 C 
ATOM     20  C   UNL     1       0.187   8.640  21.556  0.00  0.00    +0.000 C 
ENDBRANCH  13  20
ENDBRANCH   9  18
ENDBRANCH   1  11
BRANCH   1  21
ATOM     21  C   UNL     1       1.857   4.110  18.035  0.00  0.00    +0.000 C 
BRANCH  21  22
ATOM     22  C   UNL     1       1.844   3.018  19.123  0.00  0.00    +0.000 C 
BRANCH  22  23
ATOM     23  N   UNL     1       2.757   3.259  20.260  0.00  0.00    +0.000 NA
ATOM     24  C   UNL     1       2.108   3.039  21.555  0.00  0.00    +0.000 C 
ATOM     25  C   UNL     1       3.916   2.361  20.147  0.00  0.00    +0.000 C 
ENDBRANCH  22  23
ENDBRANCH  21  22
ENDBRANCH   1  21
TORSDOF 7
ENDMDL
MODEL 3
REMARK VINA RESULT:      -7.0      0.348      1.047
REMARK  Name = 
REMARK  10 active torsions:
REMARK  status: ('A' for Active; 'I' for Inactive)
REMARK    1  A    between atoms: C_1  and  C_2
REMARK    2  A    between atoms: C_2  and  C_3
REMARK    3  A    between atoms: C_8  and  C_9
REMARK    4  A    between atoms: N_11  and  C_12
REMARK    5  A    between atoms: C_12  and  C_13
REMARK    6  A    between atoms: C_12  and  C_18
REMARK    7  A    between atoms: C_13  and  C_14
REMARK    8  A    between atoms: C_14  and  N_15
REMARK    9  A    between atoms: N_15  and  C_16
REMARK   10  A    between atoms: N_15  and  C_17
REMARK                            x       y       z     vdW  Elec       q    Type
REMARK                         _______ _______ _______ _____ _____    ______ ____
ROOT
ATOM      1  C   UNL     1       2.540   5.893  18.823  0.00  0.00    +0.000 C 
ENDROOT
BRANCH   1   2
ATOM      2  C   UNL     1       2.108   7.352  18.897  0.00  0.00    +0.000 A 
ATOM      3  C   UNL     1       2.172   8.164  17.753  0.00  0.00    +0.000 A 
ATOM      4  C   UNL     1       1.784   9.505  17.812  0.00  0.00    +0.000 A 
ATOM      5  C   UNL     1       1.336  10.045  19.015  0.00  0.00    +0.000 A 
ATOM      6 CL   UNL     1       0.895  11.705  19.100  0.00  0.00    +0.000 Cl
ATOM      7  C   UNL     1       1.247   9.250  20.155  0.00  0.00    +0.000 A 
ATOM      8  C   UNL     1       1.625   7.908  20.095  0.00  0.00    +0.000 A 
ENDBRANCH   1   2
BRANCH   1  11
ATOM      9  C   UNL     1       4.069   4.601  17.336  0.00  0.00    +0.000 C 
ATOM     10  O   UNL     1       3.477   3.543  17.516  0.00  0.00    +0.000 OA
ATOM     11  N   UNL     1       3.706   5.782  17.944  0.00  0.00    +0.000 N 
ATOM     12  H   UNL     1       4.034   6.633  17.514  0.00  0.00    +0.000 HD
BRANCH   9  18
ATOM     13  C   UNL     1       6.563   4.879  16.696  0.00  0.00    +0.000 A 
ATOM     14  C   UNL     1       7.523   4.880  15.661  0.00  0.00    +0.000 A 
ATOM     15  C   UNL     1       7.163   4.656  14.332  0.00  0.00    +0.000 A 
ATOM     16  C   UNL     1       5.837   4.421  14.003  0.00  0.00    +0.000 A 
ATOM     17  C   UNL     1       4.865   4.426  15.011  0.00  0.00    +0.000 A 
ATOM     18  C   UNL     1       5.207   4.665  16.360  0.00  0.00    +0.000 A 
BRANCH  13  20
ATOM     19  C   UNL     1       7.629   6.362  18.413  0.00  0.00    +0.000 C 
ATOM     20  C   UNL     1       7.104   4.969  18.107  0.00  0.00    +0.000 C 
ENDBRANCH  13  20
ENDBRANCH   9  18
ENDBRANCH   1  11
BRANCH   1  21
ATOM     21  C   UNL     1       2.863   5.317  20.221  0.00  0.00    +0.000 C 
BRANCH  21  22
ATOM     22  C   UNL     1       1.637   4.660  20.885  0.00  0.00    +0.000 C 
BRANCH  22  23
ATOM     23  N   UNL     1       1.620   3.182  20.838  0.00  0.00    +0.000 NA
ATOM     24  C   UNL     1       0.905   2.668  19.668  0.00  0.00    +0.000 C 
ATOM     25  C   UNL     1       3.003   2.685  20.811  0.00  0.00    +0.000 C 
ENDBRANCH  22  23
ENDBRANCH  21  22
ENDBRANCH   1  21
TORSDOF 7
ENDMDL
MODEL 4
REMARK VINA RESULT:      -7.0      2.771      6.304
REMARK  Name = 
REMARK  10 active torsions:
REMARK  status: ('A' for Active; 'I' for Inactive)
REMARK    1  A    between atoms: C_1  and  C_2
REMARK    2  A    between atoms: C_2  and  C_3
REMARK    3  A    between atoms: C_8  and  C_9
REMARK    4  A    between atoms: N_11  and  C_12
REMARK    5  A    between atoms: C_12  and  C_13
REMARK    6  A    between atoms: C_12  and  C_18
REMARK    7  A    between atoms: C_13  and  C_14
REMARK    8  A    between atoms: C_14  and  N_15
REMARK    9  A    between atoms: N_15  and  C_16
REMARK   10  A    between atoms: N_15  and  C_17
REMARK                            x       y       z     vdW  Elec       q    Type
REMARK                         _______ _______ _______ _____ _____    ______ ____
ROOT
ATOM      1  C   UNL     1       2.873   5.194  18.210  0.00  0.00    +0.000 C 
ENDROOT
BRANCH   1   2
ATOM      2  C   UNL     1       4.007   5.142  17.194  0.00  0.00    +0.000 A 
ATOM      3  C   UNL     1       4.622   6.329  16.764  0.00  0.00    +0.000 A 
ATOM      4  C   UNL     1       5.658   6.293  15.829  0.00  0.00    +0.000 A 
ATOM      5  C   UNL     1       6.083   5.072  15.311  0.00  0.00    +0.000 A 
ATOM      6 CL   UNL     1       7.332   5.028  14.129  0.00  0.00    +0.000 Cl
ATOM      7  C   UNL     1       5.499   3.883  15.739  0.00  0.00    +0.000 A 
ATOM      8  C   UNL     1       4.470   3.917  16.682  0.00  0.00    +0.000 A 
ENDBRANCH   1   2
BRANCH   1  11
ATOM      9  C   UNL     1       1.979   7.147  19.476  0.00  0.00    +0.000 C 
ATOM     10  O   UNL     1       1.990   6.555  20.550  0.00  0.00    +0.000 OA
ATOM     11  N   UNL     1       2.362   6.564  18.290  0.00  0.00    +0.000 N 
ATOM     12  H   UNL     1       2.616   7.189  17.539  0.00  0.00    +0.000 HD
BRANCH   9  18
ATOM     13  C   UNL     1       0.955   9.312  20.463  0.00  0.00    +0.000 A 
ATOM     14  C   UNL     1       0.696  10.687  20.275  0.00  0.00    +0.000 A 
ATOM     15  C   UNL     1       1.078  11.348  19.108  0.00  0.00    +0.000 A 
ATOM     16  C   UNL     1       1.734  10.656  18.101  0.00  0.00    +0.000 A 
ATOM     17  C   UNL     1       1.993   9.290  18.260  0.00  0.00    +0.000 A 
ATOM     18  C   UNL     1       1.601   8.598  19.427  0.00  0.00    +0.000 A 
BRANCH  13  20
ATOM     19  C   UNL     1      -0.100   9.771  22.690  0.00  0.00    +0.000 C 
ATOM     20  C   UNL     1       0.639   8.755  21.833  0.00  0.00    +0.000 C 
ENDBRANCH  13  20
ENDBRANCH   9  18
ENDBRANCH   1  11
BRANCH   1  21
ATOM     21  C   UNL     1       1.732   4.215  17.848  0.00  0.00    +0.000 C 
BRANCH  21  22
ATOM     22  C   UNL     1       1.229   3.420  19.070  0.00  0.00    +0.000 C 
BRANCH  22  23
ATOM     23  N   UNL     1       2.248   3.164  20.110  0.00  0.00    +0.000 NA
ATOM     24  C   UNL     1       1.654   2.784  21.393  0.00  0.00    +0.000 C 
ATOM     25  C   UNL     1       3.140   2.088  19.657  0.00  0.00    +0.000 C 
ENDBRANCH  22  23
ENDBRANCH  21  22
ENDBRANCH   1  21
TORSDOF 7
ENDMDL
MODEL 5
REMARK VINA RESULT:      -6.9      2.634      6.431
REMARK  Name = 
REMARK  10 active torsions:
REMARK  status: ('A' for Active; 'I' for Inactive)
REMARK    1  A    between atoms: C_1  and  C_2
REMARK    2  A    between atoms: C_2  and  C_3
REMARK    3  A    between atoms: C_8  and  C_9
REMARK    4  A    between atoms: N_11  and  C_12
REMARK    5  A    between atoms: C_12  and  C_13
REMARK    6  A    between atoms: C_12  and  C_18
REMARK    7  A    between atoms: C_13  and  C_14
REMARK    8  A    between atoms: C_14  and  N_15
REMARK    9  A    between atoms: N_15  and  C_16
REMARK   10  A    between atoms: N_15  and  C_17
REMARK                            x       y       z     vdW  Elec       q    Type
REMARK                         _______ _______ _______ _____ _____    ______ ____
ROOT
ATOM      1  C   UNL     1       5.724   4.366  16.457  0.00  0.00    +0.000 C 
ENDROOT
BRANCH   1   2
ATOM      2  C   UNL     1       6.482   5.555  17.034  0.00  0.00    +0.000 A 
ATOM      3  C   UNL     1       7.519   5.347  17.957  0.00  0.00    +0.000 A 
ATOM      4  C   UNL     1       8.216   6.431  18.496  0.00  0.00    +0.000 A 
ATOM      5  C   UNL     1       7.877   7.729  18.121  0.00  0.00    +0.000 A 
ATOM      6 CL   UNL     1       8.708   9.067  18.814  0.00  0.00    +0.000 Cl
ATOM      7  C   UNL     1       6.865   7.954  17.192  0.00  0.00    +0.000 A 
ATOM      8  C   UNL     1       6.175   6.871  16.645  0.00  0.00    +0.000 A 
ENDBRANCH   1   2
BRANCH   1  11
ATOM      9  C   UNL     1       4.459   3.717  18.506  0.00  0.00    +0.000 C 
ATOM     10  O   UNL     1       5.469   3.384  19.118  0.00  0.00    +0.000 OA
ATOM     11  N   UNL     1       4.481   4.178  17.209  0.00  0.00    +0.000 N 
ATOM     12  H   UNL     1       3.679   4.707  16.902  0.00  0.00    +0.000 HD
BRANCH   9  18
ATOM     13  C   UNL     1       2.477   4.827  19.749  0.00  0.00    +0.000 A 
ATOM     14  C   UNL     1       1.206   4.651  20.338  0.00  0.00    +0.000 A 
ATOM     15  C   UNL     1       0.581   3.405  20.365  0.00  0.00    +0.000 A 
ATOM     16  C   UNL     1       1.205   2.303  19.801  0.00  0.00    +0.000 A 
ATOM     17  C   UNL     1       2.471   2.450  19.220  0.00  0.00    +0.000 A 
ATOM     18  C   UNL     1       3.127   3.700  19.195  0.00  0.00    +0.000 A 
BRANCH  13  20
ATOM     19  C   UNL     1       2.535   6.892  18.329  0.00  0.00    +0.000 C 
ATOM     20  C   UNL     1       2.970   6.254  19.638  0.00  0.00    +0.000 C 
ENDBRANCH  13  20
ENDBRANCH   9  18
ENDBRANCH   1  11
BRANCH   1  21
ATOM     21  C   UNL     1       5.419   4.553  14.953  0.00  0.00    +0.000 C 
BRANCH  21  22
ATOM     22  C   UNL     1       6.296   3.655  14.057  0.00  0.00    +0.000 C 
BRANCH  22  23
ATOM     23  N   UNL     1       6.142   3.883  12.605  0.00  0.00    +0.000 NA
ATOM     24  C   UNL     1       7.170   3.197  11.819  0.00  0.00    +0.000 C 
ATOM     25  C   UNL     1       4.817   3.408  12.179  0.00  0.00    +0.000 C 
ENDBRANCH  22  23
ENDBRANCH  21  22
ENDBRANCH   1  21
TORSDOF 7
ENDMDL
MODEL 6
REMARK VINA RESULT:      -6.9      2.611      6.559
REMARK  Name = 
REMARK  10 active torsions:
REMARK  status: ('A' for Active; 'I' for Inactive)
REMARK    1  A    between atoms: C_1  and  C_2
REMARK    2  A    between atoms: C_2  and  C_3
REMARK    3  A    between atoms: C_8  and  C_9
REMARK    4  A    between atoms: N_11  and  C_12
REMARK    5  A    between atoms: C_12  and  C_13
REMARK    6  A    between atoms: C_12  and  C_18
REMARK    7  A    between atoms: C_13  and  C_14
REMARK    8  A    between atoms: C_14  and  N_15
REMARK    9  A    between atoms: N_15  and  C_16
REMARK   10  A    between atoms: N_15  and  C_17
REMARK                            x       y       z     vdW  Elec       q    Type
REMARK                         _______ _______ _______ _____ _____    ______ ____
ROOT
ATOM      1  C   UNL     1       5.805   4.398  16.751  0.00  0.00    +0.000 C 
ENDROOT
BRANCH   1   2
ATOM      2  C   UNL     1       6.533   5.640  17.249  0.00  0.00    +0.000 A 
ATOM      3  C   UNL     1       6.152   6.911  16.789  0.00  0.00    +0.000 A 
ATOM      4  C   UNL     1       6.816   8.055  17.235  0.00  0.00    +0.000 A 
ATOM      5  C   UNL     1       7.870   7.938  18.137  0.00  0.00    +0.000 A 
ATOM      6 CL   UNL     1       8.716   9.343  18.657  0.00  0.00    +0.000 Cl
ATOM      7  C   UNL     1       8.250   6.689  18.620  0.00  0.00    +0.000 A 
ATOM      8  C   UNL     1       7.580   5.545  18.183  0.00  0.00    +0.000 A 
ENDBRANCH   1   2
BRANCH   1  11
ATOM      9  C   UNL     1       4.612   3.719  18.833  0.00  0.00    +0.000 C 
ATOM     10  O   UNL     1       5.641   3.370  19.402  0.00  0.00    +0.000 OA
ATOM     11  N   UNL     1       4.590   4.203  17.544  0.00  0.00    +0.000 N 
ATOM     12  H   UNL     1       3.781   4.743  17.276  0.00  0.00    +0.000 HD
BRANCH   9  18
ATOM     13  C   UNL     1       2.217   4.567  19.333  0.00  0.00    +0.000 A 
ATOM     14  C   UNL     1       1.039   4.397  20.092  0.00  0.00    +0.000 A 
ATOM     15  C   UNL     1       0.926   3.385  21.044  0.00  0.00    +0.000 A 
ATOM     16  C   UNL     1       1.983   2.514  21.261  0.00  0.00    +0.000 A 
ATOM     17  C   UNL     1       3.165   2.670  20.528  0.00  0.00    +0.000 A 
ATOM     18  C   UNL     1       3.306   3.697  19.570  0.00  0.00    +0.000 A 
BRANCH  13  20
ATOM     19  C   UNL     1       2.650   6.951  18.689  0.00  0.00    +0.000 C 
ATOM     20  C   UNL     1       2.152   5.593  18.222  0.00  0.00    +0.000 C 
ENDBRANCH  13  20
ENDBRANCH   9  18
ENDBRANCH   1  11
BRANCH   1  21
ATOM     21  C   UNL     1       5.456   4.500  15.248  0.00  0.00    +0.000 C 
BRANCH  21  22
ATOM     22  C   UNL     1       6.523   3.844  14.349  0.00  0.00    +0.000 C 
BRANCH  22  23
ATOM     23  N   UNL     1       6.484   4.259  12.931  0.00  0.00    +0.000 NA
ATOM     24  C   UNL     1       7.658   5.047  12.547  0.00  0.00    +0.000 C 
ATOM     25  C   UNL     1       6.411   3.063  12.079  0.00  0.00    +0.000 C 
ENDBRANCH  22  23
ENDBRANCH  21  22
ENDBRANCH   1  21
TORSDOF 7
ENDMDL
MODEL 7
REMARK VINA RESULT:      -6.9      2.914      6.991
REMARK  Name = 
REMARK  10 active torsions:
REMARK  status: ('A' for Active; 'I' for Inactive)
REMARK    1  A    between atoms: C_1  and  C_2
REMARK    2  A    between atoms: C_2  and  C_3
REMARK    3  A    between atoms: C_8  and  C_9
REMARK    4  A    between atoms: N_11  and  C_12
REMARK    5  A    between atoms: C_12  and  C_13
REMARK    6  A    between atoms: C_12  and  C_18
REMARK    7  A    between atoms: C_13  and  C_14
REMARK    8  A    between atoms: C_14  and  N_15
REMARK    9  A    between atoms: N_15  and  C_16
REMARK   10  A    between atoms: N_15  and  C_17
REMARK                            x       y       z     vdW  Elec       q    Type
REMARK                         _______ _______ _______ _____ _____    ______ ____
ROOT
ATOM      1  C   UNL     1       3.105   7.214  17.665  0.00  0.00    +0.000 C 
ENDROOT
BRANCH   1   2
ATOM      2  C   UNL     1       2.575   6.048  18.490  0.00  0.00    +0.000 A 
ATOM      3  C   UNL     1       2.554   6.131  19.892  0.00  0.00    +0.000 A 
ATOM      4  C   UNL     1       2.076   5.066  20.658  0.00  0.00    +0.000 A 
ATOM      5  C   UNL     1       1.621   3.909  20.030  0.00  0.00    +0.000 A 
ATOM      6 CL   UNL     1       1.068   2.580  20.973  0.00  0.00    +0.000 Cl
ATOM      7  C   UNL     1       1.616   3.816  18.641  0.00  0.00    +0.000 A 
ATOM      8  C   UNL     1       2.084   4.884  17.874  0.00  0.00    +0.000 A 
ENDBRANCH   1   2
BRANCH   1  11
ATOM      9  C   UNL     1       1.585   9.136  18.126  0.00  0.00    +0.000 C 
ATOM     10  O   UNL     1       0.735   8.756  17.326  0.00  0.00    +0.000 OA
ATOM     11  N   UNL     1       2.771   8.470  18.338  0.00  0.00    +0.000 N 
ATOM     12  H   UNL     1       3.251   8.664  19.204  0.00  0.00    +0.000 HD
BRANCH   9  18
ATOM     13  C   UNL     1       0.746  10.315  20.273  0.00  0.00    +0.000 A 
ATOM     14  C   UNL     1       0.592  11.535  20.967  0.00  0.00    +0.000 A 
ATOM     15  C   UNL     1       1.012  12.745  20.414  0.00  0.00    +0.000 A 
ATOM     16  C   UNL     1       1.600  12.768  19.159  0.00  0.00    +0.000 A 
ATOM     17  C   UNL     1       1.753  11.572  18.447  0.00  0.00    +0.000 A 
ATOM     18  C   UNL     1       1.321  10.339  18.982  0.00  0.00    +0.000 A 
BRANCH  13  20
ATOM     19  C   UNL     1      -0.265   9.390  22.373  0.00  0.00    +0.000 C 
ATOM     20  C   UNL     1       0.402   9.061  21.047  0.00  0.00    +0.000 C 
ENDBRANCH  13  20
ENDBRANCH   9  18
ENDBRANCH   1  11
BRANCH   1  21
ATOM     21  C   UNL     1       4.632   7.113  17.441  0.00  0.00    +0.000 C 
BRANCH  21  22
ATOM     22  C   UNL     1       4.989   6.356  16.146  0.00  0.00    +0.000 C 
BRANCH  22  23
ATOM     23  N   UNL     1       6.424   6.039  15.985  0.00  0.00    +0.000 NA
ATOM     24  C   UNL     1       7.216   6.423  17.156  0.00  0.00    +0.000 C 
ATOM     25  C   UNL     1       6.577   4.595  15.756  0.00  0.00    +0.000 C 
ENDBRANCH  22  23
ENDBRANCH  21  22
ENDBRANCH   1  21
TORSDOF 7
ENDMDL
MODEL 8
REMARK VINA RESULT:      -6.8      0.926      1.509
REMARK  Name = 
REMARK  10 active torsions:
REMARK  status: ('A' for Active; 'I' for Inactive)
REMARK    1  A    between atoms: C_1  and  C_2
REMARK    2  A    between atoms: C_2  and  C_3
REMARK    3  A    between atoms: C_8  and  C_9
REMARK    4  A    between atoms: N_11  and  C_12
REMARK    5  A    between atoms: C_12  and  C_13
REMARK    6  A    between atoms: C_12  and  C_18
REMARK    7  A    between atoms: C_13  and  C_14
REMARK    8  A    between atoms: C_14  and  N_15
REMARK    9  A    between atoms: N_15  and  C_16
REMARK   10  A    between atoms: N_15  and  C_17
REMARK                            x       y       z     vdW  Elec       q    Type
REMARK                         _______ _______ _______ _____ _____    ______ ____
ROOT
ATOM      1  C   UNL     1       3.133   5.358  18.576  0.00  0.00    +0.000 C 
ENDROOT
BRANCH   1   2
ATOM      2  C   UNL     1       2.556   6.756  18.759  0.00  0.00    +0.000 A 
ATOM      3  C   UNL     1       2.541   7.657  17.682  0.00  0.00    +0.000 A 
ATOM      4  C   UNL     1       2.018   8.942  17.841  0.00  0.00    +0.000 A 
ATOM      5  C   UNL     1       1.515   9.339  19.077  0.00  0.00    +0.000 A 
ATOM      6 CL   UNL     1       0.908  10.935  19.285  0.00  0.00    +0.000 Cl
ATOM      7  C   UNL     1       1.504   8.453  20.151  0.00  0.00    +0.000 A 
ATOM      8  C   UNL     1       2.016   7.165  19.991  0.00  0.00    +0.000 A 
ENDBRANCH   1   2
BRANCH   1  11
ATOM      9  C   UNL     1       4.515   4.274  16.805  0.00  0.00    +0.000 C 
ATOM     10  O   UNL     1       4.057   3.157  17.023  0.00  0.00    +0.000 OA
ATOM     11  N   UNL     1       4.148   5.392  17.522  0.00  0.00    +0.000 N 
ATOM     12  H   UNL     1       4.325   6.286  17.089  0.00  0.00    +0.000 HD
BRANCH   9  18
ATOM     13  C   UNL     1       6.667   5.234  15.730  0.00  0.00    +0.000 A 
ATOM     14  C   UNL     1       7.477   5.309  14.577  0.00  0.00    +0.000 A 
ATOM     15  C   UNL     1       7.132   4.648  13.399  0.00  0.00    +0.000 A 
ATOM     16  C   UNL     1       5.972   3.890  13.342  0.00  0.00    +0.000 A 
ATOM     17  C   UNL     1       5.146   3.809  14.470  0.00  0.00    +0.000 A 
ATOM     18  C   UNL     1       5.470   4.483  15.667  0.00  0.00    +0.000 A 
BRANCH  13  20
ATOM     19  C   UNL     1       7.713   4.799  17.967  0.00  0.00    +0.000 C 
ATOM     20  C   UNL     1       7.234   5.858  16.986  0.00  0.00    +0.000 C 
ENDBRANCH  13  20
ENDBRANCH   9  18
ENDBRANCH   1  11
BRANCH   1  21
ATOM     21  C   UNL     1       3.740   4.811  19.889  0.00  0.00    +0.000 C 
BRANCH  21  22
ATOM     22  C   UNL     1       3.273   3.375  20.201  0.00  0.00    +0.000 C 
BRANCH  22  23
ATOM     23  N   UNL     1       1.810   3.170  20.147  0.00  0.00    +0.000 NA
ATOM     24  C   UNL     1       1.421   2.167  19.153  0.00  0.00    +0.000 C 
ATOM     25  C   UNL     1       1.333   2.743  21.471  0.00  0.00    +0.000 C 
ENDBRANCH  22  23
ENDBRANCH  21  22
ENDBRANCH   1  21
TORSDOF 7
ENDMDL
MODEL 9
REMARK VINA RESULT:      -6.8      2.595      6.452
REMARK  Name = 
REMARK  10 active torsions:
REMARK  status: ('A' for Active; 'I' for Inactive)
REMARK    1  A    between atoms: C_1  and  C_2
REMARK    2  A    between atoms: C_2  and  C_3
REMARK    3  A    between atoms: C_8  and  C_9
REMARK    4  A    between atoms: N_11  and  C_12
REMARK    5  A    between atoms: C_12  and  C_13
REMARK    6  A    between atoms: C_12  and  C_18
REMARK    7  A    between atoms: C_13  and  C_14
REMARK    8  A    between atoms: C_14  and  N_15
REMARK    9  A    between atoms: N_15  and  C_16
REMARK   10  A    between atoms: N_15  and  C_17
REMARK                            x       y       z     vdW  Elec       q    Type
REMARK                         _______ _______ _______ _____ _____    ______ ____
ROOT
ATOM      1  C   UNL     1       6.230   4.349  16.657  0.00  0.00    +0.000 C 
ENDROOT
BRANCH   1   2
ATOM      2  C   UNL     1       6.914   5.560  17.279  0.00  0.00    +0.000 A 
ATOM      3  C   UNL     1       6.886   6.800  16.621  0.00  0.00    +0.000 A 
ATOM      4  C   UNL     1       7.514   7.914  17.180  0.00  0.00    +0.000 A 
ATOM      5  C   UNL     1       8.180   7.797  18.397  0.00  0.00    +0.000 A 
ATOM      6 CL   UNL     1       8.989   9.159  19.069  0.00  0.00    +0.000 Cl
ATOM      7  C   UNL     1       8.202   6.581  19.075  0.00  0.00    +0.000 A 
ATOM      8  C   UNL     1       7.566   5.469  18.522  0.00  0.00    +0.000 A 
ENDBRANCH   1   2
BRANCH   1  11
ATOM      9  C   UNL     1       3.979   4.682  17.676  0.00  0.00    +0.000 C 
ATOM     10  O   UNL     1       3.818   5.780  17.152  0.00  0.00    +0.000 OA
ATOM     11  N   UNL     1       5.121   3.930  17.515  0.00  0.00    +0.000 N 
ATOM     12  H   UNL     1       5.045   2.943  17.712  0.00  0.00    +0.000 HD
BRANCH   9  18
ATOM     13  C   UNL     1       2.387   4.557  19.715  0.00  0.00    +0.000 A 
ATOM     14  C   UNL     1       1.313   3.882  20.334  0.00  0.00    +0.000 A 
ATOM     15  C   UNL     1       0.716   2.767  19.746  0.00  0.00    +0.000 A 
ATOM     16  C   UNL     1       1.173   2.300  18.523  0.00  0.00    +0.000 A 
ATOM     17  C   UNL     1       2.244   2.946  17.894  0.00  0.00    +0.000 A 
ATOM     18  C   UNL     1       2.871   4.067  18.480  0.00  0.00    +0.000 A 
BRANCH  13  20
ATOM     19  C   UNL     1       2.040   7.036  19.861  0.00  0.00    +0.000 C 
ATOM     20  C   UNL     1       2.834   5.845  20.373  0.00  0.00    +0.000 C 
ENDBRANCH  13  20
ENDBRANCH   9  18
ENDBRANCH   1  11
BRANCH   1  21
ATOM     21  C   UNL     1       5.721   4.648  15.228  0.00  0.00    +0.000 C 
BRANCH  21  22
ATOM     22  C   UNL     1       6.119   3.552  14.219  0.00  0.00    +0.000 C 
BRANCH  22  23
ATOM     23  N   UNL     1       6.039   3.953  12.799  0.00  0.00    +0.000 NA
ATOM     24  C   UNL     1       7.337   4.371  12.262  0.00  0.00    +0.000 C 
ATOM     25  C   UNL     1       5.535   2.823  12.005  0.00  0.00    +0.000 C 
ENDBRANCH  22  23
ENDBRANCH  21  22
ENDBRANCH   1  21
TORSDOF 7
ENDMDL
