MODEL 1
REMARK VINA RESULT:      -8.2      0.000      0.000
REMARK  Name = 
REMARK  5 active torsions:
REMARK  status: ('A' for Active; 'I' for Inactive)
REMARK    1  A    between atoms: C_2  and  C_18
REMARK    2  A    between atoms: N_3  and  C_4
REMARK    3  A    between atoms: C_4  and  C_5
REMARK    4  A    between atoms: C_4  and  C_12
REMARK    5  A    between atoms: C_5  and  C_6
REMARK                            x       y       z     vdW  Elec       q    Type
REMARK                         _______ _______ _______ _____ _____    ______ ____
ROOT
ATOM      1  C   UNL     1       2.827   6.114  19.134  0.00  0.00    +0.000 C 
ENDROOT
BRANCH   1   2
ATOM      2  C   UNL     1       2.144   4.749  19.214  0.00  0.00    +0.000 A 
ATOM      3  C   UNL     1       1.607   4.283  20.425  0.00  0.00    +0.000 A 
ATOM      4  C   UNL     1       1.069   2.995  20.518  0.00  0.00    +0.000 A 
ATOM      5  C   UNL     1       1.039   2.167  19.398  0.00  0.00    +0.000 A 
ATOM      6  C   UNL     1       1.521   2.635  18.179  0.00  0.00    +0.000 A 
ATOM      7  C   UNL     1       2.063   3.917  18.085  0.00  0.00    +0.000 A 
ENDBRANCH   1   2
BRANCH   1  10
ATOM      8  O   UNL     1       1.728   8.625  18.534  0.00  0.00    +0.000 OA
ATOM      9  C   UNL     1       1.697   8.237  19.704  0.00  0.00    +0.000 C 
ATOM     10  N   UNL     1       2.239   7.037  20.115  0.00  0.00    +0.000 N 
ATOM     11  H   UNL     1       1.953   6.653  21.006  0.00  0.00    +0.000 HD
BRANCH   9  12
ATOM     12  C   UNL     1       1.010   9.080  20.709  0.00  0.00    +0.000 A 
ATOM     13  C   UNL     1       0.215   8.464  21.685  0.00  0.00    +0.000 A 
ATOM     14  C   UNL     1      -0.450   9.244  22.628  0.00  0.00    +0.000 A 
ATOM     15  C   UNL     1      -0.311  10.619  22.558  0.00  0.00    +0.000 A 
ATOM     16  N   UNL     1       0.421  11.250  21.614  0.00  0.00    +0.000 NA
ATOM     17  C   UNL     1       1.053  10.466  20.699  0.00  0.00    +0.000 A 
ENDBRANCH   9  12
ENDBRANCH   1  10
BRANCH   1  18
ATOM     18  C   UNL     1       4.355   5.959  19.317  0.00  0.00    +0.000 C 
BRANCH  18  19
ATOM     19  C   UNL     1       5.141   5.593  18.077  0.00  0.00    +0.000 A 
ATOM     20  C   UNL     1       4.740   6.072  16.820  0.00  0.00    +0.000 A 
ATOM     21  C   UNL     1       5.534   5.862  15.692  0.00  0.00    +0.000 A 
ATOM     22  C   UNL     1       6.731   5.156  15.804  0.00  0.00    +0.000 A 
ATOM     23  C   UNL     1       7.122   4.645  17.039  0.00  0.00    +0.000 A 
ATOM     24  C   UNL     1       6.333   4.864  18.171  0.00  0.00    +0.000 A 
ENDBRANCH  18  19
ENDBRANCH   1  18
TORSDOF 5
ENDMDL
MODEL 2
REMARK VINA RESULT:      -8.1      1.068      1.225
REMARK  Name = 
REMARK  5 active torsions:
REMARK  status: ('A' for Active; 'I' for Inactive)
REMARK    1  A    between atoms: C_2  and  C_18
REMARK    2  A    between atoms: N_3  and  C_4
REMARK    3  A    between atoms: C_4  and  C_5
REMARK    4  A    between atoms: C_4  and  C_12
REMARK    5  A    between atoms: C_5  and  C_6
REMARK                            x       y       z     vdW  Elec       q    Type
REMARK                         _______ _______ _______ _____ _____    ______ ____
ROOT
ATOM      1  C   UNL     1       2.850   6.316  18.538  0.00  0.00    +0.000 C 
ENDROOT
BRANCH   1   2
ATOM      2  C   UNL     1       2.112   5.040  18.941  0.00  0.00    +0.000 A 
ATOM      3  C   UNL     1       1.726   4.822  20.274  0.00  0.00    +0.000 A 
ATOM      4  C   UNL     1       1.137   3.612  20.658  0.00  0.00    +0.000 A 
ATOM      5  C   UNL     1       0.906   2.617  19.711  0.00  0.00    +0.000 A 
ATOM      6  C   UNL     1       1.237   2.838  18.378  0.00  0.00    +0.000 A 
ATOM      7  C   UNL     1       1.829   4.042  17.994  0.00  0.00    +0.000 A 
ENDBRANCH   1   2
BRANCH   1  10
ATOM      8  O   UNL     1       2.272   8.762  17.291  0.00  0.00    +0.000 OA
ATOM      9  C   UNL     1       1.979   8.628  18.480  0.00  0.00    +0.000 C 
ATOM     10  N   UNL     1       2.250   7.483  19.200  0.00  0.00    +0.000 N 
ATOM     11  H   UNL     1       1.757   7.326  20.070  0.00  0.00    +0.000 HD
BRANCH   9  12
ATOM     12  C   UNL     1       1.265   9.734  19.160  0.00  0.00    +0.000 A 
ATOM     13  C   UNL     1       0.510   9.454  20.306  0.00  0.00    +0.000 A 
ATOM     14  C   UNL     1      -0.179  10.480  20.949  0.00  0.00    +0.000 A 
ATOM     15  C   UNL     1      -0.103  11.755  20.415  0.00  0.00    +0.000 A 
ATOM     16  N   UNL     1       0.589  12.058  19.296  0.00  0.00    +0.000 NA
ATOM     17  C   UNL     1       1.246  11.036  18.683  0.00  0.00    +0.000 A 
ENDBRANCH   9  12
ENDBRANCH   1  10
BRANCH   1  18
ATOM     18  C   UNL     1       4.360   6.180  18.845  0.00  0.00    +0.000 C 
BRANCH  18  19
ATOM     19  C   UNL     1       5.214   5.596  17.741  0.00  0.00    +0.000 A 
ATOM     20  C   UNL     1       4.852   5.779  16.397  0.00  0.00    +0.000 A 
ATOM     21  C   UNL     1       5.704   5.371  15.370  0.00  0.00    +0.000 A 
ATOM     22  C   UNL     1       6.920   4.762  15.673  0.00  0.00    +0.000 A 
ATOM     23  C   UNL     1       7.274   4.544  17.002  0.00  0.00    +0.000 A 
ATOM     24  C   UNL     1       6.428   4.961  18.032  0.00  0.00    +0.000 A 
ENDBRANCH  18  19
ENDBRANCH   1  18
TORSDOF 5
ENDMDL
MODEL 3
REMARK VINA RESULT:      -8.1      1.072      1.585
REMARK  Name = 
REMARK  5 active torsions:
REMARK  status: ('A' for Active; 'I' for Inactive)
REMARK    1  A    between atoms: C_2  and  C_18
REMARK    2  A    between atoms: N_3  and  C_4
REMARK    3  A    between atoms: C_4  and  C_5
REMARK    4  A    between atoms: C_4  and  C_12
REMARK    5  A    between atoms: C_5  and  C_6
REMARK                            x       y       z     vdW  Elec       q    Type
REMARK                         _______ _______ _______ _____ _____    ______ ____
ROOT
ATOM      1  C   UNL     1       2.906   6.289  18.467  0.00  0.00    +0.000 C 
ENDROOT
BRANCH   1   2
ATOM      2  C   UNL     1       2.180   4.996  18.836  0.00  0.00    +0.000 A 
ATOM      3  C   UNL     1       1.659   4.807  20.127  0.00  0.00    +0.000 A 
ATOM      4  C   UNL     1       1.081   3.585  20.491  0.00  0.00    +0.000 A 
ATOM      5  C   UNL     1       0.997   2.549  19.564  0.00  0.00    +0.000 A 
ATOM      6  C   UNL     1       1.464   2.739  18.267  0.00  0.00    +0.000 A 
ATOM      7  C   UNL     1       2.045   3.954  17.903  0.00  0.00    +0.000 A 
ENDBRANCH   1   2
BRANCH   1  10
ATOM      8  O   UNL     1       2.332   8.758  17.263  0.00  0.00    +0.000 OA
ATOM      9  C   UNL     1       2.015   8.594  18.443  0.00  0.00    +0.000 C 
ATOM     10  N   UNL     1       2.281   7.435  19.142  0.00  0.00    +0.000 N 
ATOM     11  H   UNL     1       1.771   7.254  19.997  0.00  0.00    +0.000 HD
BRANCH   9  12
ATOM     12  C   UNL     1       1.277   9.678  19.132  0.00  0.00    +0.000 A 
ATOM     13  C   UNL     1       0.670   9.410  20.366  0.00  0.00    +0.000 A 
ATOM     14  C   UNL     1      -0.040  10.415  21.020  0.00  0.00    +0.000 A 
ATOM     15  C   UNL     1      -0.135  11.654  20.411  0.00  0.00    +0.000 A 
ATOM     16  N   UNL     1       0.409  11.940  19.208  0.00  0.00    +0.000 NA
ATOM     17  C   UNL     1       1.090  10.940  18.587  0.00  0.00    +0.000 A 
ENDBRANCH   9  12
ENDBRANCH   1  10
BRANCH   1  18
ATOM     18  C   UNL     1       4.413   6.169  18.791  0.00  0.00    +0.000 C 
BRANCH  18  19
ATOM     19  C   UNL     1       5.308   5.741  17.649  0.00  0.00    +0.000 A 
ATOM     20  C   UNL     1       6.513   5.070  17.909  0.00  0.00    +0.000 A 
ATOM     21  C   UNL     1       7.275   4.545  16.864  0.00  0.00    +0.000 A 
ATOM     22  C   UNL     1       6.849   4.698  15.546  0.00  0.00    +0.000 A 
ATOM     23  C   UNL     1       5.673   5.393  15.273  0.00  0.00    +0.000 A 
ATOM     24  C   UNL     1       4.904   5.909  16.318  0.00  0.00    +0.000 A 
ENDBRANCH  18  19
ENDBRANCH   1  18
TORSDOF 5
ENDMDL
MODEL 4
REMARK VINA RESULT:      -8.1      1.065      1.851
REMARK  Name = 
REMARK  5 active torsions:
REMARK  status: ('A' for Active; 'I' for Inactive)
REMARK    1  A    between atoms: C_2  and  C_18
REMARK    2  A    between atoms: N_3  and  C_4
REMARK    3  A    between atoms: C_4  and  C_5
REMARK    4  A    between atoms: C_4  and  C_12
REMARK    5  A    between atoms: C_5  and  C_6
REMARK                            x       y       z     vdW  Elec       q    Type
REMARK                         _______ _______ _______ _____ _____    ______ ____
ROOT
ATOM      1  C   UNL     1       2.921   6.352  18.514  0.00  0.00    +0.000 C 
ENDROOT
BRANCH   1   2
ATOM      2  C   UNL     1       2.234   5.044  18.906  0.00  0.00    +0.000 A 
ATOM      3  C   UNL     1       2.014   4.034  17.955  0.00  0.00    +0.000 A 
ATOM      4  C   UNL     1       1.298   2.880  18.293  0.00  0.00    +0.000 A 
ATOM      5  C   UNL     1       0.815   2.712  19.588  0.00  0.00    +0.000 A 
ATOM      6  C   UNL     1       1.069   3.682  20.554  0.00  0.00    +0.000 A 
ATOM      7  C   UNL     1       1.777   4.836  20.217  0.00  0.00    +0.000 A 
ENDBRANCH   1   2
BRANCH   1  10
ATOM      8  O   UNL     1       2.245   8.791  17.303  0.00  0.00    +0.000 OA
ATOM      9  C   UNL     1       1.966   8.631  18.493  0.00  0.00    +0.000 C 
ATOM     10  N   UNL     1       2.284   7.487  19.195  0.00  0.00    +0.000 N 
ATOM     11  H   UNL     1       1.804   7.301  20.066  0.00  0.00    +0.000 HD
BRANCH   9  12
ATOM     12  C   UNL     1       1.218   9.702  19.192  0.00  0.00    +0.000 A 
ATOM     13  C   UNL     1       0.554   9.398  20.387  0.00  0.00    +0.000 A 
ATOM     14  C   UNL     1      -0.167  10.390  21.049  0.00  0.00    +0.000 A 
ATOM     15  C   UNL     1      -0.213  11.653  20.486  0.00  0.00    +0.000 A 
ATOM     16  N   UNL     1       0.388  11.975  19.321  0.00  0.00    +0.000 NA
ATOM     17  C   UNL     1       1.078  10.987  18.690  0.00  0.00    +0.000 A 
ENDBRANCH   9  12
ENDBRANCH   1  10
BRANCH   1  18
ATOM     18  C   UNL     1       4.437   6.268  18.807  0.00  0.00    +0.000 C 
BRANCH  18  19
ATOM     19  C   UNL     1       5.313   5.808  17.662  0.00  0.00    +0.000 A 
ATOM     20  C   UNL     1       6.491   5.090  17.919  0.00  0.00    +0.000 A 
ATOM     21  C   UNL     1       7.229   4.537  16.871  0.00  0.00    +0.000 A 
ATOM     22  C   UNL     1       6.808   4.709  15.555  0.00  0.00    +0.000 A 
ATOM     23  C   UNL     1       5.660   5.450  15.285  0.00  0.00    +0.000 A 
ATOM     24  C   UNL     1       4.913   5.994  16.332  0.00  0.00    +0.000 A 
ENDBRANCH  18  19
ENDBRANCH   1  18
TORSDOF 5
ENDMDL
MODEL 5
REMARK VINA RESULT:      -8.1      0.420      1.482
REMARK  Name = 
REMARK  5 active torsions:
REMARK  status: ('A' for Active; 'I' for Inactive)
REMARK    1  A    between atoms: C_2  and  C_18
REMARK    2  A    between atoms: N_3  and  C_4
REMARK    3  A    between atoms: C_4  and  C_5
REMARK    4  A    between atoms: C_4  and  C_12
REMARK    5  A    between atoms: C_5  and  C_6
REMARK                            x       y       z     vdW  Elec       q    Type
REMARK                         _______ _______ _______ _____ _____    ______ ____
ROOT
ATOM      1  C   UNL     1       2.923   6.049  19.100  0.00  0.00    +0.000 C 
ENDROOT
BRANCH   1   2
ATOM      2  C   UNL     1       2.299   4.659  19.224  0.00  0.00    +0.000 A 
ATOM      3  C   UNL     1       2.255   3.790  18.121  0.00  0.00    +0.000 A 
ATOM      4  C   UNL     1       1.598   2.558  18.209  0.00  0.00    +0.000 A 
ATOM      5  C   UNL     1       0.998   2.170  19.406  0.00  0.00    +0.000 A 
ATOM      6  C   UNL     1       1.077   3.000  20.521  0.00  0.00    +0.000 A 
ATOM      7  C   UNL     1       1.727   4.231  20.433  0.00  0.00    +0.000 A 
ENDBRANCH   1   2
BRANCH   1  10
ATOM      8  O   UNL     1       1.897   8.573  18.430  0.00  0.00    +0.000 OA
ATOM      9  C   UNL     1       1.785   8.187  19.595  0.00  0.00    +0.000 C 
ATOM     10  N   UNL     1       2.283   6.980  20.041  0.00  0.00    +0.000 N 
ATOM     11  H   UNL     1       1.934   6.600  20.911  0.00  0.00    +0.000 HD
BRANCH   9  12
ATOM     12  C   UNL     1       1.044   9.039  20.553  0.00  0.00    +0.000 A 
ATOM     13  C   UNL     1       1.046   8.697  21.911  0.00  0.00    +0.000 A 
ATOM     14  C   UNL     1       0.342   9.480  22.823  0.00  0.00    +0.000 A 
ATOM     15  C   UNL     1      -0.357  10.575  22.345  0.00  0.00    +0.000 A 
ATOM     16  N   UNL     1      -0.408  10.918  21.040  0.00  0.00    +0.000 NA
ATOM     17  C   UNL     1       0.281  10.132  20.169  0.00  0.00    +0.000 A 
ENDBRANCH   9  12
ENDBRANCH   1  10
BRANCH   1  18
ATOM     18  C   UNL     1       4.453   5.969  19.304  0.00  0.00    +0.000 C 
BRANCH  18  19
ATOM     19  C   UNL     1       5.278   5.705  18.063  0.00  0.00    +0.000 A 
ATOM     20  C   UNL     1       6.476   4.979  18.153  0.00  0.00    +0.000 A 
ATOM     21  C   UNL     1       7.168   4.606  17.001  0.00  0.00    +0.000 A 
ATOM     22  C   UNL     1       6.682   4.967  15.746  0.00  0.00    +0.000 A 
ATOM     23  C   UNL     1       5.513   5.718  15.646  0.00  0.00    +0.000 A 
ATOM     24  C   UNL     1       4.812   6.083  16.798  0.00  0.00    +0.000 A 
ENDBRANCH  18  19
ENDBRANCH   1  18
TORSDOF 5
ENDMDL
MODEL 6
REMARK VINA RESULT:      -8.1      0.362      1.068
REMARK  Name = 
REMARK  5 active torsions:
REMARK  status: ('A' for Active; 'I' for Inactive)
REMARK    1  A    between atoms: C_2  and  C_18
REMARK    2  A    between atoms: N_3  and  C_4
REMARK    3  A    between atoms: C_4  and  C_5
REMARK    4  A    between atoms: C_4  and  C_12
REMARK    5  A    between atoms: C_5  and  C_6
REMARK                            x       y       z     vdW  Elec       q    Type
REMARK                         _______ _______ _______ _____ _____    ______ ____
ROOT
ATOM      1  C   UNL     1       2.969   6.054  19.063  0.00  0.00    +0.000 C 
ENDROOT
BRANCH   1   2
ATOM      2  C   UNL     1       2.276   4.701  19.226  0.00  0.00    +0.000 A 
ATOM      3  C   UNL     1       2.180   3.808  18.146  0.00  0.00    +0.000 A 
ATOM      4  C   UNL     1       1.462   2.613  18.270  0.00  0.00    +0.000 A 
ATOM      5  C   UNL     1       0.853   2.286  19.480  0.00  0.00    +0.000 A 
ATOM      6  C   UNL     1       0.983   3.138  20.573  0.00  0.00    +0.000 A 
ATOM      7  C   UNL     1       1.694   4.332  20.449  0.00  0.00    +0.000 A 
ENDBRANCH   1   2
BRANCH   1  10
ATOM      8  O   UNL     1       1.747   8.462  18.302  0.00  0.00    +0.000 OA
ATOM      9  C   UNL     1       1.782   8.178  19.500  0.00  0.00    +0.000 C 
ATOM     10  N   UNL     1       2.387   7.038  19.987  0.00  0.00    +0.000 N 
ATOM     11  H   UNL     1       2.155   6.723  20.921  0.00  0.00    +0.000 HD
BRANCH   9  12
ATOM     12  C   UNL     1       1.106   9.081  20.460  0.00  0.00    +0.000 A 
ATOM     13  C   UNL     1       0.894   8.642  21.774  0.00  0.00    +0.000 A 
ATOM     14  C   UNL     1       0.247   9.473  22.685  0.00  0.00    +0.000 A 
ATOM     15  C   UNL     1      -0.182  10.715  22.249  0.00  0.00    +0.000 A 
ATOM     16  N   UNL     1      -0.023  11.160  20.985  0.00  0.00    +0.000 NA
ATOM     17  C   UNL     1       0.604  10.326  20.112  0.00  0.00    +0.000 A 
ENDBRANCH   9  12
ENDBRANCH   1  10
BRANCH   1  18
ATOM     18  C   UNL     1       4.495   5.901  19.253  0.00  0.00    +0.000 C 
BRANCH  18  19
ATOM     19  C   UNL     1       5.283   5.503  18.024  0.00  0.00    +0.000 A 
ATOM     20  C   UNL     1       4.857   5.910  16.750  0.00  0.00    +0.000 A 
ATOM     21  C   UNL     1       5.649   5.673  15.626  0.00  0.00    +0.000 A 
ATOM     22  C   UNL     1       6.869   5.013  15.759  0.00  0.00    +0.000 A 
ATOM     23  C   UNL     1       7.286   4.573  17.013  0.00  0.00    +0.000 A 
ATOM     24  C   UNL     1       6.500   4.819  18.141  0.00  0.00    +0.000 A 
ENDBRANCH  18  19
ENDBRANCH   1  18
TORSDOF 5
ENDMDL
MODEL 7
REMARK VINA RESULT:      -8.0      1.139      2.144
REMARK  Name = 
REMARK  5 active torsions:
REMARK  status: ('A' for Active; 'I' for Inactive)
REMARK    1  A    between atoms: C_2  and  C_18
REMARK    2  A    between atoms: N_3  and  C_4
REMARK    3  A    between atoms: C_4  and  C_5
REMARK    4  A    between atoms: C_4  and  C_12
REMARK    5  A    between atoms: C_5  and  C_6
REMARK                            x       y       z     vdW  Elec       q    Type
REMARK                         _______ _______ _______ _____ _____    ______ ____
ROOT
ATOM      1  C   UNL     1       2.921   6.399  18.473  0.00  0.00    +0.000 C 
ENDROOT
BRANCH   1   2
ATOM      2  C   UNL     1       2.238   5.096  18.887  0.00  0.00    +0.000 A 
ATOM      3  C   UNL     1       1.978   4.088  17.944  0.00  0.00    +0.000 A 
ATOM      4  C   UNL     1       1.267   2.938  18.305  0.00  0.00    +0.000 A 
ATOM      5  C   UNL     1       0.828   2.772  19.617  0.00  0.00    +0.000 A 
ATOM      6  C   UNL     1       1.121   3.739  20.573  0.00  0.00    +0.000 A 
ATOM      7  C   UNL     1       1.826   4.889  20.214  0.00  0.00    +0.000 A 
ENDBRANCH   1   2
BRANCH   1  10
ATOM      8  O   UNL     1       2.265   8.825  17.226  0.00  0.00    +0.000 OA
ATOM      9  C   UNL     1       1.972   8.680  18.415  0.00  0.00    +0.000 C 
ATOM     10  N   UNL     1       2.278   7.543  19.133  0.00  0.00    +0.000 N 
ATOM     11  H   UNL     1       1.788   7.368  20.001  0.00  0.00    +0.000 HD
BRANCH   9  12
ATOM     12  C   UNL     1       1.219   9.760  19.093  0.00  0.00    +0.000 A 
ATOM     13  C   UNL     1       1.368  11.079  18.645  0.00  0.00    +0.000 A 
ATOM     14  C   UNL     1       0.678  12.108  19.282  0.00  0.00    +0.000 A 
ATOM     15  C   UNL     1      -0.130  11.788  20.359  0.00  0.00    +0.000 A 
ATOM     16  N   UNL     1      -0.275  10.534  20.838  0.00  0.00    +0.000 NA
ATOM     17  C   UNL     1       0.416   9.548  20.204  0.00  0.00    +0.000 A 
ENDBRANCH   9  12
ENDBRANCH   1  10
BRANCH   1  18
ATOM     18  C   UNL     1       4.437   6.326  18.768  0.00  0.00    +0.000 C 
BRANCH  18  19
ATOM     19  C   UNL     1       5.313   5.837  17.635  0.00  0.00    +0.000 A 
ATOM     20  C   UNL     1       6.484   5.113  17.911  0.00  0.00    +0.000 A 
ATOM     21  C   UNL     1       7.222   4.535  16.877  0.00  0.00    +0.000 A 
ATOM     22  C   UNL     1       6.807   4.686  15.555  0.00  0.00    +0.000 A 
ATOM     23  C   UNL     1       5.667   5.432  15.267  0.00  0.00    +0.000 A 
ATOM     24  C   UNL     1       4.921   6.002  16.300  0.00  0.00    +0.000 A 
ENDBRANCH  18  19
ENDBRANCH   1  18
TORSDOF 5
ENDMDL
MODEL 8
REMARK VINA RESULT:      -8.0      0.823      1.418
REMARK  Name = 
REMARK  5 active torsions:
REMARK  status: ('A' for Active; 'I' for Inactive)
REMARK    1  A    between atoms: C_2  and  C_18
REMARK    2  A    between atoms: N_3  and  C_4
REMARK    3  A    between atoms: C_4  and  C_5
REMARK    4  A    between atoms: C_4  and  C_12
REMARK    5  A    between atoms: C_5  and  C_6
REMARK                            x       y       z     vdW  Elec       q    Type
REMARK                         _______ _______ _______ _____ _____    ______ ____
ROOT
ATOM      1  C   UNL     1       2.461   6.281  19.269  0.00  0.00    +0.000 C 
ENDROOT
BRANCH   1   2
ATOM      2  C   UNL     1       1.969   4.846  19.453  0.00  0.00    +0.000 A 
ATOM      3  C   UNL     1       1.665   4.042  18.342  0.00  0.00    +0.000 A 
ATOM      4  C   UNL     1       1.123   2.763  18.514  0.00  0.00    +0.000 A 
ATOM      5  C   UNL     1       0.901   2.265  19.796  0.00  0.00    +0.000 A 
ATOM      6  C   UNL     1       1.245   3.031  20.906  0.00  0.00    +0.000 A 
ATOM      7  C   UNL     1       1.780   4.308  20.737  0.00  0.00    +0.000 A 
ENDBRANCH   1   2
BRANCH   1  10
ATOM      8  O   UNL     1       1.522   8.889  18.836  0.00  0.00    +0.000 OA
ATOM      9  C   UNL     1       1.422   8.412  19.968  0.00  0.00    +0.000 C 
ATOM     10  N   UNL     1       1.882   7.154  20.300  0.00  0.00    +0.000 N 
ATOM     11  H   UNL     1       1.540   6.717  21.145  0.00  0.00    +0.000 HD
BRANCH   9  12
ATOM     12  C   UNL     1       0.739   9.209  21.013  0.00  0.00    +0.000 A 
ATOM     13  C   UNL     1      -0.172  10.200  20.625  0.00  0.00    +0.000 A 
ATOM     14  C   UNL     1      -0.812  10.969  21.595  0.00  0.00    +0.000 A 
ATOM     15  C   UNL     1      -0.508  10.733  22.925  0.00  0.00    +0.000 A 
ATOM     16  N   UNL     1       0.387   9.808  23.335  0.00  0.00    +0.000 NA
ATOM     17  C   UNL     1       1.004   9.077  22.368  0.00  0.00    +0.000 A 
ENDBRANCH   9  12
ENDBRANCH   1  10
BRANCH   1  18
ATOM     18  C   UNL     1       4.007   6.321  19.267  0.00  0.00    +0.000 C 
BRANCH  18  19
ATOM     19  C   UNL     1       4.683   5.889  17.984  0.00  0.00    +0.000 A 
ATOM     20  C   UNL     1       4.572   6.677  16.828  0.00  0.00    +0.000 A 
ATOM     21  C   UNL     1       5.306   6.366  15.683  0.00  0.00    +0.000 A 
ATOM     22  C   UNL     1       6.147   5.255  15.673  0.00  0.00    +0.000 A 
ATOM     23  C   UNL     1       6.238   4.445  16.803  0.00  0.00    +0.000 A 
ATOM     24  C   UNL     1       5.513   4.761  17.954  0.00  0.00    +0.000 A 
ENDBRANCH  18  19
ENDBRANCH   1  18
TORSDOF 5
ENDMDL
MODEL 9
REMARK VINA RESULT:      -7.9      2.204      6.733
REMARK  Name = 
REMARK  5 active torsions:
REMARK  status: ('A' for Active; 'I' for Inactive)
REMARK    1  A    between atoms: C_2  and  C_18
REMARK    2  A    between atoms: N_3  and  C_4
REMARK    3  A    between atoms: C_4  and  C_5
REMARK    4  A    between atoms: C_4  and  C_12
REMARK    5  A    between atoms: C_5  and  C_6
REMARK                            x       y       z     vdW  Elec       q    Type
REMARK                         _______ _______ _______ _____ _____    ______ ____
ROOT
ATOM      1  C   UNL     1       2.805   6.516  18.731  0.00  0.00    +0.000 C 
ENDROOT
BRANCH   1   2
ATOM      2  C   UNL     1       2.131   5.223  19.190  0.00  0.00    +0.000 A 
ATOM      3  C   UNL     1       2.060   4.893  20.553  0.00  0.00    +0.000 A 
ATOM      4  C   UNL     1       1.530   3.665  20.964  0.00  0.00    +0.000 A 
ATOM      5  C   UNL     1       1.043   2.764  20.020  0.00  0.00    +0.000 A 
ATOM      6  C   UNL     1       1.061   3.098  18.669  0.00  0.00    +0.000 A 
ATOM      7  C   UNL     1       1.594   4.320  18.257  0.00  0.00    +0.000 A 
ENDBRANCH   1   2
BRANCH   1  10
ATOM      8  O   UNL     1       5.357   5.355  18.829  0.00  0.00    +0.000 OA
ATOM      9  C   UNL     1       4.891   5.651  17.727  0.00  0.00    +0.000 C 
ATOM     10  N   UNL     1       3.663   6.258  17.566  0.00  0.00    +0.000 N 
ATOM     11  H   UNL     1       3.221   6.230  16.656  0.00  0.00    +0.000 HD
BRANCH   9  12
ATOM     12  C   UNL     1       5.669   5.303  16.515  0.00  0.00    +0.000 A 
ATOM     13  C   UNL     1       5.168   4.329  15.642  0.00  0.00    +0.000 A 
ATOM     14  C   UNL     1       5.894   3.979  14.506  0.00  0.00    +0.000 A 
ATOM     15  C   UNL     1       7.108   4.606  14.285  0.00  0.00    +0.000 A 
ATOM     16  N   UNL     1       7.638   5.527  15.119  0.00  0.00    +0.000 NA
ATOM     17  C   UNL     1       6.912   5.844  16.226  0.00  0.00    +0.000 A 
ENDBRANCH   9  12
ENDBRANCH   1  10
BRANCH   1  18
ATOM     18  C   UNL     1       1.741   7.603  18.447  0.00  0.00    +0.000 C 
BRANCH  18  19
ATOM     19  C   UNL     1       1.454   8.565  19.579  0.00  0.00    +0.000 A 
ATOM     20  C   UNL     1       1.055   9.882  19.301  0.00  0.00    +0.000 A 
ATOM     21  C   UNL     1       0.649  10.733  20.330  0.00  0.00    +0.000 A 
ATOM     22  C   UNL     1       0.654  10.285  21.649  0.00  0.00    +0.000 A 
ATOM     23  C   UNL     1       1.082   8.992  21.941  0.00  0.00    +0.000 A 
ATOM     24  C   UNL     1       1.478   8.134  20.912  0.00  0.00    +0.000 A 
ENDBRANCH  18  19
ENDBRANCH   1  18
TORSDOF 5
ENDMDL
