MODEL 1
REMARK VINA RESULT:      -7.7      0.000      0.000
REMARK  Name = 
REMARK  9 active torsions:
REMARK  status: ('A' for Active; 'I' for Inactive)
REMARK    1  A    between atoms: C_1  and  C_2
REMARK    2  A    between atoms: C_2  and  C_3
REMARK    3  A    between atoms: C_3  and  N_4
REMARK    4  A    between atoms: N_4  and  C_5
REMARK    5  A    between atoms: N_4  and  C_9
REMARK    6  A    between atoms: C_5  and  C_6
REMARK    7  A    between atoms: C_6  and  C_7
REMARK    8  A    between atoms: C_6  and  C_8
REMARK    9  A    between atoms: C_18  and  C_19
REMARK                            x       y       z     vdW  Elec       q    Type
REMARK                         _______ _______ _______ _____ _____    ______ ____
ROOT
ATOM      1  C   UNL     1       2.081   8.130  19.491  0.00  0.00    +0.000 C 
ATOM      2  C   UNL     1       2.174   8.326  17.965  0.00  0.00    +0.000 C 
ATOM      3  C   UNL     1       3.509   7.803  17.431  0.00  0.00    +0.000 C 
ATOM      4  C   UNL     1       3.857   6.411  17.893  0.00  0.00    +0.000 A 
ATOM      5  C   UNL     1       4.867   5.720  17.209  0.00  0.00    +0.000 A 
ATOM      6  C   UNL     1       5.263   4.443  17.591  0.00  0.00    +0.000 A 
ATOM      7  C   UNL     1       4.608   3.861  18.676  0.00  0.00    +0.000 A 
ATOM      8  N   UNL     1       4.804   2.622  19.241  0.00  0.00    +0.000 N 
ATOM      9  C   UNL     1       3.936   2.439  20.281  0.00  0.00    +0.000 A 
ATOM     10  C   UNL     1       3.162   3.572  20.408  0.00  0.00    +0.000 A 
ATOM     11  C   UNL     1       3.595   4.505  19.396  0.00  0.00    +0.000 A 
ATOM     12  C   UNL     1       3.224   5.830  19.013  0.00  0.00    +0.000 A 
ATOM     13  C   UNL     1       2.154   6.605  19.754  0.00  0.00    +0.000 C 
ATOM     14  H   UNL     1       5.481   1.945  18.920  0.00  0.00    +0.000 HD
ENDROOT
BRANCH  10  15
ATOM     15  C   UNL     1       2.113   3.699  21.401  0.00  0.00    +0.000 C 
ATOM     16  O   UNL     1       1.869   2.848  22.262  0.00  0.00    +0.000 OA
ENDBRANCH  10  15
BRANCH   1  17
ATOM     17  N   UNL     1       0.860   8.759  20.099  0.00  0.00    +0.000 NA
BRANCH  17  18
ATOM     18  C   UNL     1       0.960   8.875  21.569  0.00  0.00    +0.000 C 
BRANCH  18  20
ATOM     19  C   UNL     1      -0.599  10.102  23.141  0.00  0.00    +0.000 C 
ATOM     20  C   UNL     1      -0.352   8.810  22.371  0.00  0.00    +0.000 C 
ENDBRANCH  18  20
ENDBRANCH  17  18
BRANCH  17  21
ATOM     21  C   UNL     1       0.434  10.000  19.410  0.00  0.00    +0.000 C 
BRANCH  21  22
ATOM     22  C   UNL     1      -1.071  10.218  19.086  0.00  0.00    +0.000 C 
ATOM     23  C   UNL     1      -1.526  11.597  19.583  0.00  0.00    +0.000 C 
ATOM     24  C   UNL     1      -1.433  10.141  17.602  0.00  0.00    +0.000 C 
ENDBRANCH  21  22
ENDBRANCH  17  21
ENDBRANCH   1  17
TORSDOF 6
ENDMDL
MODEL 2
REMARK VINA RESULT:      -7.3      3.098      6.465
REMARK  Name = 
REMARK  9 active torsions:
REMARK  status: ('A' for Active; 'I' for Inactive)
REMARK    1  A    between atoms: C_1  and  C_2
REMARK    2  A    between atoms: C_2  and  C_3
REMARK    3  A    between atoms: C_3  and  N_4
REMARK    4  A    between atoms: N_4  and  C_5
REMARK    5  A    between atoms: N_4  and  C_9
REMARK    6  A    between atoms: C_5  and  C_6
REMARK    7  A    between atoms: C_6  and  C_7
REMARK    8  A    between atoms: C_6  and  C_8
REMARK    9  A    between atoms: C_18  and  C_19
REMARK                            x       y       z     vdW  Elec       q    Type
REMARK                         _______ _______ _______ _____ _____    ______ ____
ROOT
ATOM      1  C   UNL     1       4.683   5.688  16.714  0.00  0.00    +0.000 C 
ATOM      2  C   UNL     1       4.629   7.146  17.210  0.00  0.00    +0.000 C 
ATOM      3  C   UNL     1       3.289   7.439  17.888  0.00  0.00    +0.000 C 
ATOM      4  C   UNL     1       2.885   6.423  18.925  0.00  0.00    +0.000 A 
ATOM      5  C   UNL     1       1.867   6.766  19.826  0.00  0.00    +0.000 A 
ATOM      6  C   UNL     1       1.422   5.873  20.795  0.00  0.00    +0.000 A 
ATOM      7  C   UNL     1       2.034   4.622  20.851  0.00  0.00    +0.000 A 
ATOM      8  N   UNL     1       1.785   3.575  21.709  0.00  0.00    +0.000 N 
ATOM      9  C   UNL     1       2.625   2.533  21.432  0.00  0.00    +0.000 A 
ATOM     10  C   UNL     1       3.433   2.892  20.376  0.00  0.00    +0.000 A 
ATOM     11  C   UNL     1       3.052   4.225  19.977  0.00  0.00    +0.000 A 
ATOM     12  C   UNL     1       3.475   5.140  18.965  0.00  0.00    +0.000 A 
ATOM     13  C   UNL     1       4.554   4.782  17.965  0.00  0.00    +0.000 C 
ATOM     14  H   UNL     1       1.093   3.587  22.444  0.00  0.00    +0.000 HD
ENDROOT
BRANCH  10  15
ATOM     15  C   UNL     1       4.465   2.022  19.845  0.00  0.00    +0.000 C 
ATOM     16  O   UNL     1       5.317   1.457  20.537  0.00  0.00    +0.000 OA
ENDBRANCH  10  15
BRANCH   1  17
ATOM     17  N   UNL     1       5.912   5.379  15.907  0.00  0.00    +0.000 NA
BRANCH  17  18
ATOM     18  C   UNL     1       7.155   5.775  16.601  0.00  0.00    +0.000 C 
BRANCH  18  20
ATOM     19  C   UNL     1       7.835   5.701  19.039  0.00  0.00    +0.000 C 
ATOM     20  C   UNL     1       7.623   4.886  17.768  0.00  0.00    +0.000 C 
ENDBRANCH  18  20
ENDBRANCH  17  18
BRANCH  17  21
ATOM     21  C   UNL     1       5.923   4.002  15.358  0.00  0.00    +0.000 C 
BRANCH  21  22
ATOM     22  C   UNL     1       6.358   3.770  13.884  0.00  0.00    +0.000 C 
ATOM     23  C   UNL     1       5.125   3.698  12.973  0.00  0.00    +0.000 C 
ATOM     24  C   UNL     1       7.277   4.846  13.302  0.00  0.00    +0.000 C 
ENDBRANCH  21  22
ENDBRANCH  17  21
ENDBRANCH   1  17
TORSDOF 6
ENDMDL
MODEL 3
REMARK VINA RESULT:      -7.3      1.010      1.038
REMARK  Name = 
REMARK  9 active torsions:
REMARK  status: ('A' for Active; 'I' for Inactive)
REMARK    1  A    between atoms: C_1  and  C_2
REMARK    2  A    between atoms: C_2  and  C_3
REMARK    3  A    between atoms: C_3  and  N_4
REMARK    4  A    between atoms: N_4  and  C_5
REMARK    5  A    between atoms: N_4  and  C_9
REMARK    6  A    between atoms: C_5  and  C_6
REMARK    7  A    between atoms: C_6  and  C_7
REMARK    8  A    between atoms: C_6  and  C_8
REMARK    9  A    between atoms: C_18  and  C_19
REMARK                            x       y       z     vdW  Elec       q    Type
REMARK                         _______ _______ _______ _____ _____    ______ ____
ROOT
ATOM      1  C   UNL     1       2.249   7.635  19.421  0.00  0.00    +0.000 C 
ATOM      2  C   UNL     1       2.507   8.168  17.998  0.00  0.00    +0.000 C 
ATOM      3  C   UNL     1       3.766   7.537  17.402  0.00  0.00    +0.000 C 
ATOM      4  C   UNL     1       3.818   6.035  17.512  0.00  0.00    +0.000 A 
ATOM      5  C   UNL     1       4.741   5.344  16.716  0.00  0.00    +0.000 A 
ATOM      6  C   UNL     1       4.866   3.960  16.780  0.00  0.00    +0.000 A 
ATOM      7  C   UNL     1       4.027   3.276  17.658  0.00  0.00    +0.000 A 
ATOM      8  N   UNL     1       3.947   1.924  17.901  0.00  0.00    +0.000 N 
ATOM      9  C   UNL     1       2.974   1.671  18.827  0.00  0.00    +0.000 A 
ATOM     10  C   UNL     1       2.409   2.869  19.204  0.00  0.00    +0.000 A 
ATOM     11  C   UNL     1       3.089   3.914  18.477  0.00  0.00    +0.000 A 
ATOM     12  C   UNL     1       2.996   5.338  18.425  0.00  0.00    +0.000 A 
ATOM     13  C   UNL     1       2.024   6.107  19.295  0.00  0.00    +0.000 C 
ATOM     14  H   UNL     1       4.517   1.224  17.447  0.00  0.00    +0.000 HD
ENDROOT
BRANCH  10  15
ATOM     15  C   UNL     1       1.318   2.957  20.157  0.00  0.00    +0.000 C 
ATOM     16  O   UNL     1       1.437   2.740  21.366  0.00  0.00    +0.000 OA
ENDBRANCH  10  15
BRANCH   1  17
ATOM     17  N   UNL     1       1.114   8.327  20.120  0.00  0.00    +0.000 NA
BRANCH  17  18
ATOM     18  C   UNL     1       1.201   8.205  21.590  0.00  0.00    +0.000 C 
BRANCH  18  20
ATOM     19  C   UNL     1      -0.207   9.574  23.188  0.00  0.00    +0.000 C 
ATOM     20  C   UNL     1       1.103   9.504  22.411  0.00  0.00    +0.000 C 
ENDBRANCH  18  20
ENDBRANCH  17  18
BRANCH  17  21
ATOM     21  C   UNL     1       0.873   9.704  19.628  0.00  0.00    +0.000 C 
BRANCH  21  22
ATOM     22  C   UNL     1      -0.582  10.171  19.340  0.00  0.00    +0.000 C 
ATOM     23  C   UNL     1      -0.782  11.612  19.826  0.00  0.00    +0.000 C 
ATOM     24  C   UNL     1      -0.993  10.139  17.867  0.00  0.00    +0.000 C 
ENDBRANCH  21  22
ENDBRANCH  17  21
ENDBRANCH   1  17
TORSDOF 6
ENDMDL
MODEL 4
REMARK VINA RESULT:      -7.1      3.260      6.664
REMARK  Name = 
REMARK  9 active torsions:
REMARK  status: ('A' for Active; 'I' for Inactive)
REMARK    1  A    between atoms: C_1  and  C_2
REMARK    2  A    between atoms: C_2  and  C_3
REMARK    3  A    between atoms: C_3  and  N_4
REMARK    4  A    between atoms: N_4  and  C_5
REMARK    5  A    between atoms: N_4  and  C_9
REMARK    6  A    between atoms: C_5  and  C_6
REMARK    7  A    between atoms: C_6  and  C_7
REMARK    8  A    between atoms: C_6  and  C_8
REMARK    9  A    between atoms: C_18  and  C_19
REMARK                            x       y       z     vdW  Elec       q    Type
REMARK                         _______ _______ _______ _____ _____    ______ ____
ROOT
ATOM      1  C   UNL     1       4.689   5.821  16.341  0.00  0.00    +0.000 C 
ATOM      2  C   UNL     1       5.062   7.010  17.248  0.00  0.00    +0.000 C 
ATOM      3  C   UNL     1       3.838   7.515  18.012  0.00  0.00    +0.000 C 
ATOM      4  C   UNL     1       3.055   6.433  18.712  0.00  0.00    +0.000 A 
ATOM      5  C   UNL     1       2.133   6.814  19.697  0.00  0.00    +0.000 A 
ATOM      6  C   UNL     1       1.356   5.877  20.367  0.00  0.00    +0.000 A 
ATOM      7  C   UNL     1       1.533   4.534  20.037  0.00  0.00    +0.000 A 
ATOM      8  N   UNL     1       0.901   3.426  20.552  0.00  0.00    +0.000 N 
ATOM      9  C   UNL     1       1.385   2.293  19.959  0.00  0.00    +0.000 A 
ATOM     10  C   UNL     1       2.343   2.657  19.038  0.00  0.00    +0.000 A 
ATOM     11  C   UNL     1       2.436   4.097  19.061  0.00  0.00    +0.000 A 
ATOM     12  C   UNL     1       3.203   5.074  18.356  0.00  0.00    +0.000 A 
ATOM     13  C   UNL     1       4.184   4.687  17.270  0.00  0.00    +0.000 C 
ATOM     14  H   UNL     1       0.194   3.450  21.273  0.00  0.00    +0.000 HD
ENDROOT
BRANCH  10  15
ATOM     15  C   UNL     1       3.082   1.690  18.250  0.00  0.00    +0.000 C 
ATOM     16  O   UNL     1       4.000   0.994  18.693  0.00  0.00    +0.000 OA
ENDBRANCH  10  15
BRANCH   1  17
ATOM     17  N   UNL     1       5.813   5.375  15.451  0.00  0.00    +0.000 NA
BRANCH  17  18
ATOM     18  C   UNL     1       7.138   5.565  16.079  0.00  0.00    +0.000 C 
BRANCH  18  20
ATOM     19  C   UNL     1       7.754   5.137  18.498  0.00  0.00    +0.000 C 
ATOM     20  C   UNL     1       7.581   4.516  17.116  0.00  0.00    +0.000 C 
ENDBRANCH  18  20
ENDBRANCH  17  18
BRANCH  17  21
ATOM     21  C   UNL     1       5.598   4.033  14.860  0.00  0.00    +0.000 C 
BRANCH  21  22
ATOM     22  C   UNL     1       6.188   3.710  13.458  0.00  0.00    +0.000 C 
ATOM     23  C   UNL     1       5.058   3.565  12.429  0.00  0.00    +0.000 C 
ATOM     24  C   UNL     1       7.157   4.757  12.906  0.00  0.00    +0.000 C 
ENDBRANCH  21  22
ENDBRANCH  17  21
ENDBRANCH   1  17
TORSDOF 6
ENDMDL
MODEL 5
REMARK VINA RESULT:      -7.0      3.172      6.697
REMARK  Name = 
REMARK  9 active torsions:
REMARK  status: ('A' for Active; 'I' for Inactive)
REMARK    1  A    between atoms: C_1  and  C_2
REMARK    2  A    between atoms: C_2  and  C_3
REMARK    3  A    between atoms: C_3  and  N_4
REMARK    4  A    between atoms: N_4  and  C_5
REMARK    5  A    between atoms: N_4  and  C_9
REMARK    6  A    between atoms: C_5  and  C_6
REMARK    7  A    between atoms: C_6  and  C_7
REMARK    8  A    between atoms: C_6  and  C_8
REMARK    9  A    between atoms: C_18  and  C_19
REMARK                            x       y       z     vdW  Elec       q    Type
REMARK                         _______ _______ _______ _____ _____    ______ ____
ROOT
ATOM      1  C   UNL     1       4.452   5.367  16.753  0.00  0.00    +0.000 C 
ATOM      2  C   UNL     1       4.413   6.841  17.201  0.00  0.00    +0.000 C 
ATOM      3  C   UNL     1       3.104   7.154  17.926  0.00  0.00    +0.000 C 
ATOM      4  C   UNL     1       2.749   6.173  19.014  0.00  0.00    +0.000 A 
ATOM      5  C   UNL     1       1.770   6.544  19.946  0.00  0.00    +0.000 A 
ATOM      6  C   UNL     1       1.370   5.684  20.963  0.00  0.00    +0.000 A 
ATOM      7  C   UNL     1       1.989   4.437  21.036  0.00  0.00    +0.000 A 
ATOM      8  N   UNL     1       1.782   3.419  21.939  0.00  0.00    +0.000 N 
ATOM      9  C   UNL     1       2.613   2.370  21.661  0.00  0.00    +0.000 A 
ATOM     10  C   UNL     1       3.373   2.695  20.559  0.00  0.00    +0.000 A 
ATOM     11  C   UNL     1       2.970   4.013  20.131  0.00  0.00    +0.000 A 
ATOM     12  C   UNL     1       3.345   4.894  19.071  0.00  0.00    +0.000 A 
ATOM     13  C   UNL     1       4.380   4.504  18.038  0.00  0.00    +0.000 C 
ATOM     14  H   UNL     1       1.122   3.455  22.702  0.00  0.00    +0.000 HD
ENDROOT
BRANCH  10  15
ATOM     15  C   UNL     1       4.384   1.810  20.013  0.00  0.00    +0.000 C 
ATOM     16  O   UNL     1       5.374   1.422  20.639  0.00  0.00    +0.000 OA
ENDBRANCH  10  15
BRANCH   1  17
ATOM     17  N   UNL     1       5.645   5.034  15.903  0.00  0.00    +0.000 NA
BRANCH  17  18
ATOM     18  C   UNL     1       5.265   4.637  14.531  0.00  0.00    +0.000 C 
BRANCH  18  20
ATOM     19  C   UNL     1       5.742   3.383  12.384  0.00  0.00    +0.000 C 
ATOM     20  C   UNL     1       6.330   3.915  13.686  0.00  0.00    +0.000 C 
ENDBRANCH  18  20
ENDBRANCH  17  18
BRANCH  17  21
ATOM     21  C   UNL     1       6.720   6.051  15.976  0.00  0.00    +0.000 C 
BRANCH  21  22
ATOM     22  C   UNL     1       7.824   5.921  17.064  0.00  0.00    +0.000 C 
ATOM     23  C   UNL     1       7.722   7.082  18.063  0.00  0.00    +0.000 C 
ATOM     24  C   UNL     1       7.780   4.629  17.881  0.00  0.00    +0.000 C 
ENDBRANCH  21  22
ENDBRANCH  17  21
ENDBRANCH   1  17
TORSDOF 6
ENDMDL
MODEL 6
REMARK VINA RESULT:      -6.8      2.179      7.064
REMARK  Name = 
REMARK  9 active torsions:
REMARK  status: ('A' for Active; 'I' for Inactive)
REMARK    1  A    between atoms: C_1  and  C_2
REMARK    2  A    between atoms: C_2  and  C_3
REMARK    3  A    between atoms: C_3  and  N_4
REMARK    4  A    between atoms: N_4  and  C_5
REMARK    5  A    between atoms: N_4  and  C_9
REMARK    6  A    between atoms: C_5  and  C_6
REMARK    7  A    between atoms: C_6  and  C_7
REMARK    8  A    between atoms: C_6  and  C_8
REMARK    9  A    between atoms: C_18  and  C_19
REMARK                            x       y       z     vdW  Elec       q    Type
REMARK                         _______ _______ _______ _____ _____    ______ ____
ROOT
ATOM      1  C   UNL     1       1.767   7.433  19.451  0.00  0.00    +0.000 C 
ATOM      2  C   UNL     1       2.355   8.309  18.329  0.00  0.00    +0.000 C 
ATOM      3  C   UNL     1       1.284   9.229  17.741  0.00  0.00    +0.000 C 
ATOM      4  C   UNL     1       0.495   9.998  18.769  0.00  0.00    +0.000 A 
ATOM      5  C   UNL     1      -0.261  11.097  18.338  0.00  0.00    +0.000 A 
ATOM      6  C   UNL     1      -1.035  11.840  19.223  0.00  0.00    +0.000 A 
ATOM      7  C   UNL     1      -1.023  11.463  20.566  0.00  0.00    +0.000 A 
ATOM      8  N   UNL     1      -1.687  12.030  21.629  0.00  0.00    +0.000 N 
ATOM      9  C   UNL     1      -1.384  11.360  22.781  0.00  0.00    +0.000 A 
ATOM     10  C   UNL     1      -0.515  10.336  22.475  0.00  0.00    +0.000 A 
ATOM     11  C   UNL     1      -0.289  10.375  21.051  0.00  0.00    +0.000 A 
ATOM     12  C   UNL     1       0.473   9.600  20.124  0.00  0.00    +0.000 A 
ATOM     13  C   UNL     1       1.277   8.394  20.563  0.00  0.00    +0.000 C 
ATOM     14  H   UNL     1      -2.296  12.834  21.564  0.00  0.00    +0.000 HD
ENDROOT
BRANCH  10  15
ATOM     15  C   UNL     1       0.031   9.443  23.480  0.00  0.00    +0.000 C 
ATOM     16  O   UNL     1       1.196   9.488  23.884  0.00  0.00    +0.000 OA
ENDBRANCH  10  15
BRANCH   1  17
ATOM     17  N   UNL     1       2.730   6.401  19.968  0.00  0.00    +0.000 NA
BRANCH  17  18
ATOM     18  C   UNL     1       2.066   5.388  20.816  0.00  0.00    +0.000 C 
BRANCH  18  20
ATOM     19  C   UNL     1       1.196   3.011  20.794  0.00  0.00    +0.000 C 
ATOM     20  C   UNL     1       1.149   4.373  20.110  0.00  0.00    +0.000 C 
ENDBRANCH  18  20
ENDBRANCH  17  18
BRANCH  17  21
ATOM     21  C   UNL     1       3.613   5.843  18.916  0.00  0.00    +0.000 C 
BRANCH  21  22
ATOM     22  C   UNL     1       4.729   4.835  19.310  0.00  0.00    +0.000 C 
ATOM     23  C   UNL     1       4.571   3.532  18.513  0.00  0.00    +0.000 C 
ATOM     24  C   UNL     1       6.158   5.326  19.077  0.00  0.00    +0.000 C 
ENDBRANCH  21  22
ENDBRANCH  17  21
ENDBRANCH   1  17
TORSDOF 6
ENDMDL
MODEL 7
REMARK VINA RESULT:      -6.8      3.084      7.255
REMARK  Name = 
REMARK  9 active torsions:
REMARK  status: ('A' for Active; 'I' for Inactive)
REMARK    1  A    between atoms: C_1  and  C_2
REMARK    2  A    between atoms: C_2  and  C_3
REMARK    3  A    between atoms: C_3  and  N_4
REMARK    4  A    between atoms: N_4  and  C_5
REMARK    5  A    between atoms: N_4  and  C_9
REMARK    6  A    between atoms: C_5  and  C_6
REMARK    7  A    between atoms: C_6  and  C_7
REMARK    8  A    between atoms: C_6  and  C_8
REMARK    9  A    between atoms: C_18  and  C_19
REMARK                            x       y       z     vdW  Elec       q    Type
REMARK                         _______ _______ _______ _____ _____    ______ ____
ROOT
ATOM      1  C   UNL     1       4.947   4.500  16.756  0.00  0.00    +0.000 C 
ATOM      2  C   UNL     1       4.205   3.150  16.792  0.00  0.00    +0.000 C 
ATOM      3  C   UNL     1       3.821   2.780  18.225  0.00  0.00    +0.000 C 
ATOM      4  C   UNL     1       3.126   3.882  18.984  0.00  0.00    +0.000 A 
ATOM      5  C   UNL     1       2.443   3.546  20.161  0.00  0.00    +0.000 A 
ATOM      6  C   UNL     1       1.799   4.510  20.930  0.00  0.00    +0.000 A 
ATOM      7  C   UNL     1       1.843   5.829  20.481  0.00  0.00    +0.000 A 
ATOM      8  N   UNL     1       1.289   6.954  21.047  0.00  0.00    +0.000 N 
ATOM      9  C   UNL     1       1.556   8.048  20.272  0.00  0.00    +0.000 A 
ATOM     10  C   UNL     1       2.300   7.643  19.186  0.00  0.00    +0.000 A 
ATOM     11  C   UNL     1       2.512   6.222  19.315  0.00  0.00    +0.000 A 
ATOM     12  C   UNL     1       3.197   5.226  18.556  0.00  0.00    +0.000 A 
ATOM     13  C   UNL     1       3.963   5.570  17.295  0.00  0.00    +0.000 C 
ATOM     14  H   UNL     1       0.751   6.962  21.901  0.00  0.00    +0.000 HD
ENDROOT
BRANCH  10  15
ATOM     15  C   UNL     1       2.730   8.556  18.144  0.00  0.00    +0.000 C 
ATOM     16  O   UNL     1       1.964   9.109  17.350  0.00  0.00    +0.000 OA
ENDBRANCH  10  15
BRANCH   1  17
ATOM     17  N   UNL     1       5.485   4.849  15.398  0.00  0.00    +0.000 NA
BRANCH  17  18
ATOM     18  C   UNL     1       6.814   5.493  15.468  0.00  0.00    +0.000 C 
BRANCH  18  20
ATOM     19  C   UNL     1       7.397   7.139  17.301  0.00  0.00    +0.000 C 
ATOM     20  C   UNL     1       7.433   5.678  16.865  0.00  0.00    +0.000 C 
ENDBRANCH  18  20
ENDBRANCH  17  18
BRANCH  17  21
ATOM     21  C   UNL     1       5.390   3.735  14.425  0.00  0.00    +0.000 C 
BRANCH  21  22
ATOM     22  C   UNL     1       5.470   4.040  12.902  0.00  0.00    +0.000 C 
ATOM     23  C   UNL     1       6.855   3.665  12.359  0.00  0.00    +0.000 C 
ATOM     24  C   UNL     1       4.442   3.306  12.039  0.00  0.00    +0.000 C 
ENDBRANCH  21  22
ENDBRANCH  17  21
ENDBRANCH   1  17
TORSDOF 6
ENDMDL
MODEL 8
REMARK VINA RESULT:      -6.6      2.260      6.671
REMARK  Name = 
REMARK  9 active torsions:
REMARK  status: ('A' for Active; 'I' for Inactive)
REMARK    1  A    between atoms: C_1  and  C_2
REMARK    2  A    between atoms: C_2  and  C_3
REMARK    3  A    between atoms: C_3  and  N_4
REMARK    4  A    between atoms: N_4  and  C_5
REMARK    5  A    between atoms: N_4  and  C_9
REMARK    6  A    between atoms: C_5  and  C_6
REMARK    7  A    between atoms: C_6  and  C_7
REMARK    8  A    between atoms: C_6  and  C_8
REMARK    9  A    between atoms: C_18  and  C_19
REMARK                            x       y       z     vdW  Elec       q    Type
REMARK                         _______ _______ _______ _____ _____    ______ ____
ROOT
ATOM      1  C   UNL     1       2.165   6.773  19.424  0.00  0.00    +0.000 C 
ATOM      2  C   UNL     1       3.084   7.499  18.422  0.00  0.00    +0.000 C 
ATOM      3  C   UNL     1       2.306   8.563  17.646  0.00  0.00    +0.000 C 
ATOM      4  C   UNL     1       1.491   9.489  18.511  0.00  0.00    +0.000 A 
ATOM      5  C   UNL     1       1.022  10.682  17.946  0.00  0.00    +0.000 A 
ATOM      6  C   UNL     1       0.242  11.575  18.673  0.00  0.00    +0.000 A 
ATOM      7  C   UNL     1      -0.048  11.250  19.997  0.00  0.00    +0.000 A 
ATOM      8  N   UNL     1      -0.783  11.958  20.921  0.00  0.00    +0.000 N 
ATOM      9  C   UNL     1      -0.807  11.288  22.112  0.00  0.00    +0.000 A 
ATOM     10  C   UNL     1      -0.086  10.123  21.973  0.00  0.00    +0.000 A 
ATOM     11  C   UNL     1       0.392  10.073  20.612  0.00  0.00    +0.000 A 
ATOM     12  C   UNL     1       1.162   9.149  19.842  0.00  0.00    +0.000 A 
ATOM     13  C   UNL     1       1.657   7.842  20.425  0.00  0.00    +0.000 C 
ATOM     14  H   UNL     1      -1.224  12.849  20.743  0.00  0.00    +0.000 HD
ENDROOT
BRANCH  10  15
ATOM     15  C   UNL     1       0.113   9.188  23.063  0.00  0.00    +0.000 C 
ATOM     16  O   UNL     1       0.497   9.512  24.191  0.00  0.00    +0.000 OA
ENDBRANCH  10  15
BRANCH   1  17
ATOM     17  N   UNL     1       2.831   5.614  20.111  0.00  0.00    +0.000 NA
BRANCH  17  18
ATOM     18  C   UNL     1       1.917   4.909  21.035  0.00  0.00    +0.000 C 
BRANCH  18  20
ATOM     19  C   UNL     1       1.341   2.512  21.610  0.00  0.00    +0.000 C 
ATOM     20  C   UNL     1       2.419   3.589  21.648  0.00  0.00    +0.000 C 
ENDBRANCH  18  20
ENDBRANCH  17  18
BRANCH  17  21
ATOM     21  C   UNL     1       3.574   4.729  19.182  0.00  0.00    +0.000 C 
BRANCH  21  22
ATOM     22  C   UNL     1       2.912   4.297  17.843  0.00  0.00    +0.000 C 
ATOM     23  C   UNL     1       3.990   3.970  16.801  0.00  0.00    +0.000 C 
ATOM     24  C   UNL     1       2.000   3.073  17.936  0.00  0.00    +0.000 C 
ENDBRANCH  21  22
ENDBRANCH  17  21
ENDBRANCH   1  17
TORSDOF 6
ENDMDL
MODEL 9
REMARK VINA RESULT:      -6.6      0.850      1.262
REMARK  Name = 
REMARK  9 active torsions:
REMARK  status: ('A' for Active; 'I' for Inactive)
REMARK    1  A    between atoms: C_1  and  C_2
REMARK    2  A    between atoms: C_2  and  C_3
REMARK    3  A    between atoms: C_3  and  N_4
REMARK    4  A    between atoms: N_4  and  C_5
REMARK    5  A    between atoms: N_4  and  C_9
REMARK    6  A    between atoms: C_5  and  C_6
REMARK    7  A    between atoms: C_6  and  C_7
REMARK    8  A    between atoms: C_6  and  C_8
REMARK    9  A    between atoms: C_18  and  C_19
REMARK                            x       y       z     vdW  Elec       q    Type
REMARK                         _______ _______ _______ _____ _____    ______ ____
ROOT
ATOM      1  C   UNL     1       2.141   8.179  19.573  0.00  0.00    +0.000 C 
ATOM      2  C   UNL     1       2.056   8.377  18.047  0.00  0.00    +0.000 C 
ATOM      3  C   UNL     1       3.284   7.784  17.354  0.00  0.00    +0.000 C 
ATOM      4  C   UNL     1       3.610   6.373  17.772  0.00  0.00    +0.000 A 
ATOM      5  C   UNL     1       4.488   5.630  16.971  0.00  0.00    +0.000 A 
ATOM      6  C   UNL     1       4.857   4.332  17.305  0.00  0.00    +0.000 A 
ATOM      7  C   UNL     1       4.310   3.782  18.463  0.00  0.00    +0.000 A 
ATOM      8  N   UNL     1       4.506   2.531  19.003  0.00  0.00    +0.000 N 
ATOM      9  C   UNL     1       3.763   2.392  20.142  0.00  0.00    +0.000 A 
ATOM     10  C   UNL     1       3.074   3.564  20.361  0.00  0.00    +0.000 A 
ATOM     11  C   UNL     1       3.431   4.477  19.301  0.00  0.00    +0.000 A 
ATOM     12  C   UNL     1       3.089   5.822  18.964  0.00  0.00    +0.000 A 
ATOM     13  C   UNL     1       2.163   6.651  19.829  0.00  0.00    +0.000 C 
ATOM     14  H   UNL     1       5.100   1.820  18.602  0.00  0.00    +0.000 HD
ENDROOT
BRANCH  10  15
ATOM     15  C   UNL     1       2.164   3.744  21.476  0.00  0.00    +0.000 C 
ATOM     16  O   UNL     1       1.752   2.824  22.187  0.00  0.00    +0.000 OA
ENDBRANCH  10  15
BRANCH   1  17
ATOM     17  N   UNL     1       1.041   8.871  20.326  0.00  0.00    +0.000 NA
BRANCH  17  18
ATOM     18  C   UNL     1       1.423   9.185  21.719  0.00  0.00    +0.000 C 
BRANCH  18  20
ATOM     19  C   UNL     1      -0.792   8.976  22.926  0.00  0.00    +0.000 C 
ATOM     20  C   UNL     1       0.375   9.898  22.592  0.00  0.00    +0.000 C 
ENDBRANCH  18  20
ENDBRANCH  17  18
BRANCH  17  21
ATOM     21  C   UNL     1       0.442  10.004  19.580  0.00  0.00    +0.000 C 
BRANCH  21  22
ATOM     22  C   UNL     1       0.999  11.440  19.794  0.00  0.00    +0.000 C 
ATOM     23  C   UNL     1       1.804  11.884  18.566  0.00  0.00    +0.000 C 
ATOM     24  C   UNL     1      -0.060  12.516  20.042  0.00  0.00    +0.000 C 
ENDBRANCH  21  22
ENDBRANCH  17  21
ENDBRANCH   1  17
TORSDOF 6
ENDMDL
