MODEL 1
REMARK VINA RESULT:      -7.5      0.000      0.000
REMARK  Name = 
REMARK  9 active torsions:
REMARK  status: ('A' for Active; 'I' for Inactive)
REMARK    1  A    between atoms: C_1  and  C_2
REMARK    2  A    between atoms: C_2  and  C_3
REMARK    3  A    between atoms: C_2  and  C_4
REMARK    4  A    between atoms: C_4  and  C_5
REMARK    5  A    between atoms: C_5  and  C_6
REMARK    6  A    between atoms: C_5  and  C_12
REMARK    7  A    between atoms: N_8  and  C_9
REMARK    8  A    between atoms: C_9  and  C_10
REMARK    9  A    between atoms: C_15  and  C_16
REMARK                            x       y       z     vdW  Elec       q    Type
REMARK                         _______ _______ _______ _____ _____    ______ ____
ROOT
ATOM      1  C   UNL     1       3.710   4.507  18.423  0.00  0.00    +0.000 C 
ENDROOT
BRANCH   1   2
ATOM      2  C   UNL     1       2.935   5.683  19.034  0.00  0.00    +0.000 A 
ATOM      3  C   UNL     1       2.281   5.565  20.269  0.00  0.00    +0.000 A 
ATOM      4  C   UNL     1       1.612   6.663  20.836  0.00  0.00    +0.000 A 
ATOM      5  C   UNL     1       1.563   7.915  20.199  0.00  0.00    +0.000 A 
ATOM      6  C   UNL     1       2.178   8.005  18.940  0.00  0.00    +0.000 A 
ATOM      7  C   UNL     1       2.841   6.910  18.365  0.00  0.00    +0.000 A 
BRANCH   5   8
ATOM      8  C   UNL     1       0.887   9.075  20.832  0.00  0.00    +0.000 A 
ATOM      9  C   UNL     1       0.386   9.002  22.147  0.00  0.00    +0.000 A 
ATOM     10  C   UNL     1      -0.281  10.075  22.741  0.00  0.00    +0.000 A 
ATOM     11  C   UNL     1      -0.450  11.262  22.035  0.00  0.00    +0.000 A 
ATOM     12  C   UNL     1       0.048  11.373  20.742  0.00  0.00    +0.000 A 
ATOM     13  C   UNL     1       0.706  10.290  20.147  0.00  0.00    +0.000 A 
ENDBRANCH   5   8
ENDBRANCH   1   2
BRANCH   1  14
ATOM     14  C   UNL     1       5.031   4.970  17.770  0.00  0.00    +0.000 C 
ATOM     15  O   UNL     1       5.192   5.002  16.549  0.00  0.00    +0.000 OA
ATOM     16  N   UNL     1       6.071   5.332  18.605  0.00  0.00    +0.000 N 
ATOM     17  H   UNL     1       5.999   5.207  19.608  0.00  0.00    +0.000 HD
BRANCH  16  18
ATOM     18  C   UNL     1       7.349   5.684  18.000  0.00  0.00    +0.000 C 
BRANCH  18  19
ATOM     19  C   UNL     1       7.480   7.107  17.629  0.00  0.00    +0.000 C 
ATOM     20  N   UNL     1       7.563   8.220  17.332  0.00  0.00    +0.000 NA
ENDBRANCH  18  19
ENDBRANCH  16  18
ENDBRANCH   1  14
BRANCH   1  21
ATOM     21  C   UNL     1       2.802   3.748  17.400  0.00  0.00    +0.000 C 
BRANCH  21  23
ATOM     22  C   UNL     1       3.465   1.503  18.435  0.00  0.00    +0.000 C 
ATOM     23  C   UNL     1       2.355   2.307  17.766  0.00  0.00    +0.000 C 
ATOM     24  C   UNL     1       1.140   2.319  18.713  0.00  0.00    +0.000 C 
ENDBRANCH  21  23
ENDBRANCH   1  21
TORSDOF 7
ENDMDL
MODEL 2
REMARK VINA RESULT:      -7.4      1.459      2.095
REMARK  Name = 
REMARK  9 active torsions:
REMARK  status: ('A' for Active; 'I' for Inactive)
REMARK    1  A    between atoms: C_1  and  C_2
REMARK    2  A    between atoms: C_2  and  C_3
REMARK    3  A    between atoms: C_2  and  C_4
REMARK    4  A    between atoms: C_4  and  C_5
REMARK    5  A    between atoms: C_5  and  C_6
REMARK    6  A    between atoms: C_5  and  C_12
REMARK    7  A    between atoms: N_8  and  C_9
REMARK    8  A    between atoms: C_9  and  C_10
REMARK    9  A    between atoms: C_15  and  C_16
REMARK                            x       y       z     vdW  Elec       q    Type
REMARK                         _______ _______ _______ _____ _____    ______ ____
ROOT
ATOM      1  C   UNL     1       3.797   4.470  18.636  0.00  0.00    +0.000 C 
ENDROOT
BRANCH   1   2
ATOM      2  C   UNL     1       3.085   5.793  18.955  0.00  0.00    +0.000 A 
ATOM      3  C   UNL     1       3.070   6.855  18.039  0.00  0.00    +0.000 A 
ATOM      4  C   UNL     1       2.378   8.043  18.328  0.00  0.00    +0.000 A 
ATOM      5  C   UNL     1       1.679   8.223  19.534  0.00  0.00    +0.000 A 
ATOM      6  C   UNL     1       1.744   7.172  20.462  0.00  0.00    +0.000 A 
ATOM      7  C   UNL     1       2.440   5.986  20.183  0.00  0.00    +0.000 A 
BRANCH   5   8
ATOM      8  C   UNL     1       0.919   9.469  19.805  0.00  0.00    +0.000 A 
ATOM      9  C   UNL     1       0.484  10.303  18.755  0.00  0.00    +0.000 A 
ATOM     10  C   UNL     1      -0.203  11.495  18.999  0.00  0.00    +0.000 A 
ATOM     11  C   UNL     1      -0.489  11.874  20.306  0.00  0.00    +0.000 A 
ATOM     12  C   UNL     1      -0.090  11.064  21.364  0.00  0.00    +0.000 A 
ATOM     13  C   UNL     1       0.608   9.878  21.114  0.00  0.00    +0.000 A 
ENDBRANCH   5   8
ENDBRANCH   1   2
BRANCH   1  14
ATOM     14  C   UNL     1       5.291   4.689  18.306  0.00  0.00    +0.000 C 
ATOM     15  O   UNL     1       6.049   5.316  19.048  0.00  0.00    +0.000 OA
ATOM     16  N   UNL     1       5.770   4.178  17.114  0.00  0.00    +0.000 N 
ATOM     17  H   UNL     1       5.141   3.759  16.440  0.00  0.00    +0.000 HD
BRANCH  16  18
ATOM     18  C   UNL     1       7.154   4.457  16.753  0.00  0.00    +0.000 C 
BRANCH  18  19
ATOM     19  C   UNL     1       7.337   4.964  15.378  0.00  0.00    +0.000 C 
ATOM     20  N   UNL     1       7.501   5.365  14.308  0.00  0.00    +0.000 NA
ENDBRANCH  18  19
ENDBRANCH  16  18
ENDBRANCH   1  14
BRANCH   1  21
ATOM     21  C   UNL     1       3.056   3.736  17.470  0.00  0.00    +0.000 C 
BRANCH  21  23
ATOM     22  C   UNL     1       3.484   1.411  18.448  0.00  0.00    +0.000 C 
ATOM     23  C   UNL     1       2.476   2.326  17.761  0.00  0.00    +0.000 C 
ATOM     24  C   UNL     1       1.223   2.408  18.652  0.00  0.00    +0.000 C 
ENDBRANCH  21  23
ENDBRANCH   1  21
TORSDOF 7
ENDMDL
MODEL 3
REMARK VINA RESULT:      -7.4      0.387      1.070
REMARK  Name = 
REMARK  9 active torsions:
REMARK  status: ('A' for Active; 'I' for Inactive)
REMARK    1  A    between atoms: C_1  and  C_2
REMARK    2  A    between atoms: C_2  and  C_3
REMARK    3  A    between atoms: C_2  and  C_4
REMARK    4  A    between atoms: C_4  and  C_5
REMARK    5  A    between atoms: C_5  and  C_6
REMARK    6  A    between atoms: C_5  and  C_12
REMARK    7  A    between atoms: N_8  and  C_9
REMARK    8  A    between atoms: C_9  and  C_10
REMARK    9  A    between atoms: C_15  and  C_16
REMARK                            x       y       z     vdW  Elec       q    Type
REMARK                         _______ _______ _______ _____ _____    ______ ____
ROOT
ATOM      1  C   UNL     1       3.549   4.738  18.247  0.00  0.00    +0.000 C 
ENDROOT
BRANCH   1   2
ATOM      2  C   UNL     1       2.857   5.899  18.976  0.00  0.00    +0.000 A 
ATOM      3  C   UNL     1       2.758   7.172  18.395  0.00  0.00    +0.000 A 
ATOM      4  C   UNL     1       2.084   8.213  19.056  0.00  0.00    +0.000 A 
ATOM      5  C   UNL     1       1.487   8.032  20.315  0.00  0.00    +0.000 A 
ATOM      6  C   UNL     1       1.638   6.768  20.908  0.00  0.00    +0.000 A 
ATOM      7  C   UNL     1       2.316   5.727  20.257  0.00  0.00    +0.000 A 
BRANCH   5   8
ATOM      8  C   UNL     1       0.743   9.131  20.980  0.00  0.00    +0.000 A 
ATOM      9  C   UNL     1       0.213   8.975  22.276  0.00  0.00    +0.000 A 
ATOM     10  C   UNL     1      -0.518   9.990  22.899  0.00  0.00    +0.000 A 
ATOM     11  C   UNL     1      -0.721  11.200  22.244  0.00  0.00    +0.000 A 
ATOM     12  C   UNL     1      -0.195  11.392  20.971  0.00  0.00    +0.000 A 
ATOM     13  C   UNL     1       0.526  10.368  20.347  0.00  0.00    +0.000 A 
ENDBRANCH   5   8
ENDBRANCH   1   2
BRANCH   1  14
ATOM     14  C   UNL     1       4.750   5.225  17.405  0.00  0.00    +0.000 C 
ATOM     15  O   UNL     1       4.733   5.241  16.174  0.00  0.00    +0.000 OA
ATOM     16  N   UNL     1       5.887   5.629  18.078  0.00  0.00    +0.000 N 
ATOM     17  H   UNL     1       5.963   5.519  19.082  0.00  0.00    +0.000 HD
BRANCH  16  18
ATOM     18  C   UNL     1       7.055   6.005  17.291  0.00  0.00    +0.000 C 
BRANCH  18  19
ATOM     19  C   UNL     1       7.557   7.369  17.552  0.00  0.00    +0.000 C 
ATOM     20  N   UNL     1       7.931   8.440  17.765  0.00  0.00    +0.000 NA
ENDBRANCH  18  19
ENDBRANCH  16  18
ENDBRANCH   1  14
BRANCH   1  21
ATOM     21  C   UNL     1       2.509   3.968  17.368  0.00  0.00    +0.000 C 
BRANCH  21  23
ATOM     22  C   UNL     1       3.376   1.758  18.322  0.00  0.00    +0.000 C 
ATOM     23  C   UNL     1       2.169   2.508  17.771  0.00  0.00    +0.000 C 
ATOM     24  C   UNL     1       1.054   2.463  18.833  0.00  0.00    +0.000 C 
ENDBRANCH  21  23
ENDBRANCH   1  21
TORSDOF 7
ENDMDL
MODEL 4
REMARK VINA RESULT:      -7.4      1.939      2.663
REMARK  Name = 
REMARK  9 active torsions:
REMARK  status: ('A' for Active; 'I' for Inactive)
REMARK    1  A    between atoms: C_1  and  C_2
REMARK    2  A    between atoms: C_2  and  C_3
REMARK    3  A    between atoms: C_2  and  C_4
REMARK    4  A    between atoms: C_4  and  C_5
REMARK    5  A    between atoms: C_5  and  C_6
REMARK    6  A    between atoms: C_5  and  C_12
REMARK    7  A    between atoms: N_8  and  C_9
REMARK    8  A    between atoms: C_9  and  C_10
REMARK    9  A    between atoms: C_15  and  C_16
REMARK                            x       y       z     vdW  Elec       q    Type
REMARK                         _______ _______ _______ _____ _____    ______ ____
ROOT
ATOM      1  C   UNL     1       3.124   5.217  19.082  0.00  0.00    +0.000 C 
ENDROOT
BRANCH   1   2
ATOM      2  C   UNL     1       2.596   6.657  18.988  0.00  0.00    +0.000 A 
ATOM      3  C   UNL     1       2.748   7.416  17.819  0.00  0.00    +0.000 A 
ATOM      4  C   UNL     1       2.222   8.716  17.734  0.00  0.00    +0.000 A 
ATOM      5  C   UNL     1       1.530   9.312  18.803  0.00  0.00    +0.000 A 
ATOM      6  C   UNL     1       1.430   8.559  19.984  0.00  0.00    +0.000 A 
ATOM      7  C   UNL     1       1.959   7.264  20.079  0.00  0.00    +0.000 A 
BRANCH   5   8
ATOM      8  C   UNL     1       0.945  10.670  18.681  0.00  0.00    +0.000 A 
ATOM      9  C   UNL     1       1.764  11.817  18.637  0.00  0.00    +0.000 A 
ATOM     10  C   UNL     1       1.224  13.103  18.556  0.00  0.00    +0.000 A 
ATOM     11  C   UNL     1      -0.155  13.273  18.499  0.00  0.00    +0.000 A 
ATOM     12  C   UNL     1      -0.990  12.161  18.522  0.00  0.00    +0.000 A 
ATOM     13  C   UNL     1      -0.444  10.876  18.615  0.00  0.00    +0.000 A 
ENDBRANCH   5   8
ENDBRANCH   1   2
BRANCH   1  14
ATOM     14  C   UNL     1       4.656   5.156  18.891  0.00  0.00    +0.000 C 
ATOM     15  O   UNL     1       5.445   5.640  19.704  0.00  0.00    +0.000 OA
ATOM     16  N   UNL     1       5.139   4.554  17.745  0.00  0.00    +0.000 N 
ATOM     17  H   UNL     1       4.508   4.251  17.012  0.00  0.00    +0.000 HD
BRANCH  16  18
ATOM     18  C   UNL     1       6.578   4.571  17.513  0.00  0.00    +0.000 C 
BRANCH  18  19
ATOM     19  C   UNL     1       6.977   5.058  16.177  0.00  0.00    +0.000 C 
ATOM     20  N   UNL     1       7.273   5.427  15.124  0.00  0.00    +0.000 NA
ENDBRANCH  18  19
ENDBRANCH  16  18
ENDBRANCH   1  14
BRANCH   1  21
ATOM     21  C   UNL     1       2.382   4.312  18.045  0.00  0.00    +0.000 C 
BRANCH  21  23
ATOM     22  C   UNL     1       2.583   1.871  18.785  0.00  0.00    +0.000 C 
ATOM     23  C   UNL     1       1.645   3.056  18.584  0.00  0.00    +0.000 C 
ATOM     24  C   UNL     1       0.950   3.346  19.927  0.00  0.00    +0.000 C 
ENDBRANCH  21  23
ENDBRANCH   1  21
TORSDOF 7
ENDMDL
MODEL 5
REMARK VINA RESULT:      -7.3      1.731      2.471
REMARK  Name = 
REMARK  9 active torsions:
REMARK  status: ('A' for Active; 'I' for Inactive)
REMARK    1  A    between atoms: C_1  and  C_2
REMARK    2  A    between atoms: C_2  and  C_3
REMARK    3  A    between atoms: C_2  and  C_4
REMARK    4  A    between atoms: C_4  and  C_5
REMARK    5  A    between atoms: C_5  and  C_6
REMARK    6  A    between atoms: C_5  and  C_12
REMARK    7  A    between atoms: N_8  and  C_9
REMARK    8  A    between atoms: C_9  and  C_10
REMARK    9  A    between atoms: C_15  and  C_16
REMARK                            x       y       z     vdW  Elec       q    Type
REMARK                         _______ _______ _______ _____ _____    ______ ____
ROOT
ATOM      1  C   UNL     1       3.101   5.212  19.057  0.00  0.00    +0.000 C 
ENDROOT
BRANCH   1   2
ATOM      2  C   UNL     1       2.590   6.658  18.980  0.00  0.00    +0.000 A 
ATOM      3  C   UNL     1       2.761   7.434  17.825  0.00  0.00    +0.000 A 
ATOM      4  C   UNL     1       2.251   8.741  17.755  0.00  0.00    +0.000 A 
ATOM      5  C   UNL     1       1.556   9.328  18.826  0.00  0.00    +0.000 A 
ATOM      6  C   UNL     1       1.436   8.559  19.995  0.00  0.00    +0.000 A 
ATOM      7  C   UNL     1       1.950   7.256  20.074  0.00  0.00    +0.000 A 
BRANCH   5   8
ATOM      8  C   UNL     1       0.987  10.695  18.720  0.00  0.00    +0.000 A 
ATOM      9  C   UNL     1      -0.406  10.909  18.716  0.00  0.00    +0.000 A 
ATOM     10  C   UNL     1      -0.953  12.187  18.582  0.00  0.00    +0.000 A 
ATOM     11  C   UNL     1      -0.115  13.291  18.468  0.00  0.00    +0.000 A 
ATOM     12  C   UNL     1       1.265  13.116  18.486  0.00  0.00    +0.000 A 
ATOM     13  C   UNL     1       1.808  11.832  18.608  0.00  0.00    +0.000 A 
ENDBRANCH   5   8
ENDBRANCH   1   2
BRANCH   1  14
ATOM     14  C   UNL     1       4.633   5.136  18.878  0.00  0.00    +0.000 C 
ATOM     15  O   UNL     1       5.422   5.516  19.744  0.00  0.00    +0.000 OA
ATOM     16  N   UNL     1       5.119   4.644  17.681  0.00  0.00    +0.000 N 
ATOM     17  H   UNL     1       4.492   4.431  16.915  0.00  0.00    +0.000 HD
BRANCH  16  18
ATOM     18  C   UNL     1       6.561   4.652  17.468  0.00  0.00    +0.000 C 
BRANCH  18  19
ATOM     19  C   UNL     1       7.103   5.944  17.001  0.00  0.00    +0.000 C 
ATOM     20  N   UNL     1       7.508   6.962  16.638  0.00  0.00    +0.000 NA
ENDBRANCH  18  19
ENDBRANCH  16  18
ENDBRANCH   1  14
BRANCH   1  21
ATOM     21  C   UNL     1       2.357   4.330  18.000  0.00  0.00    +0.000 C 
BRANCH  21  23
ATOM     22  C   UNL     1       2.451   1.866  18.682  0.00  0.00    +0.000 C 
ATOM     23  C   UNL     1       1.568   3.098  18.519  0.00  0.00    +0.000 C 
ATOM     24  C   UNL     1       0.902   3.389  19.877  0.00  0.00    +0.000 C 
ENDBRANCH  21  23
ENDBRANCH   1  21
TORSDOF 7
ENDMDL
MODEL 6
REMARK VINA RESULT:      -7.3      1.382      1.400
REMARK  Name = 
REMARK  9 active torsions:
REMARK  status: ('A' for Active; 'I' for Inactive)
REMARK    1  A    between atoms: C_1  and  C_2
REMARK    2  A    between atoms: C_2  and  C_3
REMARK    3  A    between atoms: C_2  and  C_4
REMARK    4  A    between atoms: C_4  and  C_5
REMARK    5  A    between atoms: C_5  and  C_6
REMARK    6  A    between atoms: C_5  and  C_12
REMARK    7  A    between atoms: N_8  and  C_9
REMARK    8  A    between atoms: C_9  and  C_10
REMARK    9  A    between atoms: C_15  and  C_16
REMARK                            x       y       z     vdW  Elec       q    Type
REMARK                         _______ _______ _______ _____ _____    ______ ____
ROOT
ATOM      1  C   UNL     1       3.392   4.792  18.893  0.00  0.00    +0.000 C 
ENDROOT
BRANCH   1   2
ATOM      2  C   UNL     1       2.588   5.959  19.485  0.00  0.00    +0.000 A 
ATOM      3  C   UNL     1       1.830   5.805  20.655  0.00  0.00    +0.000 A 
ATOM      4  C   UNL     1       1.134   6.893  21.208  0.00  0.00    +0.000 A 
ATOM      5  C   UNL     1       1.161   8.170  20.622  0.00  0.00    +0.000 A 
ATOM      6  C   UNL     1       1.883   8.298  19.425  0.00  0.00    +0.000 A 
ATOM      7  C   UNL     1       2.574   7.214  18.863  0.00  0.00    +0.000 A 
BRANCH   5   8
ATOM      8  C   UNL     1       0.454   9.318  21.243  0.00  0.00    +0.000 A 
ATOM      9  C   UNL     1      -0.096   9.224  22.537  0.00  0.00    +0.000 A 
ATOM     10  C   UNL     1      -0.793  10.286  23.119  0.00  0.00    +0.000 A 
ATOM     11  C   UNL     1      -0.941  11.482  22.423  0.00  0.00    +0.000 A 
ATOM     12  C   UNL     1      -0.394  11.613  21.151  0.00  0.00    +0.000 A 
ATOM     13  C   UNL     1       0.292  10.542  20.568  0.00  0.00    +0.000 A 
ENDBRANCH   5   8
ENDBRANCH   1   2
BRANCH   1  14
ATOM     14  C   UNL     1       4.831   5.217  18.525  0.00  0.00    +0.000 C 
ATOM     15  O   UNL     1       5.722   5.339  19.367  0.00  0.00    +0.000 OA
ATOM     16  N   UNL     1       5.102   5.492  17.198  0.00  0.00    +0.000 N 
ATOM     17  H   UNL     1       4.360   5.507  16.509  0.00  0.00    +0.000 HD
BRANCH  16  18
ATOM     18  C   UNL     1       6.432   5.980  16.855  0.00  0.00    +0.000 C 
BRANCH  18  19
ATOM     19  C   UNL     1       6.967   5.457  15.582  0.00  0.00    +0.000 C 
ATOM     20  N   UNL     1       7.404   5.055  14.591  0.00  0.00    +0.000 NA
ENDBRANCH  18  19
ENDBRANCH  16  18
ENDBRANCH   1  14
BRANCH   1  21
ATOM     21  C   UNL     1       2.636   4.201  17.657  0.00  0.00    +0.000 C 
BRANCH  21  23
ATOM     22  C   UNL     1       3.307   1.784  18.162  0.00  0.00    +0.000 C 
ATOM     23  C   UNL     1       2.182   2.719  17.733  0.00  0.00    +0.000 C 
ATOM     24  C   UNL     1       1.012   2.541  18.720  0.00  0.00    +0.000 C 
ENDBRANCH  21  23
ENDBRANCH   1  21
TORSDOF 7
ENDMDL
MODEL 7
REMARK VINA RESULT:      -7.2      1.910      3.785
REMARK  Name = 
REMARK  9 active torsions:
REMARK  status: ('A' for Active; 'I' for Inactive)
REMARK    1  A    between atoms: C_1  and  C_2
REMARK    2  A    between atoms: C_2  and  C_3
REMARK    3  A    between atoms: C_2  and  C_4
REMARK    4  A    between atoms: C_4  and  C_5
REMARK    5  A    between atoms: C_5  and  C_6
REMARK    6  A    between atoms: C_5  and  C_12
REMARK    7  A    between atoms: N_8  and  C_9
REMARK    8  A    between atoms: C_9  and  C_10
REMARK    9  A    between atoms: C_15  and  C_16
REMARK                            x       y       z     vdW  Elec       q    Type
REMARK                         _______ _______ _______ _____ _____    ______ ____
ROOT
ATOM      1  C   UNL     1       3.371   6.163  17.852  0.00  0.00    +0.000 C 
ENDROOT
BRANCH   1   2
ATOM      2  C   UNL     1       2.565   7.169  18.687  0.00  0.00    +0.000 A 
ATOM      3  C   UNL     1       2.142   8.393  18.149  0.00  0.00    +0.000 A 
ATOM      4  C   UNL     1       1.369   9.284  18.913  0.00  0.00    +0.000 A 
ATOM      5  C   UNL     1       0.989   8.997  20.235  0.00  0.00    +0.000 A 
ATOM      6  C   UNL     1       1.461   7.790  20.777  0.00  0.00    +0.000 A 
ATOM      7  C   UNL     1       2.241   6.900  20.023  0.00  0.00    +0.000 A 
BRANCH   5   8
ATOM      8  C   UNL     1       0.137   9.931  21.012  0.00  0.00    +0.000 A 
ATOM      9  C   UNL     1      -0.141   9.704  22.375  0.00  0.00    +0.000 A 
ATOM     10  C   UNL     1      -0.968  10.557  23.109  0.00  0.00    +0.000 A 
ATOM     11  C   UNL     1      -1.527  11.675  22.498  0.00  0.00    +0.000 A 
ATOM     12  C   UNL     1      -1.258  11.937  21.159  0.00  0.00    +0.000 A 
ATOM     13  C   UNL     1      -0.438  11.072  20.426  0.00  0.00    +0.000 A 
ENDBRANCH   5   8
ENDBRANCH   1   2
BRANCH   1  14
ATOM     14  C   UNL     1       3.014   4.704  18.212  0.00  0.00    +0.000 C 
ATOM     15  O   UNL     1       1.954   4.177  17.870  0.00  0.00    +0.000 OA
ATOM     16  N   UNL     1       3.921   3.987  18.970  0.00  0.00    +0.000 N 
ATOM     17  H   UNL     1       4.744   4.434  19.355  0.00  0.00    +0.000 HD
BRANCH  16  18
ATOM     18  C   UNL     1       3.553   2.640  19.390  0.00  0.00    +0.000 C 
BRANCH  18  19
ATOM     19  C   UNL     1       4.521   1.997  20.301  0.00  0.00    +0.000 C 
ATOM     20  N   UNL     1       5.265   1.499  21.030  0.00  0.00    +0.000 NA
ENDBRANCH  18  19
ENDBRANCH  16  18
ENDBRANCH   1  14
BRANCH   1  21
ATOM     21  C   UNL     1       4.902   6.437  18.025  0.00  0.00    +0.000 C 
BRANCH  21  23
ATOM     22  C   UNL     1       7.224   6.744  16.997  0.00  0.00    +0.000 C 
ATOM     23  C   UNL     1       5.720   6.775  16.750  0.00  0.00    +0.000 C 
ATOM     24  C   UNL     1       5.405   5.796  15.604  0.00  0.00    +0.000 C 
ENDBRANCH  21  23
ENDBRANCH   1  21
TORSDOF 7
ENDMDL
MODEL 8
REMARK VINA RESULT:      -7.2      0.927      1.370
REMARK  Name = 
REMARK  9 active torsions:
REMARK  status: ('A' for Active; 'I' for Inactive)
REMARK    1  A    between atoms: C_1  and  C_2
REMARK    2  A    between atoms: C_2  and  C_3
REMARK    3  A    between atoms: C_2  and  C_4
REMARK    4  A    between atoms: C_4  and  C_5
REMARK    5  A    between atoms: C_5  and  C_6
REMARK    6  A    between atoms: C_5  and  C_12
REMARK    7  A    between atoms: N_8  and  C_9
REMARK    8  A    between atoms: C_9  and  C_10
REMARK    9  A    between atoms: C_15  and  C_16
REMARK                            x       y       z     vdW  Elec       q    Type
REMARK                         _______ _______ _______ _____ _____    ______ ____
ROOT
ATOM      1  C   UNL     1       3.681   4.426  18.859  0.00  0.00    +0.000 C 
ENDROOT
BRANCH   1   2
ATOM      2  C   UNL     1       2.948   5.709  19.276  0.00  0.00    +0.000 A 
ATOM      3  C   UNL     1       2.971   6.858  18.473  0.00  0.00    +0.000 A 
ATOM      4  C   UNL     1       2.260   8.011  18.848  0.00  0.00    +0.000 A 
ATOM      5  C   UNL     1       1.504   8.069  20.031  0.00  0.00    +0.000 A 
ATOM      6  C   UNL     1       1.531   6.929  20.851  0.00  0.00    +0.000 A 
ATOM      7  C   UNL     1       2.245   5.777  20.486  0.00  0.00    +0.000 A 
BRANCH   5   8
ATOM      8  C   UNL     1       0.726   9.280  20.391  0.00  0.00    +0.000 A 
ATOM      9  C   UNL     1       0.441   9.594  21.735  0.00  0.00    +0.000 A 
ATOM     10  C   UNL     1      -0.319  10.712  22.084  0.00  0.00    +0.000 A 
ATOM     11  C   UNL     1      -0.800  11.560  21.092  0.00  0.00    +0.000 A 
ATOM     12  C   UNL     1      -0.522  11.289  19.756  0.00  0.00    +0.000 A 
ATOM     13  C   UNL     1       0.230  10.160  19.412  0.00  0.00    +0.000 A 
ENDBRANCH   5   8
ENDBRANCH   1   2
BRANCH   1  14
ATOM     14  C   UNL     1       5.180   4.685  18.589  0.00  0.00    +0.000 C 
ATOM     15  O   UNL     1       5.995   4.866  19.495  0.00  0.00    +0.000 OA
ATOM     16  N   UNL     1       5.598   4.740  17.273  0.00  0.00    +0.000 N 
ATOM     17  H   UNL     1       4.929   4.706  16.514  0.00  0.00    +0.000 HD
BRANCH  16  18
ATOM     18  C   UNL     1       6.992   5.073  17.008  0.00  0.00    +0.000 C 
BRANCH  18  19
ATOM     19  C   UNL     1       7.300   6.516  17.071  0.00  0.00    +0.000 C 
ATOM     20  N   UNL     1       7.559   7.640  17.110  0.00  0.00    +0.000 NA
ENDBRANCH  18  19
ENDBRANCH  16  18
ENDBRANCH   1  14
BRANCH   1  21
ATOM     21  C   UNL     1       2.977   3.794  17.613  0.00  0.00    +0.000 C 
BRANCH  21  23
ATOM     22  C   UNL     1       3.419   1.397  18.390  0.00  0.00    +0.000 C 
ATOM     23  C   UNL     1       2.415   2.354  17.759  0.00  0.00    +0.000 C 
ATOM     24  C   UNL     1       1.134   2.336  18.615  0.00  0.00    +0.000 C 
ENDBRANCH  21  23
ENDBRANCH   1  21
TORSDOF 7
ENDMDL
MODEL 9
REMARK VINA RESULT:      -7.2      1.894      2.384
REMARK  Name = 
REMARK  9 active torsions:
REMARK  status: ('A' for Active; 'I' for Inactive)
REMARK    1  A    between atoms: C_1  and  C_2
REMARK    2  A    between atoms: C_2  and  C_3
REMARK    3  A    between atoms: C_2  and  C_4
REMARK    4  A    between atoms: C_4  and  C_5
REMARK    5  A    between atoms: C_5  and  C_6
REMARK    6  A    between atoms: C_5  and  C_12
REMARK    7  A    between atoms: N_8  and  C_9
REMARK    8  A    between atoms: C_9  and  C_10
REMARK    9  A    between atoms: C_15  and  C_16
REMARK                            x       y       z     vdW  Elec       q    Type
REMARK                         _______ _______ _______ _____ _____    ______ ____
ROOT
ATOM      1  C   UNL     1       3.146   5.148  19.023  0.00  0.00    +0.000 C 
ENDROOT
BRANCH   1   2
ATOM      2  C   UNL     1       2.593   6.579  18.949  0.00  0.00    +0.000 A 
ATOM      3  C   UNL     1       1.964   7.177  20.050  0.00  0.00    +0.000 A 
ATOM      4  C   UNL     1       1.501   8.502  19.981  0.00  0.00    +0.000 A 
ATOM      5  C   UNL     1       1.642   9.280  18.819  0.00  0.00    +0.000 A 
ATOM      6  C   UNL     1       2.228   8.652  17.708  0.00  0.00    +0.000 A 
ATOM      7  C   UNL     1       2.685   7.327  17.768  0.00  0.00    +0.000 A 
BRANCH   5   8
ATOM      8  C   UNL     1       1.185  10.692  18.777  0.00  0.00    +0.000 A 
ATOM      9  C   UNL     1      -0.153  11.035  19.057  0.00  0.00    +0.000 A 
ATOM     10  C   UNL     1      -0.603  12.356  18.988  0.00  0.00    +0.000 A 
ATOM     11  C   UNL     1       0.283  13.373  18.652  0.00  0.00    +0.000 A 
ATOM     12  C   UNL     1       1.614  13.070  18.387  0.00  0.00    +0.000 A 
ATOM     13  C   UNL     1       2.057  11.744  18.446  0.00  0.00    +0.000 A 
ENDBRANCH   5   8
ENDBRANCH   1   2
BRANCH   1  14
ATOM     14  C   UNL     1       4.679   5.116  18.836  0.00  0.00    +0.000 C 
ATOM     15  O   UNL     1       5.458   5.603  19.657  0.00  0.00    +0.000 OA
ATOM     16  N   UNL     1       5.176   4.539  17.682  0.00  0.00    +0.000 N 
ATOM     17  H   UNL     1       4.553   4.234  16.944  0.00  0.00    +0.000 HD
BRANCH  16  18
ATOM     18  C   UNL     1       6.615   4.584  17.455  0.00  0.00    +0.000 C 
BRANCH  18  19
ATOM     19  C   UNL     1       7.007   5.023  16.101  0.00  0.00    +0.000 C 
ATOM     20  N   UNL     1       7.334   5.365  15.047  0.00  0.00    +0.000 NA
ENDBRANCH  18  19
ENDBRANCH  16  18
ENDBRANCH   1  14
BRANCH   1  21
ATOM     21  C   UNL     1       2.423   4.245  17.970  0.00  0.00    +0.000 C 
BRANCH  21  23
ATOM     22  C   UNL     1       2.641   1.823  18.765  0.00  0.00    +0.000 C 
ATOM     23  C   UNL     1       1.688   2.981  18.490  0.00  0.00    +0.000 C 
ATOM     24  C   UNL     1       0.911   3.277  19.787  0.00  0.00    +0.000 C 
ENDBRANCH  21  23
ENDBRANCH   1  21
TORSDOF 7
ENDMDL
