MODEL 1
REMARK VINA RESULT:      -6.9      0.000      0.000
REMARK  Name = 
REMARK  7 active torsions:
REMARK  status: ('A' for Active; 'I' for Inactive)
REMARK    1  A    between atoms: C_1  and  O_2
REMARK    2  A    between atoms: O_2  and  C_3
REMARK    3  A    between atoms: C_5  and  C_6
REMARK    4  A    between atoms: C_16  and  O_17
REMARK    5  A    between atoms: O_17  and  C_18
REMARK    6  A    between atoms: C_19  and  O_20
REMARK    7  A    between atoms: O_20  and  C_21
REMARK                            x       y       z     vdW  Elec       q    Type
REMARK                         _______ _______ _______ _____ _____    ______ ____
ROOT
ATOM      1  C   UNL     1       4.704   5.051  18.608  0.00  0.00    +0.000 A 
ATOM      2  C   UNL     1       4.176   6.347  18.457  0.00  0.00    +0.000 A 
ATOM      3  C   UNL     1       2.821   6.547  18.201  0.00  0.00    +0.000 A 
ATOM      4  C   UNL     1       2.042   5.432  17.904  0.00  0.00    +0.000 A 
ATOM      5  C   UNL     1       2.539   4.127  18.033  0.00  0.00    +0.000 A 
ATOM      6  C   UNL     1       3.883   3.918  18.403  0.00  0.00    +0.000 A 
ENDROOT
BRANCH   3   7
ATOM      7  C   UNL     1       2.248   7.894  18.327  0.00  0.00    +0.000 A 
ATOM      8  N   UNL     1       2.302   8.824  17.385  0.00  0.00    +0.000 NA
ATOM      9  C   UNL     1       1.714   9.946  17.909  0.00  0.00    +0.000 A 
ATOM     10  C   UNL     1       1.298   9.721  19.197  0.00  0.00    +0.000 A 
ATOM     11  C   UNL     1       0.642  10.476  20.207  0.00  0.00    +0.000 A 
ATOM     12  C   UNL     1       0.432   9.921  21.417  0.00  0.00    +0.000 A 
ATOM     13  C   UNL     1       0.888   8.582  21.725  0.00  0.00    +0.000 A 
ATOM     14  C   UNL     1       1.508   7.867  20.771  0.00  0.00    +0.000 A 
ATOM     15  N   UNL     1       1.687   8.419  19.493  0.00  0.00    +0.000 N 
ENDBRANCH   3   7
BRANCH   1  17
ATOM     16  C   UNL     1       6.967   5.584  18.128  0.00  0.00    +0.000 C 
ATOM     17  O   UNL     1       6.025   4.878  18.936  0.00  0.00    +0.000 OA
ENDBRANCH   1  17
BRANCH   5  18
ATOM     18  O   UNL     1       1.544   3.210  17.806  0.00  0.00    +0.000 OA
ATOM     19  C   UNL     1       0.813   2.679  18.899  0.00  0.00    +0.000 C 
ENDBRANCH   5  18
BRANCH   6  20
ATOM     20  O   UNL     1       4.279   2.612  18.509  0.00  0.00    +0.000 OA
ATOM     21  C   UNL     1       4.329   1.977  19.775  0.00  0.00    +0.000 C 
ENDBRANCH   6  20
TORSDOF 4
ENDMDL
MODEL 2
REMARK VINA RESULT:      -6.8      1.304      2.890
REMARK  Name = 
REMARK  7 active torsions:
REMARK  status: ('A' for Active; 'I' for Inactive)
REMARK    1  A    between atoms: C_1  and  O_2
REMARK    2  A    between atoms: O_2  and  C_3
REMARK    3  A    between atoms: C_5  and  C_6
REMARK    4  A    between atoms: C_16  and  O_17
REMARK    5  A    between atoms: O_17  and  C_18
REMARK    6  A    between atoms: C_19  and  O_20
REMARK    7  A    between atoms: O_20  and  C_21
REMARK                            x       y       z     vdW  Elec       q    Type
REMARK                         _______ _______ _______ _____ _____    ______ ____
ROOT
ATOM      1  C   UNL     1       2.376   3.774  19.883  0.00  0.00    +0.000 A 
ATOM      2  C   UNL     1       1.987   5.123  19.784  0.00  0.00    +0.000 A 
ATOM      3  C   UNL     1       2.862   6.091  19.296  0.00  0.00    +0.000 A 
ATOM      4  C   UNL     1       4.190   5.727  19.093  0.00  0.00    +0.000 A 
ATOM      5  C   UNL     1       4.616   4.395  19.194  0.00  0.00    +0.000 A 
ATOM      6  C   UNL     1       3.704   3.392  19.580  0.00  0.00    +0.000 A 
ENDROOT
BRANCH   3   7
ATOM      7  C   UNL     1       2.350   7.422  18.940  0.00  0.00    +0.000 A 
ATOM      8  N   UNL     1       2.590   8.037  17.792  0.00  0.00    +0.000 NA
ATOM      9  C   UNL     1       1.993   9.268  17.876  0.00  0.00    +0.000 A 
ATOM     10  C   UNL     1       1.384   9.432  19.095  0.00  0.00    +0.000 A 
ATOM     11  C   UNL     1       0.631  10.455  19.733  0.00  0.00    +0.000 A 
ATOM     12  C   UNL     1       0.220  10.278  21.004  0.00  0.00    +0.000 A 
ATOM     13  C   UNL     1       0.553   9.082  21.749  0.00  0.00    +0.000 A 
ATOM     14  C   UNL     1       1.264   8.115  21.146  0.00  0.00    +0.000 A 
ATOM     15  N   UNL     1       1.656   8.269  19.807  0.00  0.00    +0.000 N 
ENDBRANCH   3   7
BRANCH   1  17
ATOM     16  C   UNL     1       1.429   2.575  21.699  0.00  0.00    +0.000 C 
ATOM     17  O   UNL     1       1.476   2.824  20.294  0.00  0.00    +0.000 OA
ENDBRANCH   1  17
BRANCH   5  18
ATOM     18  O   UNL     1       5.932   4.282  18.825  0.00  0.00    +0.000 OA
ATOM     19  C   UNL     1       6.322   4.592  17.498  0.00  0.00    +0.000 C 
ENDBRANCH   5  18
BRANCH   6  20
ATOM     20  O   UNL     1       4.206   2.120  19.647  0.00  0.00    +0.000 OA
ATOM     21  C   UNL     1       3.931   1.183  18.619  0.00  0.00    +0.000 C 
ENDBRANCH   6  20
TORSDOF 4
ENDMDL
MODEL 3
REMARK VINA RESULT:      -6.7      1.075      2.984
REMARK  Name = 
REMARK  7 active torsions:
REMARK  status: ('A' for Active; 'I' for Inactive)
REMARK    1  A    between atoms: C_1  and  O_2
REMARK    2  A    between atoms: O_2  and  C_3
REMARK    3  A    between atoms: C_5  and  C_6
REMARK    4  A    between atoms: C_16  and  O_17
REMARK    5  A    between atoms: O_17  and  C_18
REMARK    6  A    between atoms: C_19  and  O_20
REMARK    7  A    between atoms: O_20  and  C_21
REMARK                            x       y       z     vdW  Elec       q    Type
REMARK                         _______ _______ _______ _____ _____    ______ ____
ROOT
ATOM      1  C   UNL     1       2.721   3.550  19.588  0.00  0.00    +0.000 A 
ATOM      2  C   UNL     1       2.225   4.864  19.501  0.00  0.00    +0.000 A 
ATOM      3  C   UNL     1       3.072   5.938  19.234  0.00  0.00    +0.000 A 
ATOM      4  C   UNL     1       4.444   5.705  19.252  0.00  0.00    +0.000 A 
ATOM      5  C   UNL     1       4.975   4.411  19.348  0.00  0.00    +0.000 A 
ATOM      6  C   UNL     1       4.112   3.307  19.505  0.00  0.00    +0.000 A 
ENDROOT
BRANCH   3   7
ATOM      7  C   UNL     1       2.501   7.243  18.872  0.00  0.00    +0.000 A 
ATOM      8  N   UNL     1       2.718   7.864  17.722  0.00  0.00    +0.000 NA
ATOM      9  C   UNL     1       2.065   9.067  17.800  0.00  0.00    +0.000 A 
ATOM     10  C   UNL     1       1.445   9.207  19.016  0.00  0.00    +0.000 A 
ATOM     11  C   UNL     1       0.644  10.198  19.647  0.00  0.00    +0.000 A 
ATOM     12  C   UNL     1       0.236  10.007  20.917  0.00  0.00    +0.000 A 
ATOM     13  C   UNL     1       0.621   8.830  21.669  0.00  0.00    +0.000 A 
ATOM     14  C   UNL     1       1.377   7.894  21.071  0.00  0.00    +0.000 A 
ATOM     15  N   UNL     1       1.767   8.060  19.734  0.00  0.00    +0.000 N 
ENDBRANCH   3   7
BRANCH   1  17
ATOM     16  C   UNL     1       0.792   2.390  18.834  0.00  0.00    +0.000 C 
ATOM     17  O   UNL     1       1.861   2.498  19.775  0.00  0.00    +0.000 OA
ENDBRANCH   1  17
BRANCH   5  18
ATOM     18  O   UNL     1       6.340   4.440  19.216  0.00  0.00    +0.000 OA
ATOM     19  C   UNL     1       7.003   5.679  19.031  0.00  0.00    +0.000 C 
ENDBRANCH   5  18
BRANCH   6  20
ATOM     20  O   UNL     1       4.717   2.082  19.586  0.00  0.00    +0.000 OA
ATOM     21  C   UNL     1       5.032   1.517  20.847  0.00  0.00    +0.000 C 
ENDBRANCH   6  20
TORSDOF 4
ENDMDL
MODEL 4
REMARK VINA RESULT:      -6.7      1.497      3.235
REMARK  Name = 
REMARK  7 active torsions:
REMARK  status: ('A' for Active; 'I' for Inactive)
REMARK    1  A    between atoms: C_1  and  O_2
REMARK    2  A    between atoms: O_2  and  C_3
REMARK    3  A    between atoms: C_5  and  C_6
REMARK    4  A    between atoms: C_16  and  O_17
REMARK    5  A    between atoms: O_17  and  C_18
REMARK    6  A    between atoms: C_19  and  O_20
REMARK    7  A    between atoms: O_20  and  C_21
REMARK                            x       y       z     vdW  Elec       q    Type
REMARK                         _______ _______ _______ _____ _____    ______ ____
ROOT
ATOM      1  C   UNL     1       3.397   4.815  17.569  0.00  0.00    +0.000 A 
ATOM      2  C   UNL     1       2.626   5.879  18.074  0.00  0.00    +0.000 A 
ATOM      3  C   UNL     1       3.077   7.195  17.998  0.00  0.00    +0.000 A 
ATOM      4  C   UNL     1       4.391   7.411  17.590  0.00  0.00    +0.000 A 
ATOM      5  C   UNL     1       5.192   6.373  17.092  0.00  0.00    +0.000 A 
ATOM      6  C   UNL     1       4.696   5.054  17.063  0.00  0.00    +0.000 A 
ENDROOT
BRANCH   3   7
ATOM      7  C   UNL     1       2.148   8.301  18.269  0.00  0.00    +0.000 A 
ATOM      8  N   UNL     1       1.856   9.265  17.409  0.00  0.00    +0.000 NA
ATOM      9  C   UNL     1       1.009  10.125  18.058  0.00  0.00    +0.000 A 
ATOM     10  C   UNL     1       0.779   9.703  19.344  0.00  0.00    +0.000 A 
ATOM     11  C   UNL     1       0.013  10.163  20.450  0.00  0.00    +0.000 A 
ATOM     12  C   UNL     1       0.070   9.493  21.617  0.00  0.00    +0.000 A 
ATOM     13  C   UNL     1       0.918   8.331  21.785  0.00  0.00    +0.000 A 
ATOM     14  C   UNL     1       1.642   7.897  20.740  0.00  0.00    +0.000 A 
ATOM     15  N   UNL     1       1.553   8.559  19.506  0.00  0.00    +0.000 N 
ENDBRANCH   3   7
BRANCH   1  17
ATOM     16  C   UNL     1       1.622   3.369  18.195  0.00  0.00    +0.000 C 
ATOM     17  O   UNL     1       2.901   3.536  17.585  0.00  0.00    +0.000 OA
ENDBRANCH   1  17
BRANCH   5  18
ATOM     18  O   UNL     1       6.391   6.864  16.642  0.00  0.00    +0.000 OA
ATOM     19  C   UNL     1       7.474   7.015  17.544  0.00  0.00    +0.000 C 
ENDBRANCH   5  18
BRANCH   6  20
ATOM     20  O   UNL     1       5.544   4.106  16.557  0.00  0.00    +0.000 OA
ATOM     21  C   UNL     1       5.707   3.961  15.156  0.00  0.00    +0.000 C 
ENDBRANCH   6  20
TORSDOF 4
ENDMDL
MODEL 5
REMARK VINA RESULT:      -6.7      3.569      5.354
REMARK  Name = 
REMARK  7 active torsions:
REMARK  status: ('A' for Active; 'I' for Inactive)
REMARK    1  A    between atoms: C_1  and  O_2
REMARK    2  A    between atoms: O_2  and  C_3
REMARK    3  A    between atoms: C_5  and  C_6
REMARK    4  A    between atoms: C_16  and  O_17
REMARK    5  A    between atoms: O_17  and  C_18
REMARK    6  A    between atoms: C_19  and  O_20
REMARK    7  A    between atoms: O_20  and  C_21
REMARK                            x       y       z     vdW  Elec       q    Type
REMARK                         _______ _______ _______ _____ _____    ______ ____
ROOT
ATOM      1  C   UNL     1       6.870   5.720  16.256  0.00  0.00    +0.000 A 
ATOM      2  C   UNL     1       5.763   5.321  17.027  0.00  0.00    +0.000 A 
ATOM      3  C   UNL     1       4.952   4.259  16.629  0.00  0.00    +0.000 A 
ATOM      4  C   UNL     1       5.148   3.733  15.355  0.00  0.00    +0.000 A 
ATOM      5  C   UNL     1       6.234   4.115  14.554  0.00  0.00    +0.000 A 
ATOM      6  C   UNL     1       7.123   5.111  15.004  0.00  0.00    +0.000 A 
ENDROOT
BRANCH   3   7
ATOM      7  C   UNL     1       3.986   3.686  17.575  0.00  0.00    +0.000 A 
ATOM      8  N   UNL     1       3.618   2.413  17.594  0.00  0.00    +0.000 NA
ATOM      9  C   UNL     1       2.665   2.297  18.574  0.00  0.00    +0.000 A 
ATOM     10  C   UNL     1       2.425   3.511  19.166  0.00  0.00    +0.000 A 
ATOM     11  C   UNL     1       1.582   3.994  20.204  0.00  0.00    +0.000 A 
ATOM     12  C   UNL     1       1.576   5.311  20.492  0.00  0.00    +0.000 A 
ATOM     13  C   UNL     1       2.385   6.254  19.747  0.00  0.00    +0.000 A 
ATOM     14  C   UNL     1       3.181   5.797  18.766  0.00  0.00    +0.000 A 
ATOM     15  N   UNL     1       3.231   4.422  18.491  0.00  0.00    +0.000 N 
ENDBRANCH   3   7
BRANCH   1  17
ATOM     16  C   UNL     1       7.746   6.903  18.118  0.00  0.00    +0.000 C 
ATOM     17  O   UNL     1       7.700   6.716  16.703  0.00  0.00    +0.000 OA
ENDBRANCH   1  17
BRANCH   5  18
ATOM     18  O   UNL     1       6.274   3.363  13.408  0.00  0.00    +0.000 OA
ATOM     19  C   UNL     1       5.182   3.399  12.504  0.00  0.00    +0.000 C 
ENDBRANCH   5  18
BRANCH   6  20
ATOM     20  O   UNL     1       8.157   5.417  14.160  0.00  0.00    +0.000 OA
ATOM     21  C   UNL     1       7.908   5.712  12.796  0.00  0.00    +0.000 C 
ENDBRANCH   6  20
TORSDOF 4
ENDMDL
MODEL 6
REMARK VINA RESULT:      -6.6      3.748      5.679
REMARK  Name = 
REMARK  7 active torsions:
REMARK  status: ('A' for Active; 'I' for Inactive)
REMARK    1  A    between atoms: C_1  and  O_2
REMARK    2  A    between atoms: O_2  and  C_3
REMARK    3  A    between atoms: C_5  and  C_6
REMARK    4  A    between atoms: C_16  and  O_17
REMARK    5  A    between atoms: O_17  and  C_18
REMARK    6  A    between atoms: C_19  and  O_20
REMARK    7  A    between atoms: O_20  and  C_21
REMARK                            x       y       z     vdW  Elec       q    Type
REMARK                         _______ _______ _______ _____ _____    ______ ____
ROOT
ATOM      1  C   UNL     1       6.229   5.507  16.082  0.00  0.00    +0.000 A 
ATOM      2  C   UNL     1       5.351   4.486  16.489  0.00  0.00    +0.000 A 
ATOM      3  C   UNL     1       5.198   4.161  17.836  0.00  0.00    +0.000 A 
ATOM      4  C   UNL     1       6.081   4.734  18.748  0.00  0.00    +0.000 A 
ATOM      5  C   UNL     1       6.977   5.746  18.375  0.00  0.00    +0.000 A 
ATOM      6  C   UNL     1       7.054   6.157  17.029  0.00  0.00    +0.000 A 
ENDROOT
BRANCH   3   7
ATOM      7  C   UNL     1       4.084   3.300  18.256  0.00  0.00    +0.000 A 
ATOM      8  N   UNL     1       3.858   2.082  17.786  0.00  0.00    +0.000 NA
ATOM      9  C   UNL     1       2.701   1.644  18.378  0.00  0.00    +0.000 A 
ATOM     10  C   UNL     1       2.191   2.602  19.217  0.00  0.00    +0.000 A 
ATOM     11  C   UNL     1       1.062   2.715  20.075  0.00  0.00    +0.000 A 
ATOM     12  C   UNL     1       0.846   3.871  20.733  0.00  0.00    +0.000 A 
ATOM     13  C   UNL     1       1.718   5.015  20.565  0.00  0.00    +0.000 A 
ATOM     14  C   UNL     1       2.784   4.908  19.755  0.00  0.00    +0.000 A 
ATOM     15  N   UNL     1       3.046   3.694  19.102  0.00  0.00    +0.000 N 
ENDBRANCH   3   7
BRANCH   1  17
ATOM     16  C   UNL     1       6.885   4.895  13.884  0.00  0.00    +0.000 C 
ATOM     17  O   UNL     1       6.307   5.863  14.760  0.00  0.00    +0.000 OA
ENDBRANCH   1  17
BRANCH   5  18
ATOM     18  O   UNL     1       7.640   6.229  19.474  0.00  0.00    +0.000 OA
ATOM     19  C   UNL     1       8.389   5.344  20.291  0.00  0.00    +0.000 C 
ENDBRANCH   5  18
BRANCH   6  20
ATOM     20  O   UNL     1       7.953   7.153  16.758  0.00  0.00    +0.000 OA
ATOM     21  C   UNL     1       7.876   8.396  17.435  0.00  0.00    +0.000 C 
ENDBRANCH   6  20
TORSDOF 4
ENDMDL
MODEL 7
REMARK VINA RESULT:      -6.5      3.308      5.849
REMARK  Name = 
REMARK  7 active torsions:
REMARK  status: ('A' for Active; 'I' for Inactive)
REMARK    1  A    between atoms: C_1  and  O_2
REMARK    2  A    between atoms: O_2  and  C_3
REMARK    3  A    between atoms: C_5  and  C_6
REMARK    4  A    between atoms: C_16  and  O_17
REMARK    5  A    between atoms: O_17  and  C_18
REMARK    6  A    between atoms: C_19  and  O_20
REMARK    7  A    between atoms: O_20  and  C_21
REMARK                            x       y       z     vdW  Elec       q    Type
REMARK                         _______ _______ _______ _____ _____    ______ ____
ROOT
ATOM      1  C   UNL     1       6.074   4.190  14.781  0.00  0.00    +0.000 A 
ATOM      2  C   UNL     1       5.025   4.105  15.714  0.00  0.00    +0.000 A 
ATOM      3  C   UNL     1       4.935   4.998  16.780  0.00  0.00    +0.000 A 
ATOM      4  C   UNL     1       6.012   5.850  17.009  0.00  0.00    +0.000 A 
ATOM      5  C   UNL     1       7.080   5.953  16.106  0.00  0.00    +0.000 A 
ATOM      6  C   UNL     1       7.118   5.127  14.965  0.00  0.00    +0.000 A 
ENDROOT
BRANCH   3   7
ATOM      7  C   UNL     1       3.696   5.069  17.568  0.00  0.00    +0.000 A 
ATOM      8  N   UNL     1       3.087   6.195  17.910  0.00  0.00    +0.000 NA
ATOM      9  C   UNL     1       2.014   5.838  18.685  0.00  0.00    +0.000 A 
ATOM     10  C   UNL     1       1.958   4.476  18.841  0.00  0.00    +0.000 A 
ATOM     11  C   UNL     1       1.101   3.557  19.506  0.00  0.00    +0.000 A 
ATOM     12  C   UNL     1       1.395   2.242  19.482  0.00  0.00    +0.000 A 
ATOM     13  C   UNL     1       2.583   1.743  18.821  0.00  0.00    +0.000 A 
ATOM     14  C   UNL     1       3.393   2.611  18.193  0.00  0.00    +0.000 A 
ATOM     15  N   UNL     1       3.069   3.977  18.170  0.00  0.00    +0.000 N 
ENDBRANCH   3   7
BRANCH   1  17
ATOM     16  C   UNL     1       5.121   3.595  12.690  0.00  0.00    +0.000 C 
ATOM     17  O   UNL     1       6.103   3.350  13.696  0.00  0.00    +0.000 OA
ENDBRANCH   1  17
BRANCH   5  18
ATOM     18  O   UNL     1       7.943   6.946  16.494  0.00  0.00    +0.000 OA
ATOM     19  C   UNL     1       7.605   7.786  17.585  0.00  0.00    +0.000 C 
ENDBRANCH   5  18
BRANCH   6  20
ATOM     20  O   UNL     1       8.195   5.299  14.137  0.00  0.00    +0.000 OA
ATOM     21  C   UNL     1       8.012   5.738  12.801  0.00  0.00    +0.000 C 
ENDBRANCH   6  20
TORSDOF 4
ENDMDL
MODEL 8
REMARK VINA RESULT:      -6.5      1.439      2.568
REMARK  Name = 
REMARK  7 active torsions:
REMARK  status: ('A' for Active; 'I' for Inactive)
REMARK    1  A    between atoms: C_1  and  O_2
REMARK    2  A    between atoms: O_2  and  C_3
REMARK    3  A    between atoms: C_5  and  C_6
REMARK    4  A    between atoms: C_16  and  O_17
REMARK    5  A    between atoms: O_17  and  C_18
REMARK    6  A    between atoms: C_19  and  O_20
REMARK    7  A    between atoms: O_20  and  C_21
REMARK                            x       y       z     vdW  Elec       q    Type
REMARK                         _______ _______ _______ _____ _____    ______ ____
ROOT
ATOM      1  C   UNL     1       2.946   4.572  19.841  0.00  0.00    +0.000 A 
ATOM      2  C   UNL     1       2.539   5.918  19.852  0.00  0.00    +0.000 A 
ATOM      3  C   UNL     1       2.790   6.756  18.767  0.00  0.00    +0.000 A 
ATOM      4  C   UNL     1       3.624   6.282  17.757  0.00  0.00    +0.000 A 
ATOM      5  C   UNL     1       4.058   4.949  17.720  0.00  0.00    +0.000 A 
ATOM      6  C   UNL     1       3.711   4.067  18.763  0.00  0.00    +0.000 A 
ENDROOT
BRANCH   3   7
ATOM      7  C   UNL     1       2.118   8.060  18.682  0.00  0.00    +0.000 A 
ATOM      8  N   UNL     1       2.145   8.850  17.619  0.00  0.00    +0.000 NA
ATOM      9  C   UNL     1       1.457   9.986  17.961  0.00  0.00    +0.000 A 
ATOM     10  C   UNL     1       1.007   9.912  19.255  0.00  0.00    +0.000 A 
ATOM     11  C   UNL     1       0.259  10.750  20.127  0.00  0.00    +0.000 A 
ATOM     12  C   UNL     1       0.042  10.355  21.397  0.00  0.00    +0.000 A 
ATOM     13  C   UNL     1       0.579   9.110  21.907  0.00  0.00    +0.000 A 
ATOM     14  C   UNL     1       1.285   8.318  21.082  0.00  0.00    +0.000 A 
ATOM     15  N   UNL     1       1.476   8.698  19.745  0.00  0.00    +0.000 N 
ENDBRANCH   3   7
BRANCH   1  17
ATOM     16  C   UNL     1       1.298   3.213  20.875  0.00  0.00    +0.000 C 
ATOM     17  O   UNL     1       2.622   3.744  20.886  0.00  0.00    +0.000 OA
ENDBRANCH   1  17
BRANCH   5  18
ATOM     18  O   UNL     1       4.758   4.703  16.567  0.00  0.00    +0.000 OA
ATOM     19  C   UNL     1       5.478   5.752  15.942  0.00  0.00    +0.000 C 
ENDBRANCH   5  18
BRANCH   6  20
ATOM     20  O   UNL     1       4.174   2.784  18.642  0.00  0.00    +0.000 OA
ATOM     21  C   UNL     1       3.364   1.780  18.054  0.00  0.00    +0.000 C 
ENDBRANCH   6  20
TORSDOF 4
ENDMDL
MODEL 9
REMARK VINA RESULT:      -6.4      1.774      2.647
REMARK  Name = 
REMARK  7 active torsions:
REMARK  status: ('A' for Active; 'I' for Inactive)
REMARK    1  A    between atoms: C_1  and  O_2
REMARK    2  A    between atoms: O_2  and  C_3
REMARK    3  A    between atoms: C_5  and  C_6
REMARK    4  A    between atoms: C_16  and  O_17
REMARK    5  A    between atoms: O_17  and  C_18
REMARK    6  A    between atoms: C_19  and  O_20
REMARK    7  A    between atoms: O_20  and  C_21
REMARK                            x       y       z     vdW  Elec       q    Type
REMARK                         _______ _______ _______ _____ _____    ______ ____
ROOT
ATOM      1  C   UNL     1       5.168   6.215  16.924  0.00  0.00    +0.000 A 
ATOM      2  C   UNL     1       4.269   6.992  17.677  0.00  0.00    +0.000 A 
ATOM      3  C   UNL     1       3.139   6.423  18.260  0.00  0.00    +0.000 A 
ATOM      4  C   UNL     1       2.817   5.113  17.915  0.00  0.00    +0.000 A 
ATOM      5  C   UNL     1       3.684   4.313  17.157  0.00  0.00    +0.000 A 
ATOM      6  C   UNL     1       4.886   4.855  16.659  0.00  0.00    +0.000 A 
ENDROOT
BRANCH   3   7
ATOM      7  C   UNL     1       2.377   7.180  19.263  0.00  0.00    +0.000 A 
ATOM      8  N   UNL     1       1.969   6.690  20.424  0.00  0.00    +0.000 NA
ATOM      9  C   UNL     1       1.247   7.682  21.035  0.00  0.00    +0.000 A 
ATOM     10  C   UNL     1       1.191   8.801  20.244  0.00  0.00    +0.000 A 
ATOM     11  C   UNL     1       0.613  10.097  20.343  0.00  0.00    +0.000 A 
ATOM     12  C   UNL     1       0.725  10.952  19.307  0.00  0.00    +0.000 A 
ATOM     13  C   UNL     1       1.392  10.572  18.079  0.00  0.00    +0.000 A 
ATOM     14  C   UNL     1       1.937   9.348  17.985  0.00  0.00    +0.000 A 
ATOM     15  N   UNL     1       1.869   8.468  19.076  0.00  0.00    +0.000 N 
ENDBRANCH   3   7
BRANCH   1  17
ATOM     16  C   UNL     1       7.379   6.965  17.356  0.00  0.00    +0.000 C 
ATOM     17  O   UNL     1       6.315   6.778  16.423  0.00  0.00    +0.000 OA
ENDBRANCH   1  17
BRANCH   5  18
ATOM     18  O   UNL     1       3.198   3.034  17.063  0.00  0.00    +0.000 OA
ATOM     19  C   UNL     1       3.352   2.141  18.153  0.00  0.00    +0.000 C 
ENDBRANCH   5  18
BRANCH   6  20
ATOM     20  O   UNL     1       5.672   4.001  15.933  0.00  0.00    +0.000 OA
ATOM     21  C   UNL     1       5.728   4.100  14.520  0.00  0.00    +0.000 C 
ENDBRANCH   6  20
TORSDOF 4
ENDMDL
