MODEL 1
REMARK VINA RESULT:      -8.3      0.000      0.000
REMARK  Name = 
REMARK  6 active torsions:
REMARK  status: ('A' for Active; 'I' for Inactive)
REMARK    1  A    between atoms: C_1  and  C_2
REMARK    2  A    between atoms: C_5  and  C_6
REMARK    3  A    between atoms: C_9  and  C_10
REMARK    4  A    between atoms: C_11  and  C_12
REMARK    5  A    between atoms: C_14  and  S_15
REMARK    6  A    between atoms: S_15  and  N_18
REMARK                            x       y       z     vdW  Elec       q    Type
REMARK                         _______ _______ _______ _____ _____    ______ ____
ROOT
ATOM      1  C   UNL     1       4.213   2.453  20.102  0.00  0.00    +0.000 C 
ATOM      2  C   UNL     1       3.598   3.820  19.993  0.00  0.00    +0.000 A 
ATOM      3  C   UNL     1       2.292   3.989  20.482  0.00  0.00    +0.000 A 
ATOM      4  C   UNL     1       1.663   5.237  20.471  0.00  0.00    +0.000 A 
ATOM      5  C   UNL     1       2.322   6.364  19.973  0.00  0.00    +0.000 A 
ATOM      6  C   UNL     1       3.606   6.195  19.443  0.00  0.00    +0.000 A 
ATOM      7  C   UNL     1       4.247   4.944  19.447  0.00  0.00    +0.000 A 
ENDROOT
BRANCH   5   8
ATOM      8  C   UNL     1       1.716   7.686  20.058  0.00  0.00    +0.000 A 
ATOM      9  O   UNL     1       1.223   8.034  21.281  0.00  0.00    +0.000 OA
ATOM     10  N   UNL     1       0.725   9.321  21.238  0.00  0.00    +0.000 NA
ATOM     11  C   UNL     1       0.928   9.747  19.987  0.00  0.00    +0.000 A 
ATOM     12  C   UNL     1       0.547  11.124  19.598  0.00  0.00    +0.000 C 
ATOM     13  C   UNL     1       1.536   8.742  19.183  0.00  0.00    +0.000 A 
ATOM     14  C   UNL     1       1.935   8.845  17.758  0.00  0.00    +0.000 C 
ENDBRANCH   5   8
BRANCH   7  15
ATOM     15  S   UNL     1       5.937   4.928  18.840  0.00  0.00    +0.000 S 
ATOM     16  O   UNL     1       6.783   5.494  19.870  0.00  0.00    +0.000 OA
ATOM     17  O   UNL     1       6.221   3.607  18.318  0.00  0.00    +0.000 OA
BRANCH  15  18
ATOM     18  N   UNL     1       5.921   5.969  17.518  0.00  0.00    +0.000 N 
ATOM     19  C   UNL     1       6.049   5.383  16.246  0.00  0.00    +0.000 A 
ATOM     20  C   UNL     1       4.993   4.787  15.577  0.00  0.00    +0.000 A 
ATOM     21  C   UNL     1       5.233   4.297  14.295  0.00  0.00    +0.000 A 
ATOM     22  C   UNL     1       6.513   4.398  13.758  0.00  0.00    +0.000 A 
ATOM     23  C   UNL     1       7.504   4.987  14.527  0.00  0.00    +0.000 A 
ATOM     24  N   UNL     1       7.296   5.493  15.763  0.00  0.00    +0.000 NA
ATOM     25  H   UNL     1       6.623   6.692  17.634  0.00  0.00    +0.000 HD
ENDBRANCH  15  18
ENDBRANCH   7  15
TORSDOF 3
ENDMDL
MODEL 2
REMARK VINA RESULT:      -7.9      0.948      1.323
REMARK  Name = 
REMARK  6 active torsions:
REMARK  status: ('A' for Active; 'I' for Inactive)
REMARK    1  A    between atoms: C_1  and  C_2
REMARK    2  A    between atoms: C_5  and  C_6
REMARK    3  A    between atoms: C_9  and  C_10
REMARK    4  A    between atoms: C_11  and  C_12
REMARK    5  A    between atoms: C_14  and  S_15
REMARK    6  A    between atoms: S_15  and  N_18
REMARK                            x       y       z     vdW  Elec       q    Type
REMARK                         _______ _______ _______ _____ _____    ______ ____
ROOT
ATOM      1  C   UNL     1       4.366   2.708  19.692  0.00  0.00    +0.000 C 
ATOM      2  C   UNL     1       3.701   4.055  19.703  0.00  0.00    +0.000 A 
ATOM      3  C   UNL     1       2.379   4.127  20.173  0.00  0.00    +0.000 A 
ATOM      4  C   UNL     1       1.703   5.347  20.269  0.00  0.00    +0.000 A 
ATOM      5  C   UNL     1       2.328   6.541  19.900  0.00  0.00    +0.000 A 
ATOM      6  C   UNL     1       3.629   6.472  19.389  0.00  0.00    +0.000 A 
ATOM      7  C   UNL     1       4.318   5.251  19.286  0.00  0.00    +0.000 A 
ENDROOT
BRANCH   5   8
ATOM      8  C   UNL     1       1.670   7.825  20.101  0.00  0.00    +0.000 A 
ATOM      9  O   UNL     1       1.289   8.103  21.380  0.00  0.00    +0.000 OA
ATOM     10  N   UNL     1       0.726   9.362  21.440  0.00  0.00    +0.000 NA
ATOM     11  C   UNL     1       0.778   9.842  20.193  0.00  0.00    +0.000 A 
ATOM     12  C   UNL     1       0.292  11.210  19.901  0.00  0.00    +0.000 C 
ATOM     13  C   UNL     1       1.349   8.901  19.292  0.00  0.00    +0.000 A 
ATOM     14  C   UNL     1       1.594   9.075  17.839  0.00  0.00    +0.000 C 
ENDBRANCH   5   8
BRANCH   7  15
ATOM     15  S   UNL     1       6.020   5.357  18.724  0.00  0.00    +0.000 S 
ATOM     16  O   UNL     1       6.149   6.558  17.925  0.00  0.00    +0.000 OA
ATOM     17  O   UNL     1       6.889   5.152  19.864  0.00  0.00    +0.000 OA
BRANCH  15  18
ATOM     18  N   UNL     1       6.219   4.017  17.726  0.00  0.00    +0.000 N 
ATOM     19  C   UNL     1       6.256   4.256  16.340  0.00  0.00    +0.000 A 
ATOM     20  C   UNL     1       7.387   4.705  15.680  0.00  0.00    +0.000 A 
ATOM     21  C   UNL     1       7.316   4.845  14.295  0.00  0.00    +0.000 A 
ATOM     22  C   UNL     1       6.118   4.559  13.645  0.00  0.00    +0.000 A 
ATOM     23  C   UNL     1       5.039   4.143  14.408  0.00  0.00    +0.000 A 
ATOM     24  N   UNL     1       5.085   3.975  15.748  0.00  0.00    +0.000 NA
ATOM     25  H   UNL     1       5.513   3.318  17.934  0.00  0.00    +0.000 HD
ENDBRANCH  15  18
ENDBRANCH   7  15
TORSDOF 3
ENDMDL
MODEL 3
REMARK VINA RESULT:      -7.9      1.437      1.689
REMARK  Name = 
REMARK  6 active torsions:
REMARK  status: ('A' for Active; 'I' for Inactive)
REMARK    1  A    between atoms: C_1  and  C_2
REMARK    2  A    between atoms: C_5  and  C_6
REMARK    3  A    between atoms: C_9  and  C_10
REMARK    4  A    between atoms: C_11  and  C_12
REMARK    5  A    between atoms: C_14  and  S_15
REMARK    6  A    between atoms: S_15  and  N_18
REMARK                            x       y       z     vdW  Elec       q    Type
REMARK                         _______ _______ _______ _____ _____    ______ ____
ROOT
ATOM      1  C   UNL     1       3.639   2.846  20.376  0.00  0.00    +0.000 C 
ATOM      2  C   UNL     1       3.191   4.210  19.936  0.00  0.00    +0.000 A 
ATOM      3  C   UNL     1       2.210   4.856  20.709  0.00  0.00    +0.000 A 
ATOM      4  C   UNL     1       1.774   6.148  20.405  0.00  0.00    +0.000 A 
ATOM      5  C   UNL     1       2.307   6.844  19.318  0.00  0.00    +0.000 A 
ATOM      6  C   UNL     1       3.251   6.192  18.517  0.00  0.00    +0.000 A 
ATOM      7  C   UNL     1       3.696   4.891  18.812  0.00  0.00    +0.000 A 
ENDROOT
BRANCH   5   8
ATOM      8  C   UNL     1       1.938   8.230  19.060  0.00  0.00    +0.000 A 
ATOM      9  O   UNL     1       2.373   8.750  17.878  0.00  0.00    +0.000 OA
ATOM     10  N   UNL     1       1.916  10.045  17.736  0.00  0.00    +0.000 NA
ATOM     11  C   UNL     1       1.200  10.298  18.836  0.00  0.00    +0.000 A 
ATOM     12  C   UNL     1       0.517  11.603  18.996  0.00  0.00    +0.000 C 
ATOM     13  C   UNL     1       1.194   9.188  19.727  0.00  0.00    +0.000 A 
ATOM     14  C   UNL     1       0.496   9.079  21.030  0.00  0.00    +0.000 C 
ENDBRANCH   5   8
BRANCH   7  15
ATOM     15  S   UNL     1       4.997   4.250  17.754  0.00  0.00    +0.000 S 
ATOM     16  O   UNL     1       6.228   4.250  18.516  0.00  0.00    +0.000 OA
ATOM     17  O   UNL     1       4.525   3.023  17.145  0.00  0.00    +0.000 OA
BRANCH  15  18
ATOM     18  N   UNL     1       5.126   5.378  16.513  0.00  0.00    +0.000 N 
ATOM     19  C   UNL     1       5.738   4.946  15.322  0.00  0.00    +0.000 A 
ATOM     20  C   UNL     1       5.075   4.209  14.355  0.00  0.00    +0.000 A 
ATOM     21  C   UNL     1       5.771   3.894  13.190  0.00  0.00    +0.000 A 
ATOM     22  C   UNL     1       7.096   4.302  13.060  0.00  0.00    +0.000 A 
ATOM     23  C   UNL     1       7.671   5.011  14.102  0.00  0.00    +0.000 A 
ATOM     24  N   UNL     1       7.013   5.352  15.233  0.00  0.00    +0.000 NA
ATOM     25  H   UNL     1       5.588   6.217  16.849  0.00  0.00    +0.000 HD
ENDBRANCH  15  18
ENDBRANCH   7  15
TORSDOF 3
ENDMDL
MODEL 4
REMARK VINA RESULT:      -7.7      1.792      2.039
REMARK  Name = 
REMARK  6 active torsions:
REMARK  status: ('A' for Active; 'I' for Inactive)
REMARK    1  A    between atoms: C_1  and  C_2
REMARK    2  A    between atoms: C_5  and  C_6
REMARK    3  A    between atoms: C_9  and  C_10
REMARK    4  A    between atoms: C_11  and  C_12
REMARK    5  A    between atoms: C_14  and  S_15
REMARK    6  A    between atoms: S_15  and  N_18
REMARK                            x       y       z     vdW  Elec       q    Type
REMARK                         _______ _______ _______ _____ _____    ______ ____
ROOT
ATOM      1  C   UNL     1       4.689   2.965  18.555  0.00  0.00    +0.000 C 
ATOM      2  C   UNL     1       4.062   4.327  18.448  0.00  0.00    +0.000 A 
ATOM      3  C   UNL     1       2.797   4.511  19.031  0.00  0.00    +0.000 A 
ATOM      4  C   UNL     1       2.164   5.757  19.027  0.00  0.00    +0.000 A 
ATOM      5  C   UNL     1       2.778   6.867  18.441  0.00  0.00    +0.000 A 
ATOM      6  C   UNL     1       4.018   6.682  17.819  0.00  0.00    +0.000 A 
ATOM      7  C   UNL     1       4.662   5.432  17.815  0.00  0.00    +0.000 A 
ENDROOT
BRANCH   5   8
ATOM      8  C   UNL     1       2.176   8.191  18.529  0.00  0.00    +0.000 A 
ATOM      9  O   UNL     1       2.244   8.949  17.399  0.00  0.00    +0.000 OA
ATOM     10  N   UNL     1       1.597  10.152  17.599  0.00  0.00    +0.000 NA
ATOM     11  C   UNL     1       1.134  10.109  18.853  0.00  0.00    +0.000 A 
ATOM     12  C   UNL     1       0.339  11.237  19.392  0.00  0.00    +0.000 C 
ATOM     13  C   UNL     1       1.489   8.894  19.503  0.00  0.00    +0.000 A 
ATOM     14  C   UNL     1       1.141   8.471  20.881  0.00  0.00    +0.000 C 
ENDBRANCH   5   8
BRANCH   7  15
ATOM     15  S   UNL     1       6.300   5.398  17.079  0.00  0.00    +0.000 S 
ATOM     16  O   UNL     1       7.156   6.263  17.863  0.00  0.00    +0.000 OA
ATOM     17  O   UNL     1       6.673   4.015  16.865  0.00  0.00    +0.000 OA
BRANCH  15  18
ATOM     18  N   UNL     1       6.092   6.077  15.554  0.00  0.00    +0.000 N 
ATOM     19  C   UNL     1       6.329   5.240  14.448  0.00  0.00    +0.000 A 
ATOM     20  C   UNL     1       5.403   4.323  13.981  0.00  0.00    +0.000 A 
ATOM     21  C   UNL     1       5.731   3.596  12.839  0.00  0.00    +0.000 A 
ATOM     22  C   UNL     1       6.971   3.798  12.239  0.00  0.00    +0.000 A 
ATOM     23  C   UNL     1       7.834   4.722  12.807  0.00  0.00    +0.000 A 
ATOM     24  N   UNL     1       7.533   5.458  13.899  0.00  0.00    +0.000 NA
ATOM     25  H   UNL     1       6.647   6.922  15.469  0.00  0.00    +0.000 HD
ENDBRANCH  15  18
ENDBRANCH   7  15
TORSDOF 3
ENDMDL
MODEL 5
REMARK VINA RESULT:      -7.7      1.442      1.513
REMARK  Name = 
REMARK  6 active torsions:
REMARK  status: ('A' for Active; 'I' for Inactive)
REMARK    1  A    between atoms: C_1  and  C_2
REMARK    2  A    between atoms: C_5  and  C_6
REMARK    3  A    between atoms: C_9  and  C_10
REMARK    4  A    between atoms: C_11  and  C_12
REMARK    5  A    between atoms: C_14  and  S_15
REMARK    6  A    between atoms: S_15  and  N_18
REMARK                            x       y       z     vdW  Elec       q    Type
REMARK                         _______ _______ _______ _____ _____    ______ ____
ROOT
ATOM      1  C   UNL     1       4.198   2.670  17.378  0.00  0.00    +0.000 C 
ATOM      2  C   UNL     1       3.641   3.979  17.861  0.00  0.00    +0.000 A 
ATOM      3  C   UNL     1       2.346   3.976  18.408  0.00  0.00    +0.000 A 
ATOM      4  C   UNL     1       1.771   5.138  18.931  0.00  0.00    +0.000 A 
ATOM      5  C   UNL     1       2.474   6.346  18.928  0.00  0.00    +0.000 A 
ATOM      6  C   UNL     1       3.745   6.367  18.344  0.00  0.00    +0.000 A 
ATOM      7  C   UNL     1       4.333   5.204  17.813  0.00  0.00    +0.000 A 
ENDROOT
BRANCH   5   8
ATOM      8  C   UNL     1       1.926   7.534  19.569  0.00  0.00    +0.000 A 
ATOM      9  O   UNL     1       1.674   7.424  20.904  0.00  0.00    +0.000 OA
ATOM     10  N   UNL     1       1.207   8.627  21.396  0.00  0.00    +0.000 NA
ATOM     11  C   UNL     1       1.186   9.461  20.351  0.00  0.00    +0.000 A 
ATOM     12  C   UNL     1       0.773  10.872  20.532  0.00  0.00    +0.000 C 
ATOM     13  C   UNL     1       1.613   8.816  19.156  0.00  0.00    +0.000 A 
ATOM     14  C   UNL     1       1.746   9.414  17.805  0.00  0.00    +0.000 C 
ENDBRANCH   5   8
BRANCH   7  15
ATOM     15  S   UNL     1       6.016   5.382  17.213  0.00  0.00    +0.000 S 
ATOM     16  O   UNL     1       6.695   6.330  18.071  0.00  0.00    +0.000 OA
ATOM     17  O   UNL     1       6.571   4.059  17.018  0.00  0.00    +0.000 OA
BRANCH  15  18
ATOM     18  N   UNL     1       5.849   6.059  15.682  0.00  0.00    +0.000 N 
ATOM     19  C   UNL     1       6.162   5.235  14.585  0.00  0.00    +0.000 A 
ATOM     20  C   UNL     1       5.290   4.287  14.077  0.00  0.00    +0.000 A 
ATOM     21  C   UNL     1       5.692   3.576  12.948  0.00  0.00    +0.000 A 
ATOM     22  C   UNL     1       6.948   3.824  12.403  0.00  0.00    +0.000 A 
ATOM     23  C   UNL     1       7.753   4.776  13.009  0.00  0.00    +0.000 A 
ATOM     24  N   UNL     1       7.381   5.497  14.089  0.00  0.00    +0.000 NA
ATOM     25  H   UNL     1       6.377   6.924  15.622  0.00  0.00    +0.000 HD
ENDBRANCH  15  18
ENDBRANCH   7  15
TORSDOF 3
ENDMDL
MODEL 6
REMARK VINA RESULT:      -7.7      2.125      2.660
REMARK  Name = 
REMARK  6 active torsions:
REMARK  status: ('A' for Active; 'I' for Inactive)
REMARK    1  A    between atoms: C_1  and  C_2
REMARK    2  A    between atoms: C_5  and  C_6
REMARK    3  A    between atoms: C_9  and  C_10
REMARK    4  A    between atoms: C_11  and  C_12
REMARK    5  A    between atoms: C_14  and  S_15
REMARK    6  A    between atoms: S_15  and  N_18
REMARK                            x       y       z     vdW  Elec       q    Type
REMARK                         _______ _______ _______ _____ _____    ______ ____
ROOT
ATOM      1  C   UNL     1       5.454   4.152  18.559  0.00  0.00    +0.000 C 
ATOM      2  C   UNL     1       4.449   5.269  18.570  0.00  0.00    +0.000 A 
ATOM      3  C   UNL     1       3.460   5.247  19.569  0.00  0.00    +0.000 A 
ATOM      4  C   UNL     1       2.519   6.274  19.687  0.00  0.00    +0.000 A 
ATOM      5  C   UNL     1       2.536   7.363  18.812  0.00  0.00    +0.000 A 
ATOM      6  C   UNL     1       3.489   7.369  17.788  0.00  0.00    +0.000 A 
ATOM      7  C   UNL     1       4.439   6.341  17.657  0.00  0.00    +0.000 A 
ENDROOT
BRANCH   5   8
ATOM      8  C   UNL     1       1.630   8.488  18.997  0.00  0.00    +0.000 A 
ATOM      9  O   UNL     1       1.212   9.107  17.857  0.00  0.00    +0.000 OA
ATOM     10  N   UNL     1       0.324  10.118  18.168  0.00  0.00    +0.000 NA
ATOM     11  C   UNL     1       0.206  10.099  19.499  0.00  0.00    +0.000 A 
ATOM     12  C   UNL     1      -0.717  11.037  20.179  0.00  0.00    +0.000 C 
ATOM     13  C   UNL     1       1.030   9.097  20.085  0.00  0.00    +0.000 A 
ATOM     14  C   UNL     1       1.153   8.757  21.523  0.00  0.00    +0.000 C 
ENDBRANCH   5   8
BRANCH   7  15
ATOM     15  S   UNL     1       5.664   6.566  16.363  0.00  0.00    +0.000 S 
ATOM     16  O   UNL     1       4.984   7.080  15.193  0.00  0.00    +0.000 OA
ATOM     17  O   UNL     1       6.787   7.290  16.922  0.00  0.00    +0.000 OA
BRANCH  15  18
ATOM     18  N   UNL     1       6.218   5.013  16.031  0.00  0.00    +0.000 N 
ATOM     19  C   UNL     1       6.381   4.672  14.676  0.00  0.00    +0.000 A 
ATOM     20  C   UNL     1       7.486   5.044  13.930  0.00  0.00    +0.000 A 
ATOM     21  C   UNL     1       7.562   4.593  12.614  0.00  0.00    +0.000 A 
ATOM     22  C   UNL     1       6.522   3.822  12.101  0.00  0.00    +0.000 A 
ATOM     23  C   UNL     1       5.448   3.532  12.927  0.00  0.00    +0.000 A 
ATOM     24  N   UNL     1       5.359   3.935  14.214  0.00  0.00    +0.000 NA
ATOM     25  H   UNL     1       5.626   4.325  16.488  0.00  0.00    +0.000 HD
ENDBRANCH  15  18
ENDBRANCH   7  15
TORSDOF 3
ENDMDL
MODEL 7
REMARK VINA RESULT:      -7.6      2.372      2.838
REMARK  Name = 
REMARK  6 active torsions:
REMARK  status: ('A' for Active; 'I' for Inactive)
REMARK    1  A    between atoms: C_1  and  C_2
REMARK    2  A    between atoms: C_5  and  C_6
REMARK    3  A    between atoms: C_9  and  C_10
REMARK    4  A    between atoms: C_11  and  C_12
REMARK    5  A    between atoms: C_14  and  S_15
REMARK    6  A    between atoms: S_15  and  N_18
REMARK                            x       y       z     vdW  Elec       q    Type
REMARK                         _______ _______ _______ _____ _____    ______ ____
ROOT
ATOM      1  C   UNL     1       2.792   2.536  20.831  0.00  0.00    +0.000 C 
ATOM      2  C   UNL     1       2.498   3.911  20.303  0.00  0.00    +0.000 A 
ATOM      3  C   UNL     1       2.107   4.896  21.226  0.00  0.00    +0.000 A 
ATOM      4  C   UNL     1       1.866   6.215  20.830  0.00  0.00    +0.000 A 
ATOM      5  C   UNL     1       2.012   6.597  19.494  0.00  0.00    +0.000 A 
ATOM      6  C   UNL     1       2.357   5.613  18.561  0.00  0.00    +0.000 A 
ATOM      7  C   UNL     1       2.599   4.282  18.948  0.00  0.00    +0.000 A 
ENDROOT
BRANCH   5   8
ATOM      8  C   UNL     1       1.870   7.990  19.093  0.00  0.00    +0.000 A 
ATOM      9  O   UNL     1       2.487   8.337  17.928  0.00  0.00    +0.000 OA
ATOM     10  N   UNL     1       2.235   9.664  17.639  0.00  0.00    +0.000 NA
ATOM     11  C   UNL     1       1.459  10.109  18.632  0.00  0.00    +0.000 A 
ATOM     12  C   UNL     1       0.956  11.502  18.617  0.00  0.00    +0.000 C 
ATOM     13  C   UNL     1       1.209   9.095  19.599  0.00  0.00    +0.000 A 
ATOM     14  C   UNL     1       0.380   9.200  20.824  0.00  0.00    +0.000 C 
ENDBRANCH   5   8
BRANCH   7  15
ATOM     15  S   UNL     1       3.149   3.176  17.645  0.00  0.00    +0.000 S 
ATOM     16  O   UNL     1       2.476   1.907  17.827  0.00  0.00    +0.000 OA
ATOM     17  O   UNL     1       3.042   3.874  16.380  0.00  0.00    +0.000 OA
BRANCH  15  18
ATOM     18  N   UNL     1       4.793   2.966  17.935  0.00  0.00    +0.000 N 
ATOM     19  C   UNL     1       5.612   4.102  17.803  0.00  0.00    +0.000 A 
ATOM     20  C   UNL     1       5.733   5.067  18.789  0.00  0.00    +0.000 A 
ATOM     21  C   UNL     1       6.624   6.114  18.565  0.00  0.00    +0.000 A 
ATOM     22  C   UNL     1       7.325   6.163  17.363  0.00  0.00    +0.000 A 
ATOM     23  C   UNL     1       7.106   5.159  16.432  0.00  0.00    +0.000 A 
ATOM     24  N   UNL     1       6.267   4.119  16.632  0.00  0.00    +0.000 NA
ATOM     25  H   UNL     1       5.156   2.214  17.359  0.00  0.00    +0.000 HD
ENDBRANCH  15  18
ENDBRANCH   7  15
TORSDOF 3
ENDMDL
MODEL 8
REMARK VINA RESULT:      -7.6      2.335      2.534
REMARK  Name = 
REMARK  6 active torsions:
REMARK  status: ('A' for Active; 'I' for Inactive)
REMARK    1  A    between atoms: C_1  and  C_2
REMARK    2  A    between atoms: C_5  and  C_6
REMARK    3  A    between atoms: C_9  and  C_10
REMARK    4  A    between atoms: C_11  and  C_12
REMARK    5  A    between atoms: C_14  and  S_15
REMARK    6  A    between atoms: S_15  and  N_18
REMARK                            x       y       z     vdW  Elec       q    Type
REMARK                         _______ _______ _______ _____ _____    ______ ____
ROOT
ATOM      1  C   UNL     1       2.580   2.407  21.142  0.00  0.00    +0.000 C 
ATOM      2  C   UNL     1       2.347   3.758  20.528  0.00  0.00    +0.000 A 
ATOM      3  C   UNL     1       1.929   4.798  21.377  0.00  0.00    +0.000 A 
ATOM      4  C   UNL     1       1.742   6.099  20.900  0.00  0.00    +0.000 A 
ATOM      5  C   UNL     1       1.970   6.407  19.557  0.00  0.00    +0.000 A 
ATOM      6  C   UNL     1       2.343   5.368  18.697  0.00  0.00    +0.000 A 
ATOM      7  C   UNL     1       2.532   4.055  19.164  0.00  0.00    +0.000 A 
ENDROOT
BRANCH   5   8
ATOM      8  C   UNL     1       1.884   7.780  19.077  0.00  0.00    +0.000 A 
ATOM      9  O   UNL     1       2.307   7.989  17.799  0.00  0.00    +0.000 OA
ATOM     10  N   UNL     1       2.127   9.314  17.454  0.00  0.00    +0.000 NA
ATOM     11  C   UNL     1       1.587   9.897  18.529  0.00  0.00    +0.000 A 
ATOM     12  C   UNL     1       1.216  11.331  18.491  0.00  0.00    +0.000 C 
ATOM     13  C   UNL     1       1.427   8.976  19.602  0.00  0.00    +0.000 A 
ATOM     14  C   UNL     1       0.847   9.241  20.941  0.00  0.00    +0.000 C 
ENDBRANCH   5   8
BRANCH   7  15
ATOM     15  S   UNL     1       3.127   2.871  17.953  0.00  0.00    +0.000 S 
ATOM     16  O   UNL     1       2.971   1.546  18.514  0.00  0.00    +0.000 OA
ATOM     17  O   UNL     1       2.526   3.188  16.674  0.00  0.00    +0.000 OA
BRANCH  15  18
ATOM     18  N   UNL     1       4.768   3.208  17.804  0.00  0.00    +0.000 N 
ATOM     19  C   UNL     1       5.156   4.019  16.721  0.00  0.00    +0.000 A 
ATOM     20  C   UNL     1       5.045   5.399  16.732  0.00  0.00    +0.000 A 
ATOM     21  C   UNL     1       5.521   6.095  15.623  0.00  0.00    +0.000 A 
ATOM     22  C   UNL     1       6.053   5.383  14.552  0.00  0.00    +0.000 A 
ATOM     23  C   UNL     1       6.089   4.000  14.634  0.00  0.00    +0.000 A 
ATOM     24  N   UNL     1       5.658   3.300  15.706  0.00  0.00    +0.000 NA
ATOM     25  H   UNL     1       5.303   2.345  17.793  0.00  0.00    +0.000 HD
ENDBRANCH  15  18
ENDBRANCH   7  15
TORSDOF 3
ENDMDL
MODEL 9
REMARK VINA RESULT:      -7.5      1.385      1.838
REMARK  Name = 
REMARK  6 active torsions:
REMARK  status: ('A' for Active; 'I' for Inactive)
REMARK    1  A    between atoms: C_1  and  C_2
REMARK    2  A    between atoms: C_5  and  C_6
REMARK    3  A    between atoms: C_9  and  C_10
REMARK    4  A    between atoms: C_11  and  C_12
REMARK    5  A    between atoms: C_14  and  S_15
REMARK    6  A    between atoms: S_15  and  N_18
REMARK                            x       y       z     vdW  Elec       q    Type
REMARK                         _______ _______ _______ _____ _____    ______ ____
ROOT
ATOM      1  C   UNL     1       4.276   2.896  20.085  0.00  0.00    +0.000 C 
ATOM      2  C   UNL     1       3.651   4.245  19.867  0.00  0.00    +0.000 A 
ATOM      3  C   UNL     1       2.320   4.423  20.284  0.00  0.00    +0.000 A 
ATOM      4  C   UNL     1       1.678   5.659  20.170  0.00  0.00    +0.000 A 
ATOM      5  C   UNL     1       2.346   6.764  19.638  0.00  0.00    +0.000 A 
ATOM      6  C   UNL     1       3.656   6.585  19.180  0.00  0.00    +0.000 A 
ATOM      7  C   UNL     1       4.312   5.345  19.287  0.00  0.00    +0.000 A 
ENDROOT
BRANCH   5   8
ATOM      8  C   UNL     1       1.721   8.080  19.618  0.00  0.00    +0.000 A 
ATOM      9  O   UNL     1       1.611   8.665  18.392  0.00  0.00    +0.000 OA
ATOM     10  N   UNL     1       0.961   9.878  18.506  0.00  0.00    +0.000 NA
ATOM     11  C   UNL     1       0.675  10.015  19.805  0.00  0.00    +0.000 A 
ATOM     12  C   UNL     1      -0.073  11.201  20.282  0.00  0.00    +0.000 C 
ATOM     13  C   UNL     1       1.153   8.912  20.566  0.00  0.00    +0.000 A 
ATOM     14  C   UNL     1       1.009   8.692  22.026  0.00  0.00    +0.000 C 
ENDBRANCH   5   8
BRANCH   7  15
ATOM     15  S   UNL     1       6.029   5.319  18.763  0.00  0.00    +0.000 S 
ATOM     16  O   UNL     1       6.270   6.511  17.976  0.00  0.00    +0.000 OA
ATOM     17  O   UNL     1       6.854   5.039  19.920  0.00  0.00    +0.000 OA
BRANCH  15  18
ATOM     18  N   UNL     1       6.144   3.974  17.759  0.00  0.00    +0.000 N 
ATOM     19  C   UNL     1       6.220   4.217  16.376  0.00  0.00    +0.000 A 
ATOM     20  C   UNL     1       7.392   4.585  15.736  0.00  0.00    +0.000 A 
ATOM     21  C   UNL     1       7.354   4.736  14.352  0.00  0.00    +0.000 A 
ATOM     22  C   UNL     1       6.149   4.544  13.681  0.00  0.00    +0.000 A 
ATOM     23  C   UNL     1       5.029   4.205  14.424  0.00  0.00    +0.000 A 
ATOM     24  N   UNL     1       5.042   4.028  15.764  0.00  0.00    +0.000 NA
ATOM     25  H   UNL     1       5.384   3.328  17.952  0.00  0.00    +0.000 HD
ENDBRANCH  15  18
ENDBRANCH   7  15
TORSDOF 3
ENDMDL
