MODEL 1
REMARK VINA RESULT:      -7.6      0.000      0.000
REMARK  Name = 
REMARK  7 active torsions:
REMARK  status: ('A' for Active; 'I' for Inactive)
REMARK    1  A    between atoms: C_1  and  N_2
REMARK    2  A    between atoms: N_2  and  C_3
REMARK    3  A    between atoms: N_2  and  S_4
REMARK    4  A    between atoms: S_4  and  N_7
REMARK    5  A    between atoms: C_9  and  O_10
REMARK    6  A    between atoms: O_10  and  C_11
REMARK    7  A    between atoms: C_18  and  C_19
REMARK                            x       y       z     vdW  Elec       q    Type
REMARK                         _______ _______ _______ _____ _____    ______ ____
ROOT
ATOM      1  N   UNL     1       2.760   5.230  19.372  0.00  0.00    +0.000 NA
ATOM      2  C   UNL     1       2.365   6.308  20.297  0.00  0.00    +0.000 C 
ATOM      3  C   UNL     1       1.869   7.407  19.362  0.00  0.00    +0.000 C 
ATOM      4  C   UNL     1       2.988   7.398  18.321  0.00  0.00    +0.000 C 
ATOM      5  C   UNL     1       3.384   5.917  18.185  0.00  0.00    +0.000 C 
ENDROOT
BRANCH   5   6
ATOM      6  C   UNL     1       4.909   5.666  18.289  0.00  0.00    +0.000 C 
ATOM      7  O   UNL     1       5.430   5.343  19.362  0.00  0.00    +0.000 OA
ATOM      8  N   UNL     1       5.690   5.793  17.151  0.00  0.00    +0.000 N 
ATOM      9  C   UNL     1       5.239   6.109  15.793  0.00  0.00    +0.000 C 
ATOM     10  C   UNL     1       5.623   4.981  14.830  0.00  0.00    +0.000 C 
ATOM     11  O   UNL     1       7.031   4.708  14.887  0.00  0.00    +0.000 OA
ATOM     12  C   UNL     1       7.429   4.331  16.216  0.00  0.00    +0.000 C 
ATOM     13  C   UNL     1       7.114   5.447  17.218  0.00  0.00    +0.000 C 
ENDBRANCH   5   6
BRANCH   1  14
ATOM     14  S   UNL     1       1.622   4.058  19.002  0.00  0.00    +0.000 S 
ATOM     15  O   UNL     1       1.259   4.208  17.613  0.00  0.00    +0.000 OA
ATOM     16  O   UNL     1       0.607   4.074  20.032  0.00  0.00    +0.000 OA
BRANCH  14  18
ATOM     17  C   UNL     1       3.120   2.198  17.871  0.00  0.00    +0.000 C 
ATOM     18  N   UNL     1       2.517   2.627  19.160  0.00  0.00    +0.000 NA
ATOM     19  C   UNL     1       3.542   2.652  20.230  0.00  0.00    +0.000 C 
ENDBRANCH  14  18
ENDBRANCH   1  14
BRANCH   3  20
ATOM     20  O   UNL     1       1.753   8.695  19.960  0.00  0.00    +0.000 OA
BRANCH  20  21
ATOM     21  C   UNL     1       0.702   9.443  19.484  0.00  0.00    +0.000 A 
ATOM     22  C   UNL     1       0.293   9.464  18.149  0.00  0.00    +0.000 A 
ATOM     23  C   UNL     1      -0.799  10.230  17.747  0.00  0.00    +0.000 A 
ATOM     24  C   UNL     1      -1.488  10.993  18.683  0.00  0.00    +0.000 A 
ATOM     25  C   UNL     1      -1.091  10.980  20.017  0.00  0.00    +0.000 A 
ATOM     26  C   UNL     1      -0.005  10.194  20.421  0.00  0.00    +0.000 A 
ENDBRANCH  20  21
ENDBRANCH   3  20
TORSDOF 5
ENDMDL
MODEL 2
REMARK VINA RESULT:      -7.1      0.540      1.264
REMARK  Name = 
REMARK  7 active torsions:
REMARK  status: ('A' for Active; 'I' for Inactive)
REMARK    1  A    between atoms: C_1  and  N_2
REMARK    2  A    between atoms: N_2  and  C_3
REMARK    3  A    between atoms: N_2  and  S_4
REMARK    4  A    between atoms: S_4  and  N_7
REMARK    5  A    between atoms: C_9  and  O_10
REMARK    6  A    between atoms: O_10  and  C_11
REMARK    7  A    between atoms: C_18  and  C_19
REMARK                            x       y       z     vdW  Elec       q    Type
REMARK                         _______ _______ _______ _____ _____    ______ ____
ROOT
ATOM      1  N   UNL     1       2.773   5.635  19.359  0.00  0.00    +0.000 NA
ATOM      2  C   UNL     1       2.402   6.861  20.088  0.00  0.00    +0.000 C 
ATOM      3  C   UNL     1       1.923   7.795  18.980  0.00  0.00    +0.000 C 
ATOM      4  C   UNL     1       3.038   7.589  17.956  0.00  0.00    +0.000 C 
ATOM      5  C   UNL     1       3.406   6.099  18.073  0.00  0.00    +0.000 C 
ENDROOT
BRANCH   5   6
ATOM      6  C   UNL     1       4.927   5.840  18.218  0.00  0.00    +0.000 C 
ATOM      7  O   UNL     1       5.426   5.575  19.317  0.00  0.00    +0.000 OA
ATOM      8  N   UNL     1       5.728   5.895  17.088  0.00  0.00    +0.000 N 
ATOM      9  C   UNL     1       5.304   6.136  15.707  0.00  0.00    +0.000 C 
ATOM     10  C   UNL     1       5.693   4.951  14.817  0.00  0.00    +0.000 C 
ATOM     11  O   UNL     1       7.097   4.668  14.914  0.00  0.00    +0.000 OA
ATOM     12  C   UNL     1       7.468   4.365  16.270  0.00  0.00    +0.000 C 
ATOM     13  C   UNL     1       7.148   5.540  17.200  0.00  0.00    +0.000 C 
ENDBRANCH   5   6
BRANCH   1  14
ATOM     14  S   UNL     1       1.612   4.439  19.193  0.00  0.00    +0.000 S 
ATOM     15  O   UNL     1       1.171   4.431  17.818  0.00  0.00    +0.000 OA
ATOM     16  O   UNL     1       0.659   4.583  20.270  0.00  0.00    +0.000 OA
BRANCH  14  18
ATOM     17  C   UNL     1       2.887   2.868  20.892  0.00  0.00    +0.000 C 
ATOM     18  N   UNL     1       2.511   3.028  19.463  0.00  0.00    +0.000 NA
ATOM     19  C   UNL     1       1.887   1.786  18.948  0.00  0.00    +0.000 C 
ENDBRANCH  14  18
ENDBRANCH   1  14
BRANCH   3  20
ATOM     20  O   UNL     1       1.833   9.167  19.351  0.00  0.00    +0.000 OA
BRANCH  20  21
ATOM     21  C   UNL     1       0.597   9.729  19.133  0.00  0.00    +0.000 A 
ATOM     22  C   UNL     1      -0.087  10.511  20.066  0.00  0.00    +0.000 A 
ATOM     23  C   UNL     1      -1.327  11.068  19.762  0.00  0.00    +0.000 A 
ATOM     24  C   UNL     1      -1.901  10.836  18.517  0.00  0.00    +0.000 A 
ATOM     25  C   UNL     1      -1.229  10.058  17.577  0.00  0.00    +0.000 A 
ATOM     26  C   UNL     1       0.026   9.517  17.879  0.00  0.00    +0.000 A 
ENDBRANCH  20  21
ENDBRANCH   3  20
TORSDOF 5
ENDMDL
MODEL 3
REMARK VINA RESULT:      -6.9      2.124      7.103
REMARK  Name = 
REMARK  7 active torsions:
REMARK  status: ('A' for Active; 'I' for Inactive)
REMARK    1  A    between atoms: C_1  and  N_2
REMARK    2  A    between atoms: N_2  and  C_3
REMARK    3  A    between atoms: N_2  and  S_4
REMARK    4  A    between atoms: S_4  and  N_7
REMARK    5  A    between atoms: C_9  and  O_10
REMARK    6  A    between atoms: O_10  and  C_11
REMARK    7  A    between atoms: C_18  and  C_19
REMARK                            x       y       z     vdW  Elec       q    Type
REMARK                         _______ _______ _______ _____ _____    ______ ____
ROOT
ATOM      1  N   UNL     1       4.183   5.919  18.140  0.00  0.00    +0.000 NA
ATOM      2  C   UNL     1       5.480   6.330  17.572  0.00  0.00    +0.000 C 
ATOM      3  C   UNL     1       5.526   5.594  16.236  0.00  0.00    +0.000 C 
ATOM      4  C   UNL     1       5.070   4.204  16.681  0.00  0.00    +0.000 C 
ATOM      5  C   UNL     1       4.014   4.468  17.769  0.00  0.00    +0.000 C 
ENDROOT
BRANCH   5   6
ATOM      6  C   UNL     1       4.242   3.658  19.070  0.00  0.00    +0.000 C 
ATOM      7  O   UNL     1       5.342   3.655  19.635  0.00  0.00    +0.000 OA
ATOM      8  N   UNL     1       3.185   2.941  19.609  0.00  0.00    +0.000 N 
ATOM      9  C   UNL     1       1.809   2.876  19.111  0.00  0.00    +0.000 C 
ATOM     10  C   UNL     1       0.833   3.374  20.182  0.00  0.00    +0.000 C 
ATOM     11  O   UNL     1       1.002   2.653  21.412  0.00  0.00    +0.000 OA
ATOM     12  C   UNL     1       2.343   2.796  21.911  0.00  0.00    +0.000 C 
ATOM     13  C   UNL     1       3.363   2.265  20.899  0.00  0.00    +0.000 C 
ENDBRANCH   5   6
BRANCH   1  14
ATOM     14  S   UNL     1       2.852   6.891  17.840  0.00  0.00    +0.000 S 
ATOM     15  O   UNL     1       1.743   6.038  17.489  0.00  0.00    +0.000 OA
ATOM     16  O   UNL     1       3.265   7.960  16.958  0.00  0.00    +0.000 OA
BRANCH  14  18
ATOM     17  C   UNL     1       1.641   8.734  19.296  0.00  0.00    +0.000 C 
ATOM     18  N   UNL     1       2.542   7.554  19.369  0.00  0.00    +0.000 NA
ATOM     19  C   UNL     1       2.048   6.585  20.376  0.00  0.00    +0.000 C 
ENDBRANCH  14  18
ENDBRANCH   1  14
BRANCH   3  20
ATOM     20  O   UNL     1       6.814   5.527  15.632  0.00  0.00    +0.000 OA
BRANCH  20  21
ATOM     21  C   UNL     1       6.820   4.961  14.380  0.00  0.00    +0.000 A 
ATOM     22  C   UNL     1       5.975   3.922  13.983  0.00  0.00    +0.000 A 
ATOM     23  C   UNL     1       6.023   3.416  12.685  0.00  0.00    +0.000 A 
ATOM     24  C   UNL     1       6.931   3.942  11.773  0.00  0.00    +0.000 A 
ATOM     25  C   UNL     1       7.778   4.979  12.156  0.00  0.00    +0.000 A 
ATOM     26  C   UNL     1       7.714   5.498  13.455  0.00  0.00    +0.000 A 
ENDBRANCH  20  21
ENDBRANCH   3  20
TORSDOF 5
ENDMDL
MODEL 4
REMARK VINA RESULT:      -6.9      1.222      1.712
REMARK  Name = 
REMARK  7 active torsions:
REMARK  status: ('A' for Active; 'I' for Inactive)
REMARK    1  A    between atoms: C_1  and  N_2
REMARK    2  A    between atoms: N_2  and  C_3
REMARK    3  A    between atoms: N_2  and  S_4
REMARK    4  A    between atoms: S_4  and  N_7
REMARK    5  A    between atoms: C_9  and  O_10
REMARK    6  A    between atoms: O_10  and  C_11
REMARK    7  A    between atoms: C_18  and  C_19
REMARK                            x       y       z     vdW  Elec       q    Type
REMARK                         _______ _______ _______ _____ _____    ______ ____
ROOT
ATOM      1  N   UNL     1       2.826   5.645  19.521  0.00  0.00    +0.000 NA
ATOM      2  C   UNL     1       2.427   6.901  20.185  0.00  0.00    +0.000 C 
ATOM      3  C   UNL     1       1.858   7.735  19.041  0.00  0.00    +0.000 C 
ATOM      4  C   UNL     1       2.937   7.509  17.982  0.00  0.00    +0.000 C 
ATOM      5  C   UNL     1       3.380   6.049  18.180  0.00  0.00    +0.000 C 
ENDROOT
BRANCH   5   6
ATOM      6  C   UNL     1       4.916   5.869  18.272  0.00  0.00    +0.000 C 
ATOM      7  O   UNL     1       5.468   5.646  19.355  0.00  0.00    +0.000 OA
ATOM      8  N   UNL     1       5.672   5.946  17.113  0.00  0.00    +0.000 N 
ATOM      9  C   UNL     1       5.187   6.146  15.745  0.00  0.00    +0.000 C 
ATOM     10  C   UNL     1       5.602   4.968  14.857  0.00  0.00    +0.000 C 
ATOM     11  O   UNL     1       7.021   4.758  14.906  0.00  0.00    +0.000 OA
ATOM     12  C   UNL     1       7.456   4.494  16.252  0.00  0.00    +0.000 C 
ATOM     13  C   UNL     1       7.111   5.665  17.177  0.00  0.00    +0.000 C 
ENDBRANCH   5   6
BRANCH   1  14
ATOM     14  S   UNL     1       1.717   4.391  19.487  0.00  0.00    +0.000 S 
ATOM     15  O   UNL     1       1.304   4.194  18.118  0.00  0.00    +0.000 OA
ATOM     16  O   UNL     1       0.737   4.627  20.524  0.00  0.00    +0.000 OA
BRANCH  14  18
ATOM     17  C   UNL     1       2.449   2.681  21.365  0.00  0.00    +0.000 C 
ATOM     18  N   UNL     1       2.666   3.063  19.945  0.00  0.00    +0.000 NA
ATOM     19  C   UNL     1       2.540   1.877  19.064  0.00  0.00    +0.000 C 
ENDBRANCH  14  18
ENDBRANCH   1  14
BRANCH   3  20
ATOM     20  O   UNL     1       1.719   9.124  19.324  0.00  0.00    +0.000 OA
BRANCH  20  21
ATOM     21  C   UNL     1       0.919   9.399  20.408  0.00  0.00    +0.000 A 
ATOM     22  C   UNL     1       0.346   8.426  21.230  0.00  0.00    +0.000 A 
ATOM     23  C   UNL     1      -0.434   8.785  22.327  0.00  0.00    +0.000 A 
ATOM     24  C   UNL     1      -0.658  10.129  22.605  0.00  0.00    +0.000 A 
ATOM     25  C   UNL     1      -0.092  11.109  21.793  0.00  0.00    +0.000 A 
ATOM     26  C   UNL     1       0.707  10.745  20.703  0.00  0.00    +0.000 A 
ENDBRANCH  20  21
ENDBRANCH   3  20
TORSDOF 5
ENDMDL
MODEL 5
REMARK VINA RESULT:      -6.9      0.900      1.372
REMARK  Name = 
REMARK  7 active torsions:
REMARK  status: ('A' for Active; 'I' for Inactive)
REMARK    1  A    between atoms: C_1  and  N_2
REMARK    2  A    between atoms: N_2  and  C_3
REMARK    3  A    between atoms: N_2  and  S_4
REMARK    4  A    between atoms: S_4  and  N_7
REMARK    5  A    between atoms: C_9  and  O_10
REMARK    6  A    between atoms: O_10  and  C_11
REMARK    7  A    between atoms: C_18  and  C_19
REMARK                            x       y       z     vdW  Elec       q    Type
REMARK                         _______ _______ _______ _____ _____    ______ ____
ROOT
ATOM      1  N   UNL     1       2.691   4.531  19.460  0.00  0.00    +0.000 NA
ATOM      2  C   UNL     1       2.303   5.276  20.672  0.00  0.00    +0.000 C 
ATOM      3  C   UNL     1       1.878   6.636  20.125  0.00  0.00    +0.000 C 
ATOM      4  C   UNL     1       3.032   6.908  19.160  0.00  0.00    +0.000 C 
ATOM      5  C   UNL     1       3.379   5.531  18.567  0.00  0.00    +0.000 C 
ENDROOT
BRANCH   5   6
ATOM      6  C   UNL     1       4.890   5.192  18.619  0.00  0.00    +0.000 C 
ATOM      7  O   UNL     1       5.360   4.511  19.538  0.00  0.00    +0.000 OA
ATOM      8  N   UNL     1       5.717   5.651  17.605  0.00  0.00    +0.000 N 
ATOM      9  C   UNL     1       5.328   6.415  16.418  0.00  0.00    +0.000 C 
ATOM     10  C   UNL     1       5.708   5.650  15.146  0.00  0.00    +0.000 C 
ATOM     11  O   UNL     1       7.102   5.311  15.142  0.00  0.00    +0.000 OA
ATOM     12  C   UNL     1       7.437   4.501  16.282  0.00  0.00    +0.000 C 
ATOM     13  C   UNL     1       7.125   5.239  17.588  0.00  0.00    +0.000 C 
ENDBRANCH   5   6
BRANCH   1  14
ATOM     14  S   UNL     1       1.525   3.590  18.712  0.00  0.00    +0.000 S 
ATOM     15  O   UNL     1       1.125   4.255  17.495  0.00  0.00    +0.000 OA
ATOM     16  O   UNL     1       0.542   3.217  19.704  0.00  0.00    +0.000 OA
BRANCH  14  18
ATOM     17  C   UNL     1       3.044   2.332  16.952  0.00  0.00    +0.000 C 
ATOM     18  N   UNL     1       2.404   2.203  18.287  0.00  0.00    +0.000 NA
ATOM     19  C   UNL     1       3.394   1.763  19.298  0.00  0.00    +0.000 C 
ENDBRANCH  14  18
ENDBRANCH   1  14
BRANCH   3  20
ATOM     20  O   UNL     1       1.788   7.671  21.099  0.00  0.00    +0.000 OA
BRANCH  20  21
ATOM     21  C   UNL     1       0.989   8.726  20.726  0.00  0.00    +0.000 A 
ATOM     22  C   UNL     1       0.108   9.388  21.585  0.00  0.00    +0.000 A 
ATOM     23  C   UNL     1      -0.651  10.467  21.139  0.00  0.00    +0.000 A 
ATOM     24  C   UNL     1      -0.543  10.888  19.818  0.00  0.00    +0.000 A 
ATOM     25  C   UNL     1       0.331  10.237  18.951  0.00  0.00    +0.000 A 
ATOM     26  C   UNL     1       1.108   9.165  19.408  0.00  0.00    +0.000 A 
ENDBRANCH  20  21
ENDBRANCH   3  20
TORSDOF 5
ENDMDL
MODEL 6
REMARK VINA RESULT:      -6.5      1.766      6.207
REMARK  Name = 
REMARK  7 active torsions:
REMARK  status: ('A' for Active; 'I' for Inactive)
REMARK    1  A    between atoms: C_1  and  N_2
REMARK    2  A    between atoms: N_2  and  C_3
REMARK    3  A    between atoms: N_2  and  S_4
REMARK    4  A    between atoms: S_4  and  N_7
REMARK    5  A    between atoms: C_9  and  O_10
REMARK    6  A    between atoms: O_10  and  C_11
REMARK    7  A    between atoms: C_18  and  C_19
REMARK                            x       y       z     vdW  Elec       q    Type
REMARK                         _______ _______ _______ _____ _____    ______ ____
ROOT
ATOM      1  N   UNL     1       2.342   5.026  18.469  0.00  0.00    +0.000 NA
ATOM      2  C   UNL     1       3.468   4.526  17.659  0.00  0.00    +0.000 C 
ATOM      3  C   UNL     1       4.629   4.508  18.649  0.00  0.00    +0.000 C 
ATOM      4  C   UNL     1       4.449   5.880  19.297  0.00  0.00    +0.000 C 
ATOM      5  C   UNL     1       2.925   6.079  19.376  0.00  0.00    +0.000 C 
ENDROOT
BRANCH   5   6
ATOM      6  C   UNL     1       2.444   7.443  18.823  0.00  0.00    +0.000 C 
ATOM      7  O   UNL     1       2.570   7.727  17.626  0.00  0.00    +0.000 OA
ATOM      8  N   UNL     1       1.850   8.348  19.689  0.00  0.00    +0.000 N 
ATOM      9  C   UNL     1       1.568   8.160  21.114  0.00  0.00    +0.000 C 
ATOM     10  C   UNL     1       0.066   8.302  21.382  0.00  0.00    +0.000 C 
ATOM     11  O   UNL     1      -0.433   9.554  20.888  0.00  0.00    +0.000 OA
ATOM     12  C   UNL     1      -0.205   9.676  19.473  0.00  0.00    +0.000 C 
ATOM     13  C   UNL     1       1.291   9.593  19.151  0.00  0.00    +0.000 C 
ENDBRANCH   5   6
BRANCH   1  14
ATOM     14  S   UNL     1       1.358   3.900  19.224  0.00  0.00    +0.000 S 
ATOM     15  O   UNL     1       0.647   3.169  18.202  0.00  0.00    +0.000 OA
ATOM     16  O   UNL     1       0.638   4.568  20.284  0.00  0.00    +0.000 OA
BRANCH  14  18
ATOM     17  C   UNL     1       2.321   2.753  21.401  0.00  0.00    +0.000 C 
ATOM     18  N   UNL     1       2.489   2.851  19.928  0.00  0.00    +0.000 NA
ATOM     19  C   UNL     1       2.546   1.501  19.320  0.00  0.00    +0.000 C 
ENDBRANCH  14  18
ENDBRANCH   1  14
BRANCH   3  20
ATOM     20  O   UNL     1       5.920   4.401  18.055  0.00  0.00    +0.000 OA
BRANCH  20  21
ATOM     21  C   UNL     1       6.616   5.586  18.008  0.00  0.00    +0.000 A 
ATOM     22  C   UNL     1       6.375   6.603  17.081  0.00  0.00    +0.000 A 
ATOM     23  C   UNL     1       7.108   7.788  17.113  0.00  0.00    +0.000 A 
ATOM     24  C   UNL     1       8.100   7.960  18.071  0.00  0.00    +0.000 A 
ATOM     25  C   UNL     1       8.350   6.954  19.001  0.00  0.00    +0.000 A 
ATOM     26  C   UNL     1       7.599   5.773  18.979  0.00  0.00    +0.000 A 
ENDBRANCH  20  21
ENDBRANCH   3  20
TORSDOF 5
ENDMDL
MODEL 7
REMARK VINA RESULT:      -6.4      4.208      8.694
REMARK  Name = 
REMARK  7 active torsions:
REMARK  status: ('A' for Active; 'I' for Inactive)
REMARK    1  A    between atoms: C_1  and  N_2
REMARK    2  A    between atoms: N_2  and  C_3
REMARK    3  A    between atoms: N_2  and  S_4
REMARK    4  A    between atoms: S_4  and  N_7
REMARK    5  A    between atoms: C_9  and  O_10
REMARK    6  A    between atoms: O_10  and  C_11
REMARK    7  A    between atoms: C_18  and  C_19
REMARK                            x       y       z     vdW  Elec       q    Type
REMARK                         _______ _______ _______ _____ _____    ______ ____
ROOT
ATOM      1  N   UNL     1       0.924  10.268  20.478  0.00  0.00    +0.000 NA
ATOM      2  C   UNL     1       1.866   9.179  20.795  0.00  0.00    +0.000 C 
ATOM      3  C   UNL     1       1.023   7.921  20.604  0.00  0.00    +0.000 C 
ATOM      4  C   UNL     1      -0.248   8.336  21.345  0.00  0.00    +0.000 C 
ATOM      5  C   UNL     1      -0.405   9.837  21.041  0.00  0.00    +0.000 C 
ENDROOT
BRANCH   5   6
ATOM      6  C   UNL     1      -0.647  10.706  22.300  0.00  0.00    +0.000 C 
ATOM      7  O   UNL     1      -0.119  10.424  23.382  0.00  0.00    +0.000 OA
ATOM      8  N   UNL     1      -1.458  11.826  22.198  0.00  0.00    +0.000 N 
ATOM      9  C   UNL     1      -2.115  12.341  20.995  0.00  0.00    +0.000 C 
ATOM     10  C   UNL     1      -1.649  13.772  20.706  0.00  0.00    +0.000 C 
ATOM     11  O   UNL     1      -1.851  14.622  21.844  0.00  0.00    +0.000 OA
ATOM     12  C   UNL     1      -1.136  14.129  22.990  0.00  0.00    +0.000 C 
ATOM     13  C   UNL     1      -1.600  12.715  23.356  0.00  0.00    +0.000 C 
ENDBRANCH   5   6
BRANCH   1  14
ATOM     14  S   UNL     1       0.881  10.835  18.902  0.00  0.00    +0.000 S 
ATOM     15  O   UNL     1      -0.494  10.841  18.465  0.00  0.00    +0.000 OA
ATOM     16  O   UNL     1       1.891  10.132  18.143  0.00  0.00    +0.000 OA
BRANCH  14  18
ATOM     17  C   UNL     1       1.790  12.747  20.484  0.00  0.00    +0.000 C 
ATOM     18  N   UNL     1       1.381  12.444  19.088  0.00  0.00    +0.000 NA
ATOM     19  C   UNL     1       2.426  12.883  18.133  0.00  0.00    +0.000 C 
ENDBRANCH  14  18
ENDBRANCH   1  14
BRANCH   3  20
ATOM     20  O   UNL     1       1.573   6.739  21.178  0.00  0.00    +0.000 OA
BRANCH  20  21
ATOM     21  C   UNL     1       1.664   5.680  20.306  0.00  0.00    +0.000 A 
ATOM     22  C   UNL     1       1.105   4.421  20.536  0.00  0.00    +0.000 A 
ATOM     23  C   UNL     1       1.219   3.404  19.591  0.00  0.00    +0.000 A 
ATOM     24  C   UNL     1       1.908   3.637  18.405  0.00  0.00    +0.000 A 
ATOM     25  C   UNL     1       2.469   4.889  18.164  0.00  0.00    +0.000 A 
ATOM     26  C   UNL     1       2.336   5.914  19.107  0.00  0.00    +0.000 A 
ENDBRANCH  20  21
ENDBRANCH   3  20
TORSDOF 5
ENDMDL
MODEL 8
REMARK VINA RESULT:      -6.3      2.245      4.871
REMARK  Name = 
REMARK  7 active torsions:
REMARK  status: ('A' for Active; 'I' for Inactive)
REMARK    1  A    between atoms: C_1  and  N_2
REMARK    2  A    between atoms: N_2  and  C_3
REMARK    3  A    between atoms: N_2  and  S_4
REMARK    4  A    between atoms: S_4  and  N_7
REMARK    5  A    between atoms: C_9  and  O_10
REMARK    6  A    between atoms: O_10  and  C_11
REMARK    7  A    between atoms: C_18  and  C_19
REMARK                            x       y       z     vdW  Elec       q    Type
REMARK                         _______ _______ _______ _____ _____    ______ ____
ROOT
ATOM      1  N   UNL     1       5.704   4.880  17.389  0.00  0.00    +0.000 NA
ATOM      2  C   UNL     1       4.734   5.628  16.567  0.00  0.00    +0.000 C 
ATOM      3  C   UNL     1       4.284   6.752  17.495  0.00  0.00    +0.000 C 
ATOM      4  C   UNL     1       4.043   5.959  18.779  0.00  0.00    +0.000 C 
ATOM      5  C   UNL     1       5.145   4.885  18.788  0.00  0.00    +0.000 C 
ENDROOT
BRANCH   5   6
ATOM      6  C   UNL     1       4.618   3.452  19.051  0.00  0.00    +0.000 C 
ATOM      7  O   UNL     1       5.196   2.695  19.840  0.00  0.00    +0.000 OA
ATOM      8  N   UNL     1       3.473   3.027  18.397  0.00  0.00    +0.000 N 
ATOM      9  C   UNL     1       2.633   3.800  17.479  0.00  0.00    +0.000 C 
ATOM     10  C   UNL     1       1.201   3.889  18.016  0.00  0.00    +0.000 C 
ATOM     11  O   UNL     1       0.664   2.584  18.277  0.00  0.00    +0.000 OA
ATOM     12  C   UNL     1       1.470   1.878  19.235  0.00  0.00    +0.000 C 
ATOM     13  C   UNL     1       2.906   1.714  18.727  0.00  0.00    +0.000 C 
ENDBRANCH   5   6
BRANCH   1  14
ATOM     14  S   UNL     1       7.322   5.296  17.265  0.00  0.00    +0.000 S 
ATOM     15  O   UNL     1       7.515   5.974  16.005  0.00  0.00    +0.000 OA
ATOM     16  O   UNL     1       8.113   4.135  17.605  0.00  0.00    +0.000 OA
BRANCH  14  18
ATOM     17  C   UNL     1       8.329   5.929  19.625  0.00  0.00    +0.000 C 
ATOM     18  N   UNL     1       7.493   6.438  18.506  0.00  0.00    +0.000 NA
ATOM     19  C   UNL     1       7.973   7.768  18.063  0.00  0.00    +0.000 C 
ENDBRANCH  14  18
ENDBRANCH   1  14
BRANCH   3  20
ATOM     20  O   UNL     1       3.093   7.421  17.090  0.00  0.00    +0.000 OA
BRANCH  20  21
ATOM     21  C   UNL     1       2.418   8.038  18.117  0.00  0.00    +0.000 A 
ATOM     22  C   UNL     1       2.222   7.474  19.380  0.00  0.00    +0.000 A 
ATOM     23  C   UNL     1       1.548   8.173  20.379  0.00  0.00    +0.000 A 
ATOM     24  C   UNL     1       1.052   9.445  20.117  0.00  0.00    +0.000 A 
ATOM     25  C   UNL     1       1.242  10.019  18.862  0.00  0.00    +0.000 A 
ATOM     26  C   UNL     1       1.936   9.322  17.867  0.00  0.00    +0.000 A 
ENDBRANCH  20  21
ENDBRANCH   3  20
TORSDOF 5
ENDMDL
MODEL 9
REMARK VINA RESULT:      -6.2      4.383      8.805
REMARK  Name = 
REMARK  7 active torsions:
REMARK  status: ('A' for Active; 'I' for Inactive)
REMARK    1  A    between atoms: C_1  and  N_2
REMARK    2  A    between atoms: N_2  and  C_3
REMARK    3  A    between atoms: N_2  and  S_4
REMARK    4  A    between atoms: S_4  and  N_7
REMARK    5  A    between atoms: C_9  and  O_10
REMARK    6  A    between atoms: O_10  and  C_11
REMARK    7  A    between atoms: C_18  and  C_19
REMARK                            x       y       z     vdW  Elec       q    Type
REMARK                         _______ _______ _______ _____ _____    ______ ____
ROOT
ATOM      1  N   UNL     1       0.312  11.713  20.043  0.00  0.00    +0.000 NA
ATOM      2  C   UNL     1       0.747  10.521  20.795  0.00  0.00    +0.000 C 
ATOM      3  C   UNL     1       1.267   9.589  19.704  0.00  0.00    +0.000 C 
ATOM      4  C   UNL     1       0.139   9.719  18.681  0.00  0.00    +0.000 C 
ATOM      5  C   UNL     1      -0.301  11.191  18.769  0.00  0.00    +0.000 C 
ENDROOT
BRANCH   5   6
ATOM      6  C   UNL     1      -1.832  11.378  18.916  0.00  0.00    +0.000 C 
ATOM      7  O   UNL     1      -2.307  12.056  19.834  0.00  0.00    +0.000 OA
ATOM      8  N   UNL     1      -2.674  10.783  17.989  0.00  0.00    +0.000 N 
ATOM      9  C   UNL     1      -2.289   9.999  16.813  0.00  0.00    +0.000 C 
ATOM     10  C   UNL     1      -2.834  10.651  15.538  0.00  0.00    +0.000 C 
ATOM     11  O   UNL     1      -4.253  10.847  15.622  0.00  0.00    +0.000 OA
ATOM     12  C   UNL     1      -4.592  11.680  16.744  0.00  0.00    +0.000 C 
ATOM     13  C   UNL     1      -4.115  11.049  18.057  0.00  0.00    +0.000 C 
ENDBRANCH   5   6
BRANCH   1  14
ATOM     14  S   UNL     1       1.413  12.960  19.847  0.00  0.00    +0.000 S 
ATOM     15  O   UNL     1       2.164  12.710  18.640  0.00  0.00    +0.000 OA
ATOM     16  O   UNL     1       2.092  13.164  21.106  0.00  0.00    +0.000 OA
BRANCH  14  18
ATOM     17  C   UNL     1      -0.293  14.737  20.804  0.00  0.00    +0.000 C 
ATOM     18  N   UNL     1       0.400  14.290  19.567  0.00  0.00    +0.000 NA
ATOM     19  C   UNL     1       1.053  15.437  18.895  0.00  0.00    +0.000 C 
ENDBRANCH  14  18
ENDBRANCH   1  14
BRANCH   3  20
ATOM     20  O   UNL     1       1.425   8.231  20.103  0.00  0.00    +0.000 OA
BRANCH  20  21
ATOM     21  C   UNL     1       2.261   7.501  19.292  0.00  0.00    +0.000 A 
ATOM     22  C   UNL     1       2.890   8.007  18.152  0.00  0.00    +0.000 A 
ATOM     23  C   UNL     1       3.745   7.211  17.393  0.00  0.00    +0.000 A 
ATOM     24  C   UNL     1       3.970   5.890  17.765  0.00  0.00    +0.000 A 
ATOM     25  C   UNL     1       3.350   5.374  18.900  0.00  0.00    +0.000 A 
ATOM     26  C   UNL     1       2.507   6.182  19.671  0.00  0.00    +0.000 A 
ENDBRANCH  20  21
ENDBRANCH   3  20
TORSDOF 5
ENDMDL
