MODEL 1
REMARK VINA RESULT:      -8.8      0.000      0.000
REMARK  Name = 
REMARK  13 active torsions:
REMARK  status: ('A' for Active; 'I' for Inactive)
REMARK    1  A    between atoms: C_1  and  C_2
REMARK    2  A    between atoms: C_2  and  C_3
REMARK    3  A    between atoms: C_2  and  C_4
REMARK    4  A    between atoms: C_2  and  N_5
REMARK    5  A    between atoms: C_6  and  C_8
REMARK    6  A    between atoms: C_8  and  C_9
REMARK    7  A    between atoms: C_8  and  N_16
REMARK    8  A    between atoms: C_12  and  O_13
REMARK    9  A    between atoms: N_16  and  C_17
REMARK   10  A    between atoms: C_17  and  C_18
REMARK   11  A    between atoms: C_24  and  C_26
REMARK   12  A    between atoms: C_26  and  C_27
REMARK   13  A    between atoms: C_27  and  C_28
REMARK                            x       y       z     vdW  Elec       q    Type
REMARK                         _______ _______ _______ _____ _____    ______ ____
ROOT
ATOM      1  N   UNL     1       4.990   5.924  17.181  0.00  0.00    +0.000 N 
ATOM      2  C   UNL     1       5.937   5.415  18.078  0.00  0.00    +0.000 C 
ATOM      3  O   UNL     1       5.608   4.829  19.120  0.00  0.00    +0.000 OA
ENDROOT
BRANCH   1   4
ATOM      4  C   UNL     1       3.552   5.653  17.482  0.00  0.00    +0.000 C 
BRANCH   4   5
ATOM      5  C   UNL     1       2.888   6.774  18.302  0.00  0.00    +0.000 A 
ATOM      6  C   UNL     1       2.558   6.634  19.661  0.00  0.00    +0.000 A 
ATOM      7  C   UNL     1       1.823   7.622  20.332  0.00  0.00    +0.000 A 
ATOM      8  C   UNL     1       1.432   8.770  19.654  0.00  0.00    +0.000 A 
ATOM      9  C   UNL     1       1.781   8.955  18.326  0.00  0.00    +0.000 A 
ATOM     10  C   UNL     1       2.501   7.962  17.655  0.00  0.00    +0.000 A 
BRANCH   8  11
ATOM     11  O   UNL     1       0.685   9.739  20.257  0.00  0.00    +0.000 OA
ATOM     12  H   UNL     1      -0.191   9.761  19.837  0.00  0.00    +0.000 HD
ENDBRANCH   8  11
ENDBRANCH   4   5
BRANCH   4  14
ATOM     13  N   UNL     1       2.625   3.993  19.191  0.00  0.00    +0.000 N 
ATOM     14  C   UNL     1       3.035   4.228  17.889  0.00  0.00    +0.000 C 
ATOM     15  O   UNL     1       2.843   3.387  17.011  0.00  0.00    +0.000 OA
ATOM     16  H   UNL     1       2.899   4.634  19.917  0.00  0.00    +0.000 HD
BRANCH  13  18
ATOM     17  C   UNL     1       0.610   2.554  18.867  0.00  0.00    +0.000 C 
ATOM     18  C   UNL     1       1.943   2.746  19.613  0.00  0.00    +0.000 C 
ATOM     19  C   UNL     1       1.696   2.747  21.134  0.00  0.00    +0.000 C 
ATOM     20  C   UNL     1       2.843   1.539  19.281  0.00  0.00    +0.000 C 
ENDBRANCH  13  18
ENDBRANCH   4  14
ENDBRANCH   1   4
BRANCH   1  21
ATOM     21  C   UNL     1       5.355   6.474  15.877  0.00  0.00    +0.000 C 
BRANCH  21  22
ATOM     22  C   UNL     1       5.837   5.460  14.854  0.00  0.00    +0.000 A 
ATOM     23  C   UNL     1       7.114   5.489  14.274  0.00  0.00    +0.000 A 
ATOM     24  C   UNL     1       7.471   4.568  13.282  0.00  0.00    +0.000 A 
ATOM     25  C   UNL     1       6.567   3.594  12.868  0.00  0.00    +0.000 A 
ATOM     26  C   UNL     1       5.301   3.541  13.443  0.00  0.00    +0.000 A 
ATOM     27  C   UNL     1       4.935   4.468  14.421  0.00  0.00    +0.000 A 
ENDBRANCH  21  22
ENDBRANCH   1  21
BRANCH   2  28
ATOM     28  C   UNL     1       7.423   5.614  17.809  0.00  0.00    +0.000 C 
BRANCH  28  29
ATOM     29  C   UNL     1       8.067   6.501  18.877  0.00  0.00    +0.000 C 
BRANCH  29  30
ATOM     30  C   UNL     1       8.246   7.912  18.342  0.00  0.00    +0.000 C 
ATOM     31  O   UNL     1       7.931   8.165  17.184  0.00  0.00    +0.000 OA
ATOM     32  N   UNL     1       8.791   8.771  19.265  0.00  0.00    +0.000 N 
ATOM     33  C   UNL     1       9.105  10.068  18.966  0.00  0.00    +0.000 A 
ATOM     34  N   UNL     1       9.098  10.678  17.809  0.00  0.00    +0.000 NA
ATOM     35  C   UNL     1       9.529  11.978  17.974  0.00  0.00    +0.000 A 
ATOM     36  C   UNL     1       9.814  12.350  19.270  0.00  0.00    +0.000 A 
ATOM     37  S   UNL     1       9.595  11.002  20.312  0.00  0.00    +0.000 S 
ATOM     38  H   UNL     1       9.040   8.443  20.190  0.00  0.00    +0.000 HD
ENDBRANCH  29  30
ENDBRANCH  28  29
ENDBRANCH   2  28
TORSDOF 10
ENDMDL
MODEL 2
REMARK VINA RESULT:      -8.7      0.281      1.162
REMARK  Name = 
REMARK  13 active torsions:
REMARK  status: ('A' for Active; 'I' for Inactive)
REMARK    1  A    between atoms: C_1  and  C_2
REMARK    2  A    between atoms: C_2  and  C_3
REMARK    3  A    between atoms: C_2  and  C_4
REMARK    4  A    between atoms: C_2  and  N_5
REMARK    5  A    between atoms: C_6  and  C_8
REMARK    6  A    between atoms: C_8  and  C_9
REMARK    7  A    between atoms: C_8  and  N_16
REMARK    8  A    between atoms: C_12  and  O_13
REMARK    9  A    between atoms: N_16  and  C_17
REMARK   10  A    between atoms: C_17  and  C_18
REMARK   11  A    between atoms: C_24  and  C_26
REMARK   12  A    between atoms: C_26  and  C_27
REMARK   13  A    between atoms: C_27  and  C_28
REMARK                            x       y       z     vdW  Elec       q    Type
REMARK                         _______ _______ _______ _____ _____    ______ ____
ROOT
ATOM      1  N   UNL     1       4.988   6.017  17.284  0.00  0.00    +0.000 N 
ATOM      2  C   UNL     1       5.937   5.490  18.169  0.00  0.00    +0.000 C 
ATOM      3  O   UNL     1       5.610   4.900  19.209  0.00  0.00    +0.000 OA
ENDROOT
BRANCH   1   4
ATOM      4  C   UNL     1       3.550   5.760  17.595  0.00  0.00    +0.000 C 
BRANCH   4   5
ATOM      5  C   UNL     1       2.881   6.923  18.351  0.00  0.00    +0.000 A 
ATOM      6  C   UNL     1       2.465   6.826  19.690  0.00  0.00    +0.000 A 
ATOM      7  C   UNL     1       1.730   7.855  20.295  0.00  0.00    +0.000 A 
ATOM      8  C   UNL     1       1.425   9.002  19.572  0.00  0.00    +0.000 A 
ATOM      9  C   UNL     1       1.860   9.144  18.265  0.00  0.00    +0.000 A 
ATOM     10  C   UNL     1       2.580   8.111  17.659  0.00  0.00    +0.000 A 
BRANCH   8  11
ATOM     11  O   UNL     1       0.681  10.011  20.109  0.00  0.00    +0.000 OA
ATOM     12  H   UNL     1       0.117   9.642  20.809  0.00  0.00    +0.000 HD
ENDBRANCH   8  11
ENDBRANCH   4   5
BRANCH   4  14
ATOM     13  N   UNL     1       2.886   4.112  19.432  0.00  0.00    +0.000 N 
ATOM     14  C   UNL     1       3.034   4.359  18.078  0.00  0.00    +0.000 C 
ATOM     15  O   UNL     1       2.608   3.558  17.245  0.00  0.00    +0.000 OA
ATOM     16  H   UNL     1       3.347   4.712  20.096  0.00  0.00    +0.000 HD
BRANCH  13  18
ATOM     17  C   UNL     1       2.408   2.780  21.490  0.00  0.00    +0.000 C 
ATOM     18  C   UNL     1       2.224   2.897  19.966  0.00  0.00    +0.000 C 
ATOM     19  C   UNL     1       2.765   1.631  19.274  0.00  0.00    +0.000 C 
ATOM     20  C   UNL     1       0.710   2.980  19.684  0.00  0.00    +0.000 C 
ENDBRANCH  13  18
ENDBRANCH   4  14
ENDBRANCH   1   4
BRANCH   1  21
ATOM     21  C   UNL     1       5.349   6.574  15.982  0.00  0.00    +0.000 C 
BRANCH  21  22
ATOM     22  C   UNL     1       5.706   5.554  14.914  0.00  0.00    +0.000 A 
ATOM     23  C   UNL     1       4.848   4.521  14.508  0.00  0.00    +0.000 A 
ATOM     24  C   UNL     1       5.266   3.570  13.570  0.00  0.00    +0.000 A 
ATOM     25  C   UNL     1       6.538   3.645  13.011  0.00  0.00    +0.000 A 
ATOM     26  C   UNL     1       7.398   4.671  13.390  0.00  0.00    +0.000 A 
ATOM     27  C   UNL     1       6.990   5.613  14.338  0.00  0.00    +0.000 A 
ENDBRANCH  21  22
ENDBRANCH   1  21
BRANCH   2  28
ATOM     28  C   UNL     1       7.423   5.674  17.889  0.00  0.00    +0.000 C 
BRANCH  28  29
ATOM     29  C   UNL     1       8.077   6.578  18.935  0.00  0.00    +0.000 C 
BRANCH  29  30
ATOM     30  C   UNL     1       8.249   7.981  18.376  0.00  0.00    +0.000 C 
ATOM     31  O   UNL     1       7.932   8.213  17.214  0.00  0.00    +0.000 OA
ATOM     32  N   UNL     1       8.790   8.858  19.285  0.00  0.00    +0.000 N 
ATOM     33  C   UNL     1       9.097  10.151  18.963  0.00  0.00    +0.000 A 
ATOM     34  N   UNL     1       9.086  10.742  17.796  0.00  0.00    +0.000 NA
ATOM     35  C   UNL     1       9.511  12.046  17.938  0.00  0.00    +0.000 A 
ATOM     36  C   UNL     1       9.794  12.442  19.228  0.00  0.00    +0.000 A 
ATOM     37  S   UNL     1       9.583  11.110  20.293  0.00  0.00    +0.000 S 
ATOM     38  H   UNL     1       9.041   8.547  20.215  0.00  0.00    +0.000 HD
ENDBRANCH  29  30
ENDBRANCH  28  29
ENDBRANCH   2  28
TORSDOF 10
ENDMDL
MODEL 3
REMARK VINA RESULT:      -8.6      0.245      1.079
REMARK  Name = 
REMARK  13 active torsions:
REMARK  status: ('A' for Active; 'I' for Inactive)
REMARK    1  A    between atoms: C_1  and  C_2
REMARK    2  A    between atoms: C_2  and  C_3
REMARK    3  A    between atoms: C_2  and  C_4
REMARK    4  A    between atoms: C_2  and  N_5
REMARK    5  A    between atoms: C_6  and  C_8
REMARK    6  A    between atoms: C_8  and  C_9
REMARK    7  A    between atoms: C_8  and  N_16
REMARK    8  A    between atoms: C_12  and  O_13
REMARK    9  A    between atoms: N_16  and  C_17
REMARK   10  A    between atoms: C_17  and  C_18
REMARK   11  A    between atoms: C_24  and  C_26
REMARK   12  A    between atoms: C_26  and  C_27
REMARK   13  A    between atoms: C_27  and  C_28
REMARK                            x       y       z     vdW  Elec       q    Type
REMARK                         _______ _______ _______ _____ _____    ______ ____
ROOT
ATOM      1  N   UNL     1       5.010   5.912  17.159  0.00  0.00    +0.000 N 
ATOM      2  C   UNL     1       5.965   5.462  18.078  0.00  0.00    +0.000 C 
ATOM      3  O   UNL     1       5.648   4.870  19.120  0.00  0.00    +0.000 OA
ENDROOT
BRANCH   1   4
ATOM      4  C   UNL     1       3.582   5.570  17.436  0.00  0.00    +0.000 C 
BRANCH   4   5
ATOM      5  C   UNL     1       2.817   6.707  18.138  0.00  0.00    +0.000 A 
ATOM      6  C   UNL     1       2.481   7.913  17.497  0.00  0.00    +0.000 A 
ATOM      7  C   UNL     1       1.915   8.978  18.212  0.00  0.00    +0.000 A 
ATOM      8  C   UNL     1       1.657   8.837  19.569  0.00  0.00    +0.000 A 
ATOM      9  C   UNL     1       1.936   7.646  20.218  0.00  0.00    +0.000 A 
ATOM     10  C   UNL     1       2.514   6.590  19.507  0.00  0.00    +0.000 A 
BRANCH   8  11
ATOM     11  O   UNL     1       1.142   9.860  20.310  0.00  0.00    +0.000 OA
ATOM     12  H   UNL     1       1.861  10.472  20.537  0.00  0.00    +0.000 HD
ENDBRANCH   8  11
ENDBRANCH   4   5
BRANCH   4  14
ATOM     13  N   UNL     1       2.911   3.952  19.298  0.00  0.00    +0.000 N 
ATOM     14  C   UNL     1       3.144   4.152  17.948  0.00  0.00    +0.000 C 
ATOM     15  O   UNL     1       2.852   3.283  17.126  0.00  0.00    +0.000 OA
ATOM     16  H   UNL     1       3.269   4.616  19.964  0.00  0.00    +0.000 HD
BRANCH  13  18
ATOM     17  C   UNL     1       3.025   1.457  19.304  0.00  0.00    +0.000 C 
ATOM     18  C   UNL     1       2.309   2.710  19.840  0.00  0.00    +0.000 C 
ATOM     19  C   UNL     1       0.807   2.640  19.503  0.00  0.00    +0.000 C 
ATOM     20  C   UNL     1       2.449   2.707  21.376  0.00  0.00    +0.000 C 
ENDBRANCH  13  18
ENDBRANCH   4  14
ENDBRANCH   1   4
BRANCH   1  21
ATOM     21  C   UNL     1       5.369   6.468  15.856  0.00  0.00    +0.000 C 
BRANCH  21  22
ATOM     22  C   UNL     1       5.837   5.457  14.823  0.00  0.00    +0.000 A 
ATOM     23  C   UNL     1       7.122   5.457  14.262  0.00  0.00    +0.000 A 
ATOM     24  C   UNL     1       7.467   4.542  13.261  0.00  0.00    +0.000 A 
ATOM     25  C   UNL     1       6.540   3.603  12.817  0.00  0.00    +0.000 A 
ATOM     26  C   UNL     1       5.265   3.578  13.372  0.00  0.00    +0.000 A 
ATOM     27  C   UNL     1       4.912   4.500  14.360  0.00  0.00    +0.000 A 
ENDBRANCH  21  22
ENDBRANCH   1  21
BRANCH   2  28
ATOM     28  C   UNL     1       7.443   5.735  17.833  0.00  0.00    +0.000 C 
BRANCH  28  29
ATOM     29  C   UNL     1       8.029   6.637  18.922  0.00  0.00    +0.000 C 
BRANCH  29  30
ATOM     30  C   UNL     1       8.228   8.043  18.381  0.00  0.00    +0.000 C 
ATOM     31  O   UNL     1       7.899   8.301  17.228  0.00  0.00    +0.000 OA
ATOM     32  N   UNL     1       8.807   8.892  19.294  0.00  0.00    +0.000 N 
ATOM     33  C   UNL     1       9.142  10.181  18.987  0.00  0.00    +0.000 A 
ATOM     34  N   UNL     1       9.128  10.789  17.830  0.00  0.00    +0.000 NA
ATOM     35  C   UNL     1       9.589  12.081  17.984  0.00  0.00    +0.000 A 
ATOM     36  C   UNL     1       9.903  12.449  19.275  0.00  0.00    +0.000 A 
ATOM     37  S   UNL     1       9.674  11.107  20.323  0.00  0.00    +0.000 S 
ATOM     38  H   UNL     1       9.065   8.559  20.215  0.00  0.00    +0.000 HD
ENDBRANCH  29  30
ENDBRANCH  28  29
ENDBRANCH   2  28
TORSDOF 10
ENDMDL
MODEL 4
REMARK VINA RESULT:      -8.5      5.407      9.774
REMARK  Name = 
REMARK  13 active torsions:
REMARK  status: ('A' for Active; 'I' for Inactive)
REMARK    1  A    between atoms: C_1  and  C_2
REMARK    2  A    between atoms: C_2  and  C_3
REMARK    3  A    between atoms: C_2  and  C_4
REMARK    4  A    between atoms: C_2  and  N_5
REMARK    5  A    between atoms: C_6  and  C_8
REMARK    6  A    between atoms: C_8  and  C_9
REMARK    7  A    between atoms: C_8  and  N_16
REMARK    8  A    between atoms: C_12  and  O_13
REMARK    9  A    between atoms: N_16  and  C_17
REMARK   10  A    between atoms: C_17  and  C_18
REMARK   11  A    between atoms: C_24  and  C_26
REMARK   12  A    between atoms: C_26  and  C_27
REMARK   13  A    between atoms: C_27  and  C_28
REMARK                            x       y       z     vdW  Elec       q    Type
REMARK                         _______ _______ _______ _____ _____    ______ ____
ROOT
ATOM      1  N   UNL     1      -0.203  10.929  19.021  0.00  0.00    +0.000 N 
ATOM      2  C   UNL     1       1.055  10.497  18.583  0.00  0.00    +0.000 C 
ATOM      3  O   UNL     1       2.087  11.145  18.806  0.00  0.00    +0.000 OA
ENDROOT
BRANCH   1   4
ATOM      4  C   UNL     1      -0.246  12.166  19.857  0.00  0.00    +0.000 C 
BRANCH   4   5
ATOM      5  C   UNL     1      -1.293  12.095  20.984  0.00  0.00    +0.000 A 
ATOM      6  C   UNL     1      -2.531  12.757  20.922  0.00  0.00    +0.000 A 
ATOM      7  C   UNL     1      -3.392  12.786  22.028  0.00  0.00    +0.000 A 
ATOM      8  C   UNL     1      -3.031  12.132  23.199  0.00  0.00    +0.000 A 
ATOM      9  C   UNL     1      -1.837  11.434  23.276  0.00  0.00    +0.000 A 
ATOM     10  C   UNL     1      -0.973  11.419  22.177  0.00  0.00    +0.000 A 
BRANCH   8  11
ATOM     11  O   UNL     1      -3.821  12.165  24.311  0.00  0.00    +0.000 OA
ATOM     12  H   UNL     1      -4.397  12.946  24.259  0.00  0.00    +0.000 HD
ENDBRANCH   8  11
ENDBRANCH   4   5
BRANCH   4  14
ATOM     13  N   UNL     1       0.384  14.640  19.987  0.00  0.00    +0.000 N 
ATOM     14  C   UNL     1      -0.138  13.603  19.234  0.00  0.00    +0.000 C 
ATOM     15  O   UNL     1      -0.361  13.752  18.032  0.00  0.00    +0.000 OA
ATOM     16  H   UNL     1       0.442  14.542  20.988  0.00  0.00    +0.000 HD
BRANCH  13  18
ATOM     17  C   UNL     1      -0.484  16.546  18.627  0.00  0.00    +0.000 C 
ATOM     18  C   UNL     1       0.703  15.973  19.420  0.00  0.00    +0.000 C 
ATOM     19  C   UNL     1       1.949  15.896  18.516  0.00  0.00    +0.000 C 
ATOM     20  C   UNL     1       1.013  16.952  20.570  0.00  0.00    +0.000 C 
ENDBRANCH  13  18
ENDBRANCH   4  14
ENDBRANCH   1   4
BRANCH   1  21
ATOM     21  C   UNL     1      -1.404  10.104  18.907  0.00  0.00    +0.000 C 
BRANCH  21  22
ATOM     22  C   UNL     1      -2.327  10.453  17.752  0.00  0.00    +0.000 A 
ATOM     23  C   UNL     1      -3.462  11.266  17.883  0.00  0.00    +0.000 A 
ATOM     24  C   UNL     1      -4.312  11.491  16.794  0.00  0.00    +0.000 A 
ATOM     25  C   UNL     1      -4.033  10.922  15.555  0.00  0.00    +0.000 A 
ATOM     26  C   UNL     1      -2.904  10.125  15.401  0.00  0.00    +0.000 A 
ATOM     27  C   UNL     1      -2.061   9.885  16.490  0.00  0.00    +0.000 A 
ENDBRANCH  21  22
ENDBRANCH   1  21
BRANCH   2  28
ATOM     28  C   UNL     1       1.177   9.217  17.767  0.00  0.00    +0.000 C 
BRANCH  28  29
ATOM     29  C   UNL     1       2.552   8.570  17.952  0.00  0.00    +0.000 C 
BRANCH  29  30
ATOM     30  C   UNL     1       2.430   7.328  18.818  0.00  0.00    +0.000 C 
ATOM     31  O   UNL     1       2.206   7.446  20.018  0.00  0.00    +0.000 OA
ATOM     32  N   UNL     1       2.622   6.163  18.116  0.00  0.00    +0.000 N 
ATOM     33  C   UNL     1       2.630   4.935  18.718  0.00  0.00    +0.000 A 
ATOM     34  N   UNL     1       2.610   4.635  19.990  0.00  0.00    +0.000 NA
ATOM     35  C   UNL     1       2.672   3.265  20.140  0.00  0.00    +0.000 A 
ATOM     36  C   UNL     1       2.692   2.540  18.967  0.00  0.00    +0.000 A 
ATOM     37  S   UNL     1       2.697   3.618  17.630  0.00  0.00    +0.000 S 
ATOM     38  H   UNL     1       2.831   6.187  17.125  0.00  0.00    +0.000 HD
ENDBRANCH  29  30
ENDBRANCH  28  29
ENDBRANCH   2  28
TORSDOF 10
ENDMDL
MODEL 5
REMARK VINA RESULT:      -8.3      5.525      9.745
REMARK  Name = 
REMARK  13 active torsions:
REMARK  status: ('A' for Active; 'I' for Inactive)
REMARK    1  A    between atoms: C_1  and  C_2
REMARK    2  A    between atoms: C_2  and  C_3
REMARK    3  A    between atoms: C_2  and  C_4
REMARK    4  A    between atoms: C_2  and  N_5
REMARK    5  A    between atoms: C_6  and  C_8
REMARK    6  A    between atoms: C_8  and  C_9
REMARK    7  A    between atoms: C_8  and  N_16
REMARK    8  A    between atoms: C_12  and  O_13
REMARK    9  A    between atoms: N_16  and  C_17
REMARK   10  A    between atoms: C_17  and  C_18
REMARK   11  A    between atoms: C_24  and  C_26
REMARK   12  A    between atoms: C_26  and  C_27
REMARK   13  A    between atoms: C_27  and  C_28
REMARK                            x       y       z     vdW  Elec       q    Type
REMARK                         _______ _______ _______ _____ _____    ______ ____
ROOT
ATOM      1  N   UNL     1      -0.014  11.295  19.266  0.00  0.00    +0.000 N 
ATOM      2  C   UNL     1       1.250  10.944  18.779  0.00  0.00    +0.000 C 
ATOM      3  O   UNL     1       2.232  11.691  18.899  0.00  0.00    +0.000 OA
ENDROOT
BRANCH   1   4
ATOM      4  C   UNL     1      -0.120  12.576  20.027  0.00  0.00    +0.000 C 
BRANCH   4   5
ATOM      5  C   UNL     1      -1.111  12.496  21.203  0.00  0.00    +0.000 A 
ATOM      6  C   UNL     1      -0.873  11.725  22.354  0.00  0.00    +0.000 A 
ATOM      7  C   UNL     1      -1.864  11.564  23.333  0.00  0.00    +0.000 A 
ATOM      8  C   UNL     1      -3.092  12.193  23.181  0.00  0.00    +0.000 A 
ATOM      9  C   UNL     1      -3.340  12.995  22.080  0.00  0.00    +0.000 A 
ATOM     10  C   UNL     1      -2.357  13.143  21.097  0.00  0.00    +0.000 A 
BRANCH   8  11
ATOM     11  O   UNL     1      -4.097  12.034  24.091  0.00  0.00    +0.000 OA
ATOM     12  H   UNL     1      -3.710  12.030  24.982  0.00  0.00    +0.000 HD
ENDBRANCH   8  11
ENDBRANCH   4   5
BRANCH   4  14
ATOM     13  N   UNL     1       0.299  15.097  19.990  0.00  0.00    +0.000 N 
ATOM     14  C   UNL     1      -0.150  13.975  19.316  0.00  0.00    +0.000 C 
ATOM     15  O   UNL     1      -0.413  14.029  18.114  0.00  0.00    +0.000 OA
ATOM     16  H   UNL     1       0.390  15.067  20.992  0.00  0.00    +0.000 HD
BRANCH  13  18
ATOM     17  C   UNL     1      -0.769  16.845  18.561  0.00  0.00    +0.000 C 
ATOM     18  C   UNL     1       0.490  16.414  19.334  0.00  0.00    +0.000 C 
ATOM     19  C   UNL     1       1.702  16.378  18.383  0.00  0.00    +0.000 C 
ATOM     20  C   UNL     1       0.766  17.481  20.412  0.00  0.00    +0.000 C 
ENDBRANCH  13  18
ENDBRANCH   4  14
ENDBRANCH   1   4
BRANCH   1  21
ATOM     21  C   UNL     1      -1.143  10.366  19.274  0.00  0.00    +0.000 C 
BRANCH  21  22
ATOM     22  C   UNL     1      -2.101  10.494  18.102  0.00  0.00    +0.000 A 
ATOM     23  C   UNL     1      -1.909   9.857  16.868  0.00  0.00    +0.000 A 
ATOM     24  C   UNL     1      -2.791  10.074  15.804  0.00  0.00    +0.000 A 
ATOM     25  C   UNL     1      -3.888  10.917  15.961  0.00  0.00    +0.000 A 
ATOM     26  C   UNL     1      -4.103  11.547  17.183  0.00  0.00    +0.000 A 
ATOM     27  C   UNL     1      -3.215  11.345  18.242  0.00  0.00    +0.000 A 
ENDBRANCH  21  22
ENDBRANCH   1  21
BRANCH   2  28
ATOM     28  C   UNL     1       1.440   9.629  18.034  0.00  0.00    +0.000 C 
BRANCH  28  29
ATOM     29  C   UNL     1       1.732   8.480  19.002  0.00  0.00    +0.000 C 
BRANCH  29  30
ATOM     30  C   UNL     1       2.635   7.455  18.335  0.00  0.00    +0.000 C 
ATOM     31  O   UNL     1       3.434   7.818  17.478  0.00  0.00    +0.000 OA
ATOM     32  N   UNL     1       2.415   6.175  18.783  0.00  0.00    +0.000 N 
ATOM     33  C   UNL     1       3.067   5.093  18.261  0.00  0.00    +0.000 A 
ATOM     34  N   UNL     1       3.856   5.021  17.220  0.00  0.00    +0.000 NA
ATOM     35  C   UNL     1       4.257   3.714  17.037  0.00  0.00    +0.000 A 
ATOM     36  C   UNL     1       3.800   2.815  17.977  0.00  0.00    +0.000 A 
ATOM     37  S   UNL     1       2.778   3.627  19.093  0.00  0.00    +0.000 S 
ATOM     38  H   UNL     1       1.704   5.987  19.479  0.00  0.00    +0.000 HD
ENDBRANCH  29  30
ENDBRANCH  28  29
ENDBRANCH   2  28
TORSDOF 10
ENDMDL
MODEL 6
REMARK VINA RESULT:      -8.2      5.557      9.760
REMARK  Name = 
REMARK  13 active torsions:
REMARK  status: ('A' for Active; 'I' for Inactive)
REMARK    1  A    between atoms: C_1  and  C_2
REMARK    2  A    between atoms: C_2  and  C_3
REMARK    3  A    between atoms: C_2  and  C_4
REMARK    4  A    between atoms: C_2  and  N_5
REMARK    5  A    between atoms: C_6  and  C_8
REMARK    6  A    between atoms: C_8  and  C_9
REMARK    7  A    between atoms: C_8  and  N_16
REMARK    8  A    between atoms: C_12  and  O_13
REMARK    9  A    between atoms: N_16  and  C_17
REMARK   10  A    between atoms: C_17  and  C_18
REMARK   11  A    between atoms: C_24  and  C_26
REMARK   12  A    between atoms: C_26  and  C_27
REMARK   13  A    between atoms: C_27  and  C_28
REMARK                            x       y       z     vdW  Elec       q    Type
REMARK                         _______ _______ _______ _____ _____    ______ ____
ROOT
ATOM      1  N   UNL     1      -0.122  11.235  19.237  0.00  0.00    +0.000 N 
ATOM      2  C   UNL     1       1.184  10.924  18.840  0.00  0.00    +0.000 C 
ATOM      3  O   UNL     1       2.140  11.678  19.073  0.00  0.00    +0.000 OA
ENDROOT
BRANCH   1   4
ATOM      4  C   UNL     1      -0.311  12.478  20.043  0.00  0.00    +0.000 C 
BRANCH   4   5
ATOM      5  C   UNL     1      -1.398  12.334  21.124  0.00  0.00    +0.000 A 
ATOM      6  C   UNL     1      -2.645  12.979  21.046  0.00  0.00    +0.000 A 
ATOM      7  C   UNL     1      -3.547  12.939  22.118  0.00  0.00    +0.000 A 
ATOM      8  C   UNL     1      -3.220  12.234  23.270  0.00  0.00    +0.000 A 
ATOM      9  C   UNL     1      -2.017  11.553  23.358  0.00  0.00    +0.000 A 
ATOM     10  C   UNL     1      -1.112  11.605  22.294  0.00  0.00    +0.000 A 
BRANCH   8  11
ATOM     11  O   UNL     1      -4.051  12.200  24.350  0.00  0.00    +0.000 OA
ATOM     12  H   UNL     1      -4.200  13.110  24.656  0.00  0.00    +0.000 HD
ENDBRANCH   8  11
ENDBRANCH   4   5
BRANCH   4  14
ATOM     13  N   UNL     1       0.144  14.992  20.131  0.00  0.00    +0.000 N 
ATOM     14  C   UNL     1      -0.300  13.908  19.394  0.00  0.00    +0.000 C 
ATOM     15  O   UNL     1      -0.528  14.020  18.189  0.00  0.00    +0.000 OA
ATOM     16  H   UNL     1       0.205  14.916  21.133  0.00  0.00    +0.000 HD
BRANCH  13  18
ATOM     17  C   UNL     1      -0.894  16.867  18.849  0.00  0.00    +0.000 C 
ATOM     18  C   UNL     1       0.373  16.333  19.541  0.00  0.00    +0.000 C 
ATOM     19  C   UNL     1       1.541  16.296  18.538  0.00  0.00    +0.000 C 
ATOM     20  C   UNL     1       0.745  17.323  20.663  0.00  0.00    +0.000 C 
ENDBRANCH  13  18
ENDBRANCH   4  14
ENDBRANCH   1   4
BRANCH   1  21
ATOM     21  C   UNL     1      -1.231  10.291  19.112  0.00  0.00    +0.000 C 
BRANCH  21  22
ATOM     22  C   UNL     1      -2.163  10.533  17.938  0.00  0.00    +0.000 A 
ATOM     23  C   UNL     1      -3.272  11.390  17.990  0.00  0.00    +0.000 A 
ATOM     24  C   UNL     1      -4.135  11.513  16.895  0.00  0.00    +0.000 A 
ATOM     25  C   UNL     1      -3.894  10.797  15.726  0.00  0.00    +0.000 A 
ATOM     26  C   UNL     1      -2.790   9.954  15.649  0.00  0.00    +0.000 A 
ATOM     27  C   UNL     1      -1.936   9.815  16.746  0.00  0.00    +0.000 A 
ENDBRANCH  21  22
ENDBRANCH   1  21
BRANCH   2  28
ATOM     28  C   UNL     1       1.456   9.646  18.056  0.00  0.00    +0.000 C 
BRANCH  28  29
ATOM     29  C   UNL     1       1.734   8.468  18.993  0.00  0.00    +0.000 C 
BRANCH  29  30
ATOM     30  C   UNL     1       2.657   7.470  18.314  0.00  0.00    +0.000 C 
ATOM     31  O   UNL     1       3.462   7.862  17.476  0.00  0.00    +0.000 OA
ATOM     32  N   UNL     1       2.446   6.177  18.728  0.00  0.00    +0.000 N 
ATOM     33  C   UNL     1       3.116   5.115  18.188  0.00  0.00    +0.000 A 
ATOM     34  N   UNL     1       3.919   5.077  17.156  0.00  0.00    +0.000 NA
ATOM     35  C   UNL     1       4.337   3.780  16.947  0.00  0.00    +0.000 A 
ATOM     36  C   UNL     1       3.879   2.853  17.859  0.00  0.00    +0.000 A 
ATOM     37  S   UNL     1       2.833   3.627  18.982  0.00  0.00    +0.000 S 
ATOM     38  H   UNL     1       1.728   5.965  19.410  0.00  0.00    +0.000 HD
ENDBRANCH  29  30
ENDBRANCH  28  29
ENDBRANCH   2  28
TORSDOF 10
ENDMDL
MODEL 7
REMARK VINA RESULT:      -8.2      1.472      3.785
REMARK  Name = 
REMARK  13 active torsions:
REMARK  status: ('A' for Active; 'I' for Inactive)
REMARK    1  A    between atoms: C_1  and  C_2
REMARK    2  A    between atoms: C_2  and  C_3
REMARK    3  A    between atoms: C_2  and  C_4
REMARK    4  A    between atoms: C_2  and  N_5
REMARK    5  A    between atoms: C_6  and  C_8
REMARK    6  A    between atoms: C_8  and  C_9
REMARK    7  A    between atoms: C_8  and  N_16
REMARK    8  A    between atoms: C_12  and  O_13
REMARK    9  A    between atoms: N_16  and  C_17
REMARK   10  A    between atoms: C_17  and  C_18
REMARK   11  A    between atoms: C_24  and  C_26
REMARK   12  A    between atoms: C_26  and  C_27
REMARK   13  A    between atoms: C_27  and  C_28
REMARK                            x       y       z     vdW  Elec       q    Type
REMARK                         _______ _______ _______ _____ _____    ______ ____
ROOT
ATOM      1  N   UNL     1       4.709   6.215  18.361  0.00  0.00    +0.000 N 
ATOM      2  C   UNL     1       5.913   5.773  18.923  0.00  0.00    +0.000 C 
ATOM      3  O   UNL     1       5.980   5.355  20.088  0.00  0.00    +0.000 OA
ENDROOT
BRANCH   1   4
ATOM      4  C   UNL     1       3.477   6.077  19.193  0.00  0.00    +0.000 C 
BRANCH   4   5
ATOM      5  C   UNL     1       2.729   4.754  18.947  0.00  0.00    +0.000 A 
ATOM      6  C   UNL     1       1.730   4.610  17.968  0.00  0.00    +0.000 A 
ATOM      7  C   UNL     1       0.973   3.434  17.876  0.00  0.00    +0.000 A 
ATOM      8  C   UNL     1       1.226   2.381  18.746  0.00  0.00    +0.000 A 
ATOM      9  C   UNL     1       2.234   2.477  19.691  0.00  0.00    +0.000 A 
ATOM     10  C   UNL     1       2.977   3.656  19.792  0.00  0.00    +0.000 A 
BRANCH   8  11
ATOM     11  O   UNL     1       0.490   1.233  18.715  0.00  0.00    +0.000 OA
ATOM     12  H   UNL     1       1.059   0.492  18.982  0.00  0.00    +0.000 HD
ENDBRANCH   8  11
ENDBRANCH   4   5
BRANCH   4  14
ATOM     13  N   UNL     1       1.796   7.352  20.637  0.00  0.00    +0.000 N 
ATOM     14  C   UNL     1       2.497   7.278  19.446  0.00  0.00    +0.000 C 
ATOM     15  O   UNL     1       2.492   8.222  18.655  0.00  0.00    +0.000 OA
ATOM     16  H   UNL     1       1.710   6.529  21.211  0.00  0.00    +0.000 HD
BRANCH  13  18
ATOM     17  C   UNL     1       0.859   9.538  19.877  0.00  0.00    +0.000 C 
ATOM     18  C   UNL     1       1.007   8.542  21.040  0.00  0.00    +0.000 C 
ATOM     19  C   UNL     1       1.654   9.242  22.250  0.00  0.00    +0.000 C 
ATOM     20  C   UNL     1      -0.409   8.093  21.454  0.00  0.00    +0.000 C 
ENDBRANCH  13  18
ENDBRANCH   4  14
ENDBRANCH   1   4
BRANCH   1  21
ATOM     21  C   UNL     1       4.579   6.560  16.946  0.00  0.00    +0.000 C 
BRANCH  21  22
ATOM     22  C   UNL     1       5.112   5.524  15.971  0.00  0.00    +0.000 A 
ATOM     23  C   UNL     1       4.849   4.150  16.077  0.00  0.00    +0.000 A 
ATOM     24  C   UNL     1       5.430   3.239  15.188  0.00  0.00    +0.000 A 
ATOM     25  C   UNL     1       6.267   3.686  14.169  0.00  0.00    +0.000 A 
ATOM     26  C   UNL     1       6.527   5.046  14.039  0.00  0.00    +0.000 A 
ATOM     27  C   UNL     1       5.962   5.958  14.935  0.00  0.00    +0.000 A 
ENDBRANCH  21  22
ENDBRANCH   1  21
BRANCH   2  28
ATOM     28  C   UNL     1       7.201   5.840  18.112  0.00  0.00    +0.000 C 
BRANCH  28  29
ATOM     29  C   UNL     1       8.267   6.669  18.832  0.00  0.00    +0.000 C 
BRANCH  29  30
ATOM     30  C   UNL     1       8.231   8.105  18.337  0.00  0.00    +0.000 C 
ATOM     31  O   UNL     1       7.665   8.368  17.281  0.00  0.00    +0.000 OA
ATOM     32  N   UNL     1       8.894   8.976  19.168  0.00  0.00    +0.000 N 
ATOM     33  C   UNL     1       9.047  10.301  18.870  0.00  0.00    +0.000 A 
ATOM     34  N   UNL     1       8.757  10.944  17.769  0.00  0.00    +0.000 NA
ATOM     35  C   UNL     1       9.120  12.268  17.900  0.00  0.00    +0.000 A 
ATOM     36  C   UNL     1       9.640  12.622  19.127  0.00  0.00    +0.000 A 
ATOM     37  S   UNL     1       9.738  11.230  20.128  0.00  0.00    +0.000 S 
ATOM     38  H   UNL     1       9.353   8.640  20.006  0.00  0.00    +0.000 HD
ENDBRANCH  29  30
ENDBRANCH  28  29
ENDBRANCH   2  28
TORSDOF 10
ENDMDL
MODEL 8
REMARK VINA RESULT:      -8.1      1.604      3.804
REMARK  Name = 
REMARK  13 active torsions:
REMARK  status: ('A' for Active; 'I' for Inactive)
REMARK    1  A    between atoms: C_1  and  C_2
REMARK    2  A    between atoms: C_2  and  C_3
REMARK    3  A    between atoms: C_2  and  C_4
REMARK    4  A    between atoms: C_2  and  N_5
REMARK    5  A    between atoms: C_6  and  C_8
REMARK    6  A    between atoms: C_8  and  C_9
REMARK    7  A    between atoms: C_8  and  N_16
REMARK    8  A    between atoms: C_12  and  O_13
REMARK    9  A    between atoms: N_16  and  C_17
REMARK   10  A    between atoms: C_17  and  C_18
REMARK   11  A    between atoms: C_24  and  C_26
REMARK   12  A    between atoms: C_26  and  C_27
REMARK   13  A    between atoms: C_27  and  C_28
REMARK                            x       y       z     vdW  Elec       q    Type
REMARK                         _______ _______ _______ _____ _____    ______ ____
ROOT
ATOM      1  N   UNL     1       4.654   6.616  17.951  0.00  0.00    +0.000 N 
ATOM      2  C   UNL     1       5.635   5.938  18.685  0.00  0.00    +0.000 C 
ATOM      3  O   UNL     1       5.453   5.588  19.860  0.00  0.00    +0.000 OA
ENDROOT
BRANCH   1   4
ATOM      4  C   UNL     1       3.331   6.824  18.612  0.00  0.00    +0.000 C 
BRANCH   4   5
ATOM      5  C   UNL     1       2.548   5.513  18.815  0.00  0.00    +0.000 A 
ATOM      6  C   UNL     1       2.178   4.671  17.753  0.00  0.00    +0.000 A 
ATOM      7  C   UNL     1       1.341   3.566  17.964  0.00  0.00    +0.000 A 
ATOM      8  C   UNL     1       0.886   3.281  19.245  0.00  0.00    +0.000 A 
ATOM      9  C   UNL     1       1.270   4.068  20.318  0.00  0.00    +0.000 A 
ATOM     10  C   UNL     1       2.092   5.178  20.104  0.00  0.00    +0.000 A 
BRANCH   8  11
ATOM     11  O   UNL     1       0.041   2.238  19.491  0.00  0.00    +0.000 OA
ATOM     12  H   UNL     1      -0.680   2.551  20.062  0.00  0.00    +0.000 HD
ENDBRANCH   8  11
ENDBRANCH   4   5
BRANCH   4  14
ATOM     13  N   UNL     1       1.628   8.625  19.238  0.00  0.00    +0.000 N 
ATOM     14  C   UNL     1       2.393   8.029  18.249  0.00  0.00    +0.000 C 
ATOM     15  O   UNL     1       2.474   8.535  17.130  0.00  0.00    +0.000 OA
ATOM     16  H   UNL     1       1.473   8.136  20.104  0.00  0.00    +0.000 HD
BRANCH  13  18
ATOM     17  C   UNL     1      -0.264   9.692  18.006  0.00  0.00    +0.000 C 
ATOM     18  C   UNL     1       0.871   9.883  19.028  0.00  0.00    +0.000 C 
ATOM     19  C   UNL     1       1.810  11.014  18.564  0.00  0.00    +0.000 C 
ATOM     20  C   UNL     1       0.231  10.317  20.362  0.00  0.00    +0.000 C 
ENDBRANCH  13  18
ENDBRANCH   4  14
ENDBRANCH   1   4
BRANCH   1  21
ATOM     21  C   UNL     1       4.790   6.895  16.523  0.00  0.00    +0.000 C 
BRANCH  21  22
ATOM     22  C   UNL     1       5.375   5.767  15.691  0.00  0.00    +0.000 A 
ATOM     23  C   UNL     1       6.478   5.920  14.839  0.00  0.00    +0.000 A 
ATOM     24  C   UNL     1       6.922   4.858  14.043  0.00  0.00    +0.000 A 
ATOM     25  C   UNL     1       6.285   3.622  14.100  0.00  0.00    +0.000 A 
ATOM     26  C   UNL     1       5.198   3.446  14.951  0.00  0.00    +0.000 A 
ATOM     27  C   UNL     1       4.741   4.509  15.734  0.00  0.00    +0.000 A 
ENDBRANCH  21  22
ENDBRANCH   1  21
BRANCH   2  28
ATOM     28  C   UNL     1       6.992   5.650  18.056  0.00  0.00    +0.000 C 
BRANCH  28  29
ATOM     29  C   UNL     1       8.113   6.389  18.791  0.00  0.00    +0.000 C 
BRANCH  29  30
ATOM     30  C   UNL     1       8.209   7.820  18.288  0.00  0.00    +0.000 C 
ATOM     31  O   UNL     1       7.818   8.092  17.157  0.00  0.00    +0.000 OA
ATOM     32  N   UNL     1       8.777   8.673  19.203  0.00  0.00    +0.000 N 
ATOM     33  C   UNL     1       9.027   9.988  18.923  0.00  0.00    +0.000 A 
ATOM     34  N   UNL     1       8.930  10.628  17.787  0.00  0.00    +0.000 NA
ATOM     35  C   UNL     1       9.323  11.939  17.964  0.00  0.00    +0.000 A 
ATOM     36  C   UNL     1       9.669  12.287  19.252  0.00  0.00    +0.000 A 
ATOM     37  S   UNL     1       9.560  10.904  20.265  0.00  0.00    +0.000 S 
ATOM     38  H   UNL     1       9.091   8.330  20.102  0.00  0.00    +0.000 HD
ENDBRANCH  29  30
ENDBRANCH  28  29
ENDBRANCH   2  28
TORSDOF 10
ENDMDL
MODEL 9
REMARK VINA RESULT:      -8.0      5.347      9.548
REMARK  Name = 
REMARK  13 active torsions:
REMARK  status: ('A' for Active; 'I' for Inactive)
REMARK    1  A    between atoms: C_1  and  C_2
REMARK    2  A    between atoms: C_2  and  C_3
REMARK    3  A    between atoms: C_2  and  C_4
REMARK    4  A    between atoms: C_2  and  N_5
REMARK    5  A    between atoms: C_6  and  C_8
REMARK    6  A    between atoms: C_8  and  C_9
REMARK    7  A    between atoms: C_8  and  N_16
REMARK    8  A    between atoms: C_12  and  O_13
REMARK    9  A    between atoms: N_16  and  C_17
REMARK   10  A    between atoms: C_17  and  C_18
REMARK   11  A    between atoms: C_24  and  C_26
REMARK   12  A    between atoms: C_26  and  C_27
REMARK   13  A    between atoms: C_27  and  C_28
REMARK                            x       y       z     vdW  Elec       q    Type
REMARK                         _______ _______ _______ _____ _____    ______ ____
ROOT
ATOM      1  N   UNL     1      -0.231  10.787  19.259  0.00  0.00    +0.000 N 
ATOM      2  C   UNL     1       1.033  10.272  18.950  0.00  0.00    +0.000 C 
ATOM      3  O   UNL     1       2.077  10.883  19.223  0.00  0.00    +0.000 OA
ENDROOT
BRANCH   1   4
ATOM      4  C   UNL     1      -0.276  12.071  20.022  0.00  0.00    +0.000 C 
BRANCH   4   5
ATOM      5  C   UNL     1      -1.348  12.076  21.128  0.00  0.00    +0.000 A 
ATOM      6  C   UNL     1      -2.569  12.762  21.007  0.00  0.00    +0.000 A 
ATOM      7  C   UNL     1      -3.452  12.862  22.092  0.00  0.00    +0.000 A 
ATOM      8  C   UNL     1      -3.132  12.255  23.300  0.00  0.00    +0.000 A 
ATOM      9  C   UNL     1      -1.957  11.536  23.435  0.00  0.00    +0.000 A 
ATOM     10  C   UNL     1      -1.070  11.449  22.357  0.00  0.00    +0.000 A 
BRANCH   8  11
ATOM     11  O   UNL     1      -3.944  12.359  24.391  0.00  0.00    +0.000 OA
ATOM     12  H   UNL     1      -3.815  13.234  24.792  0.00  0.00    +0.000 HD
ENDBRANCH   8  11
ENDBRANCH   4   5
BRANCH   4  14
ATOM     13  N   UNL     1       0.468  14.516  19.994  0.00  0.00    +0.000 N 
ATOM     14  C   UNL     1      -0.136  13.468  19.321  0.00  0.00    +0.000 C 
ATOM     15  O   UNL     1      -0.413  13.569  18.125  0.00  0.00    +0.000 OA
ATOM     16  H   UNL     1       0.574  14.465  20.994  0.00  0.00    +0.000 HD
BRANCH  13  18
ATOM     17  C   UNL     1       1.962  15.628  18.330  0.00  0.00    +0.000 C 
ATOM     18  C   UNL     1       0.818  15.802  19.345  0.00  0.00    +0.000 C 
ATOM     19  C   UNL     1       1.208  16.857  20.398  0.00  0.00    +0.000 C 
ATOM     20  C   UNL     1      -0.410  16.333  18.578  0.00  0.00    +0.000 C 
ENDBRANCH  13  18
ENDBRANCH   4  14
ENDBRANCH   1   4
BRANCH   1  21
ATOM     21  C   UNL     1      -1.461  10.015  19.089  0.00  0.00    +0.000 C 
BRANCH  21  22
ATOM     22  C   UNL     1      -2.281  10.359  17.858  0.00  0.00    +0.000 A 
ATOM     23  C   UNL     1      -3.412  11.187  17.884  0.00  0.00    +0.000 A 
ATOM     24  C   UNL     1      -4.167  11.405  16.726  0.00  0.00    +0.000 A 
ATOM     25  C   UNL     1      -3.795  10.816  15.522  0.00  0.00    +0.000 A 
ATOM     26  C   UNL     1      -2.667  10.003  15.472  0.00  0.00    +0.000 A 
ATOM     27  C   UNL     1      -1.919   9.769  16.630  0.00  0.00    +0.000 A 
ENDBRANCH  21  22
ENDBRANCH   1  21
BRANCH   2  28
ATOM     28  C   UNL     1       1.154   8.944  18.214  0.00  0.00    +0.000 C 
BRANCH  28  29
ATOM     29  C   UNL     1       2.513   8.814  17.522  0.00  0.00    +0.000 C 
BRANCH  29  30
ATOM     30  C   UNL     1       3.168   7.498  17.906  0.00  0.00    +0.000 C 
ATOM     31  O   UNL     1       4.244   7.187  17.404  0.00  0.00    +0.000 OA
ATOM     32  N   UNL     1       2.422   6.767  18.798  0.00  0.00    +0.000 N 
ATOM     33  C   UNL     1       2.792   5.519  19.216  0.00  0.00    +0.000 A 
ATOM     34  N   UNL     1       3.764   4.755  18.789  0.00  0.00    +0.000 NA
ATOM     35  C   UNL     1       3.741   3.557  19.473  0.00  0.00    +0.000 A 
ATOM     36  C   UNL     1       2.773   3.449  20.449  0.00  0.00    +0.000 A 
ATOM     37  S   UNL     1       1.816   4.876  20.464  0.00  0.00    +0.000 S 
ATOM     38  H   UNL     1       1.528   7.111  19.126  0.00  0.00    +0.000 HD
ENDBRANCH  29  30
ENDBRANCH  28  29
ENDBRANCH   2  28
TORSDOF 10
ENDMDL
