MODEL 1
REMARK VINA RESULT:      -7.3      0.000      0.000
REMARK  Name = 
REMARK  3 active torsions:
REMARK  status: ('A' for Active; 'I' for Inactive)
REMARK    1  A    between atoms: C_1  and  O_2
REMARK    2  A    between atoms: O_2  and  C_3
REMARK    3  A    between atoms: N_6  and  C_7
REMARK                            x       y       z     vdW  Elec       q    Type
REMARK                         _______ _______ _______ _____ _____    ______ ____
ROOT
ATOM      1  C   UNL     1       4.051   4.677  17.641  0.00  0.00    +0.000 C 
ATOM      2  C   UNL     1       4.320   5.344  18.776  0.00  0.00    +0.000 C 
ATOM      3 CL   UNL     1       5.877   5.632  19.439  0.00  0.00    +0.000 Cl
ATOM      4  C   UNL     1       3.181   5.750  19.581  0.00  0.00    +0.000 C 
ATOM      5  O   UNL     1       2.829   6.901  19.731  0.00  0.00    +0.000 OA
ATOM      6  C   UNL     1       2.389   4.604  19.985  0.00  0.00    +0.000 A 
ATOM      7  C   UNL     1       2.126   4.364  21.325  0.00  0.00    +0.000 A 
ATOM      8  C   UNL     1       1.515   3.164  21.652  0.00  0.00    +0.000 A 
ATOM      9  C   UNL     1       1.113   2.280  20.637  0.00  0.00    +0.000 A 
ATOM     10  C   UNL     1       1.377   2.552  19.284  0.00  0.00    +0.000 A 
ATOM     11  C   UNL     1       2.089   3.699  18.968  0.00  0.00    +0.000 A 
ATOM     12  C   UNL     1       2.724   3.921  17.623  0.00  0.00    +0.000 C 
ATOM     13  O   UNL     1       2.293   3.405  16.607  0.00  0.00    +0.000 OA
ENDROOT
BRANCH   1  17
ATOM     14  C   UNL     1       6.505   4.713  14.226  0.00  0.00    +0.000 A 
ATOM     15  C   UNL     1       6.336   3.537  14.944  0.00  0.00    +0.000 A 
ATOM     16  C   UNL     1       5.556   3.536  16.108  0.00  0.00    +0.000 A 
ATOM     17  N   UNL     1       4.978   4.679  16.563  0.00  0.00    +0.000 N 
ATOM     18  C   UNL     1       5.188   5.836  15.875  0.00  0.00    +0.000 A 
ATOM     19  C   UNL     1       5.939   5.875  14.719  0.00  0.00    +0.000 A 
BRANCH  14  21
ATOM     20  C   UNL     1       7.027   3.881  12.055  0.00  0.00    +0.000 C 
ATOM     21  O   UNL     1       7.153   4.887  13.049  0.00  0.00    +0.000 OA
ENDBRANCH  14  21
ENDBRANCH   1  17
TORSDOF 2
ENDMDL
MODEL 2
REMARK VINA RESULT:      -7.3      1.763      1.966
REMARK  Name = 
REMARK  3 active torsions:
REMARK  status: ('A' for Active; 'I' for Inactive)
REMARK    1  A    between atoms: C_1  and  O_2
REMARK    2  A    between atoms: O_2  and  C_3
REMARK    3  A    between atoms: N_6  and  C_7
REMARK                            x       y       z     vdW  Elec       q    Type
REMARK                         _______ _______ _______ _____ _____    ______ ____
ROOT
ATOM      1  C   UNL     1       3.955   3.919  17.320  0.00  0.00    +0.000 C 
ATOM      2  C   UNL     1       3.038   4.875  17.545  0.00  0.00    +0.000 C 
ATOM      3 CL   UNL     1       3.311   6.570  17.513  0.00  0.00    +0.000 Cl
ATOM      4  C   UNL     1       1.724   4.432  17.977  0.00  0.00    +0.000 C 
ATOM      5  O   UNL     1       0.721   4.511  17.300  0.00  0.00    +0.000 OA
ATOM      6  C   UNL     1       1.807   3.678  19.214  0.00  0.00    +0.000 A 
ATOM      7  C   UNL     1       1.069   4.059  20.324  0.00  0.00    +0.000 A 
ATOM      8  C   UNL     1       1.324   3.403  21.518  0.00  0.00    +0.000 A 
ATOM      9  C   UNL     1       2.242   2.339  21.554  0.00  0.00    +0.000 A 
ATOM     10  C   UNL     1       2.966   1.961  20.411  0.00  0.00    +0.000 A 
ATOM     11  C   UNL     1       2.792   2.693  19.246  0.00  0.00    +0.000 A 
ATOM     12  C   UNL     1       3.742   2.613  18.083  0.00  0.00    +0.000 C 
ATOM     13  O   UNL     1       4.409   1.619  17.855  0.00  0.00    +0.000 OA
ENDROOT
BRANCH   1  17
ATOM     14  C   UNL     1       7.135   4.976  14.780  0.00  0.00    +0.000 A 
ATOM     15  C   UNL     1       5.972   4.441  14.245  0.00  0.00    +0.000 A 
ATOM     16  C   UNL     1       4.931   4.045  15.095  0.00  0.00    +0.000 A 
ATOM     17  N   UNL     1       5.050   4.156  16.445  0.00  0.00    +0.000 N 
ATOM     18  C   UNL     1       6.215   4.640  16.960  0.00  0.00    +0.000 A 
ATOM     19  C   UNL     1       7.257   5.050  16.156  0.00  0.00    +0.000 A 
BRANCH  14  21
ATOM     20  C   UNL     1       8.161   5.517  12.698  0.00  0.00    +0.000 C 
ATOM     21  O   UNL     1       8.204   5.479  14.117  0.00  0.00    +0.000 OA
ENDBRANCH  14  21
ENDBRANCH   1  17
TORSDOF 2
ENDMDL
MODEL 3
REMARK VINA RESULT:      -7.1      0.309      1.075
REMARK  Name = 
REMARK  3 active torsions:
REMARK  status: ('A' for Active; 'I' for Inactive)
REMARK    1  A    between atoms: C_1  and  O_2
REMARK    2  A    between atoms: O_2  and  C_3
REMARK    3  A    between atoms: N_6  and  C_7
REMARK                            x       y       z     vdW  Elec       q    Type
REMARK                         _______ _______ _______ _____ _____    ______ ____
ROOT
ATOM      1  C   UNL     1       3.797   4.784  17.663  0.00  0.00    +0.000 C 
ATOM      2  C   UNL     1       4.167   5.376  18.811  0.00  0.00    +0.000 C 
ATOM      3 CL   UNL     1       5.779   5.635  19.345  0.00  0.00    +0.000 Cl
ATOM      4  C   UNL     1       3.107   5.715  19.744  0.00  0.00    +0.000 C 
ATOM      5  O   UNL     1       2.766   6.850  20.004  0.00  0.00    +0.000 OA
ATOM      6  C   UNL     1       2.361   4.535  20.141  0.00  0.00    +0.000 A 
ATOM      7  C   UNL     1       2.225   4.203  21.480  0.00  0.00    +0.000 A 
ATOM      8  C   UNL     1       1.652   2.978  21.780  0.00  0.00    +0.000 A 
ATOM      9  C   UNL     1       1.161   2.160  20.748  0.00  0.00    +0.000 A 
ATOM     10  C   UNL     1       1.297   2.525  19.399  0.00  0.00    +0.000 A 
ATOM     11  C   UNL     1       1.971   3.699  19.097  0.00  0.00    +0.000 A 
ATOM     12  C   UNL     1       2.477   4.017  17.717  0.00  0.00    +0.000 C 
ATOM     13  O   UNL     1       1.954   3.567  16.712  0.00  0.00    +0.000 OA
ENDROOT
BRANCH   1  17
ATOM     14  C   UNL     1       6.513   4.976  14.459  0.00  0.00    +0.000 A 
ATOM     15  C   UNL     1       5.881   6.131  14.900  0.00  0.00    +0.000 A 
ATOM     16  C   UNL     1       4.942   6.059  15.937  0.00  0.00    +0.000 A 
ATOM     17  N   UNL     1       4.618   4.868  16.506  0.00  0.00    +0.000 N 
ATOM     18  C   UNL     1       5.211   3.736  16.034  0.00  0.00    +0.000 A 
ATOM     19  C   UNL     1       6.149   3.766  15.024  0.00  0.00    +0.000 A 
BRANCH  14  21
ATOM     20  C   UNL     1       7.205   4.175  12.324  0.00  0.00    +0.000 C 
ATOM     21  O   UNL     1       7.494   4.864  13.531  0.00  0.00    +0.000 OA
ENDBRANCH  14  21
ENDBRANCH   1  17
TORSDOF 2
ENDMDL
MODEL 4
REMARK VINA RESULT:      -7.0      1.753      2.105
REMARK  Name = 
REMARK  3 active torsions:
REMARK  status: ('A' for Active; 'I' for Inactive)
REMARK    1  A    between atoms: C_1  and  O_2
REMARK    2  A    between atoms: O_2  and  C_3
REMARK    3  A    between atoms: N_6  and  C_7
REMARK                            x       y       z     vdW  Elec       q    Type
REMARK                         _______ _______ _______ _____ _____    ______ ____
ROOT
ATOM      1  C   UNL     1       3.941   4.336  17.519  0.00  0.00    +0.000 C 
ATOM      2  C   UNL     1       2.831   5.073  17.689  0.00  0.00    +0.000 C 
ATOM      3 CL   UNL     1       2.734   6.786  17.642  0.00  0.00    +0.000 Cl
ATOM      4  C   UNL     1       1.625   4.359  18.071  0.00  0.00    +0.000 C 
ATOM      5  O   UNL     1       0.660   4.216  17.350  0.00  0.00    +0.000 OA
ATOM      6  C   UNL     1       1.811   3.648  19.322  0.00  0.00    +0.000 A 
ATOM      7  C   UNL     1       0.959   3.867  20.393  0.00  0.00    +0.000 A 
ATOM      8  C   UNL     1       1.294   3.290  21.607  0.00  0.00    +0.000 A 
ATOM      9  C   UNL     1       2.417   2.449  21.699  0.00  0.00    +0.000 A 
ATOM     10  C   UNL     1       3.257   2.230  20.595  0.00  0.00    +0.000 A 
ATOM     11  C   UNL     1       2.982   2.899  19.412  0.00  0.00    +0.000 A 
ATOM     12  C   UNL     1       3.979   3.019  18.292  0.00  0.00    +0.000 C 
ATOM     13  O   UNL     1       4.855   2.191  18.109  0.00  0.00    +0.000 OA
ENDROOT
BRANCH   1  17
ATOM     14  C   UNL     1       7.186   5.357  15.047  0.00  0.00    +0.000 A 
ATOM     15  C   UNL     1       7.188   5.736  16.383  0.00  0.00    +0.000 A 
ATOM     16  C   UNL     1       6.086   5.437  17.194  0.00  0.00    +0.000 A 
ATOM     17  N   UNL     1       4.998   4.798  16.688  0.00  0.00    +0.000 N 
ATOM     18  C   UNL     1       4.990   4.472  15.366  0.00  0.00    +0.000 A 
ATOM     19  C   UNL     1       6.059   4.739  14.537  0.00  0.00    +0.000 A 
BRANCH  14  21
ATOM     20  C   UNL     1       7.892   5.238  12.774  0.00  0.00    +0.000 C 
ATOM     21  O   UNL     1       8.184   5.492  14.140  0.00  0.00    +0.000 OA
ENDBRANCH  14  21
ENDBRANCH   1  17
TORSDOF 2
ENDMDL
MODEL 5
REMARK VINA RESULT:      -6.9      2.229      6.604
REMARK  Name = 
REMARK  3 active torsions:
REMARK  status: ('A' for Active; 'I' for Inactive)
REMARK    1  A    between atoms: C_1  and  O_2
REMARK    2  A    between atoms: O_2  and  C_3
REMARK    3  A    between atoms: N_6  and  C_7
REMARK                            x       y       z     vdW  Elec       q    Type
REMARK                         _______ _______ _______ _____ _____    ______ ____
ROOT
ATOM      1  C   UNL     1       5.029   5.368  17.141  0.00  0.00    +0.000 C 
ATOM      2  C   UNL     1       6.294   5.798  17.002  0.00  0.00    +0.000 C 
ATOM      3 CL   UNL     1       6.865   7.388  17.308  0.00  0.00    +0.000 Cl
ATOM      4  C   UNL     1       7.241   4.864  16.419  0.00  0.00    +0.000 C 
ATOM      5  O   UNL     1       8.152   4.346  17.031  0.00  0.00    +0.000 OA
ATOM      6  C   UNL     1       6.824   4.455  15.091  0.00  0.00    +0.000 A 
ATOM      7  C   UNL     1       7.668   4.619  14.003  0.00  0.00    +0.000 A 
ATOM      8  C   UNL     1       7.145   4.370  12.745  0.00  0.00    +0.000 A 
ATOM      9  C   UNL     1       5.831   3.890  12.611  0.00  0.00    +0.000 A 
ATOM     10  C   UNL     1       5.000   3.717  13.730  0.00  0.00    +0.000 A 
ATOM     11  C   UNL     1       5.488   4.075  14.978  0.00  0.00    +0.000 A 
ATOM     12  C   UNL     1       4.601   4.263  16.177  0.00  0.00    +0.000 C 
ATOM     13  O   UNL     1       3.537   3.682  16.298  0.00  0.00    +0.000 OA
ENDROOT
BRANCH   1  17
ATOM     14  C   UNL     1       2.247   6.816  19.943  0.00  0.00    +0.000 A 
ATOM     15  C   UNL     1       2.478   7.521  18.770  0.00  0.00    +0.000 A 
ATOM     16  C   UNL     1       3.439   7.064  17.859  0.00  0.00    +0.000 A 
ATOM     17  N   UNL     1       4.170   5.947  18.115  0.00  0.00    +0.000 N 
ATOM     18  C   UNL     1       3.966   5.289  19.291  0.00  0.00    +0.000 A 
ATOM     19  C   UNL     1       3.022   5.701  20.208  0.00  0.00    +0.000 A 
BRANCH  14  21
ATOM     20  C   UNL     1       1.063   8.410  21.261  0.00  0.00    +0.000 C 
ATOM     21  O   UNL     1       1.315   7.061  20.895  0.00  0.00    +0.000 OA
ENDBRANCH  14  21
ENDBRANCH   1  17
TORSDOF 2
ENDMDL
MODEL 6
REMARK VINA RESULT:      -6.8      2.821      3.594
REMARK  Name = 
REMARK  3 active torsions:
REMARK  status: ('A' for Active; 'I' for Inactive)
REMARK    1  A    between atoms: C_1  and  O_2
REMARK    2  A    between atoms: O_2  and  C_3
REMARK    3  A    between atoms: N_6  and  C_7
REMARK                            x       y       z     vdW  Elec       q    Type
REMARK                         _______ _______ _______ _____ _____    ______ ____
ROOT
ATOM      1  C   UNL     1       4.297   5.004  18.483  0.00  0.00    +0.000 C 
ATOM      2  C   UNL     1       3.034   5.421  18.287  0.00  0.00    +0.000 C 
ATOM      3 CL   UNL     1       2.497   7.051  18.260  0.00  0.00    +0.000 Cl
ATOM      4  C   UNL     1       2.011   4.393  18.216  0.00  0.00    +0.000 C 
ATOM      5  O   UNL     1       1.404   4.104  17.207  0.00  0.00    +0.000 OA
ATOM      6  C   UNL     1       1.973   3.606  19.436  0.00  0.00    +0.000 A 
ATOM      7  C   UNL     1       0.798   3.481  20.160  0.00  0.00    +0.000 A 
ATOM      8  C   UNL     1       0.872   2.864  21.398  0.00  0.00    +0.000 A 
ATOM      9  C   UNL     1       2.090   2.320  21.841  0.00  0.00    +0.000 A 
ATOM     10  C   UNL     1       3.265   2.446  21.082  0.00  0.00    +0.000 A 
ATOM     11  C   UNL     1       3.212   3.163  19.896  0.00  0.00    +0.000 A 
ATOM     12  C   UNL     1       4.442   3.655  19.184  0.00  0.00    +0.000 C 
ATOM     13  O   UNL     1       5.520   3.096  19.285  0.00  0.00    +0.000 OA
ENDROOT
BRANCH   1  17
ATOM     14  C   UNL     1       7.489   7.585  17.567  0.00  0.00    +0.000 A 
ATOM     15  C   UNL     1       6.334   7.613  16.797  0.00  0.00    +0.000 A 
ATOM     16  C   UNL     1       5.289   6.721  17.073  0.00  0.00    +0.000 A 
ATOM     17  N   UNL     1       5.397   5.807  18.073  0.00  0.00    +0.000 N 
ATOM     18  C   UNL     1       6.553   5.759  18.792  0.00  0.00    +0.000 A 
ATOM     19  C   UNL     1       7.599   6.627  18.559  0.00  0.00    +0.000 A 
BRANCH  14  21
ATOM     20  C   UNL     1       8.550   9.595  18.283  0.00  0.00    +0.000 C 
ATOM     21  O   UNL     1       8.559   8.413  17.496  0.00  0.00    +0.000 OA
ENDBRANCH  14  21
ENDBRANCH   1  17
TORSDOF 2
ENDMDL
MODEL 7
REMARK VINA RESULT:      -6.8      2.081      2.596
REMARK  Name = 
REMARK  3 active torsions:
REMARK  status: ('A' for Active; 'I' for Inactive)
REMARK    1  A    between atoms: C_1  and  O_2
REMARK    2  A    between atoms: O_2  and  C_3
REMARK    3  A    between atoms: N_6  and  C_7
REMARK                            x       y       z     vdW  Elec       q    Type
REMARK                         _______ _______ _______ _____ _____    ______ ____
ROOT
ATOM      1  C   UNL     1       4.789   3.885  18.054  0.00  0.00    +0.000 C 
ATOM      2  C   UNL     1       4.563   2.623  18.456  0.00  0.00    +0.000 C 
ATOM      3 CL   UNL     1       4.426   1.245  17.441  0.00  0.00    +0.000 Cl
ATOM      4  C   UNL     1       4.283   2.427  19.867  0.00  0.00    +0.000 C 
ATOM      5  O   UNL     1       5.034   1.869  20.639  0.00  0.00    +0.000 OA
ATOM      6  C   UNL     1       3.112   3.179  20.279  0.00  0.00    +0.000 A 
ATOM      7  C   UNL     1       2.040   2.542  20.885  0.00  0.00    +0.000 A 
ATOM      8  C   UNL     1       0.890   3.285  21.094  0.00  0.00    +0.000 A 
ATOM      9  C   UNL     1       0.867   4.653  20.771  0.00  0.00    +0.000 A 
ATOM     10  C   UNL     1       1.972   5.280  20.172  0.00  0.00    +0.000 A 
ATOM     11  C   UNL     1       3.081   4.507  19.860  0.00  0.00    +0.000 A 
ATOM     12  C   UNL     1       4.162   4.973  18.924  0.00  0.00    +0.000 C 
ATOM     13  O   UNL     1       4.417   6.154  18.759  0.00  0.00    +0.000 OA
ENDROOT
BRANCH   1  17
ATOM     14  C   UNL     1       7.031   5.013  14.679  0.00  0.00    +0.000 A 
ATOM     15  C   UNL     1       5.699   4.649  14.535  0.00  0.00    +0.000 A 
ATOM     16  C   UNL     1       4.966   4.229  15.652  0.00  0.00    +0.000 A 
ATOM     17  N   UNL     1       5.545   4.148  16.879  0.00  0.00    +0.000 N 
ATOM     18  C   UNL     1       6.865   4.464  16.999  0.00  0.00    +0.000 A 
ATOM     19  C   UNL     1       7.618   4.893  15.927  0.00  0.00    +0.000 A 
BRANCH  14  21
ATOM     20  C   UNL     1       7.676   5.115  12.387  0.00  0.00    +0.000 C 
ATOM     21  O   UNL     1       7.867   5.512  13.737  0.00  0.00    +0.000 OA
ENDBRANCH  14  21
ENDBRANCH   1  17
TORSDOF 2
ENDMDL
MODEL 8
REMARK VINA RESULT:      -6.8      3.494      6.001
REMARK  Name = 
REMARK  3 active torsions:
REMARK  status: ('A' for Active; 'I' for Inactive)
REMARK    1  A    between atoms: C_1  and  O_2
REMARK    2  A    between atoms: O_2  and  C_3
REMARK    3  A    between atoms: N_6  and  C_7
REMARK                            x       y       z     vdW  Elec       q    Type
REMARK                         _______ _______ _______ _____ _____    ______ ____
ROOT
ATOM      1  C   UNL     1       2.635   6.546  19.298  0.00  0.00    +0.000 C 
ATOM      2  C   UNL     1       3.773   6.285  18.632  0.00  0.00    +0.000 C 
ATOM      3 CL   UNL     1       4.305   7.055  17.193  0.00  0.00    +0.000 Cl
ATOM      4  C   UNL     1       4.563   5.162  19.104  0.00  0.00    +0.000 C 
ATOM      5  O   UNL     1       5.645   5.269  19.643  0.00  0.00    +0.000 OA
ATOM      6  C   UNL     1       3.800   3.928  19.062  0.00  0.00    +0.000 A 
ATOM      7  C   UNL     1       4.273   2.828  18.364  0.00  0.00    +0.000 A 
ATOM      8  C   UNL     1       3.419   1.747  18.220  0.00  0.00    +0.000 A 
ATOM      9  C   UNL     1       2.158   1.759  18.840  0.00  0.00    +0.000 A 
ATOM     10  C   UNL     1       1.706   2.880  19.555  0.00  0.00    +0.000 A 
ATOM     11  C   UNL     1       2.518   4.004  19.602  0.00  0.00    +0.000 A 
ATOM     12  C   UNL     1       2.014   5.356  20.027  0.00  0.00    +0.000 C 
ATOM     13  O   UNL     1       1.072   5.490  20.789  0.00  0.00    +0.000 OA
ENDROOT
BRANCH   1  17
ATOM     14  C   UNL     1       0.628  10.241  19.296  0.00  0.00    +0.000 A 
ATOM     15  C   UNL     1       1.141   9.732  18.110  0.00  0.00    +0.000 A 
ATOM     16  C   UNL     1       1.850   8.524  18.119  0.00  0.00    +0.000 A 
ATOM     17  N   UNL     1       2.067   7.849  19.279  0.00  0.00    +0.000 N 
ATOM     18  C   UNL     1       1.597   8.382  20.442  0.00  0.00    +0.000 A 
ATOM     19  C   UNL     1       0.886   9.562  20.473  0.00  0.00    +0.000 A 
BRANCH  14  21
ATOM     20  C   UNL     1      -1.053  11.696  18.437  0.00  0.00    +0.000 C 
ATOM     21  O   UNL     1      -0.141  11.343  19.467  0.00  0.00    +0.000 OA
ENDBRANCH  14  21
ENDBRANCH   1  17
TORSDOF 2
ENDMDL
MODEL 9
REMARK VINA RESULT:      -6.6      2.197      6.482
REMARK  Name = 
REMARK  3 active torsions:
REMARK  status: ('A' for Active; 'I' for Inactive)
REMARK    1  A    between atoms: C_1  and  O_2
REMARK    2  A    between atoms: O_2  and  C_3
REMARK    3  A    between atoms: N_6  and  C_7
REMARK                            x       y       z     vdW  Elec       q    Type
REMARK                         _______ _______ _______ _____ _____    ______ ____
ROOT
ATOM      1  C   UNL     1       4.838   5.272  17.148  0.00  0.00    +0.000 C 
ATOM      2  C   UNL     1       6.060   5.826  17.068  0.00  0.00    +0.000 C 
ATOM      3 CL   UNL     1       6.454   7.463  17.398  0.00  0.00    +0.000 Cl
ATOM      4  C   UNL     1       7.121   4.992  16.531  0.00  0.00    +0.000 C 
ATOM      5  O   UNL     1       8.048   4.565  17.185  0.00  0.00    +0.000 OA
ATOM      6  C   UNL     1       6.809   4.548  15.185  0.00  0.00    +0.000 A 
ATOM      7  C   UNL     1       7.682   4.798  14.138  0.00  0.00    +0.000 A 
ATOM      8  C   UNL     1       7.247   4.503  12.857  0.00  0.00    +0.000 A 
ATOM      9  C   UNL     1       5.994   3.895  12.662  0.00  0.00    +0.000 A 
ATOM     10  C   UNL     1       5.133   3.638  13.741  0.00  0.00    +0.000 A 
ATOM     11  C   UNL     1       5.524   4.037  15.010  0.00  0.00    +0.000 A 
ATOM     12  C   UNL     1       4.568   4.133  16.167  0.00  0.00    +0.000 C 
ATOM     13  O   UNL     1       3.562   3.449  16.238  0.00  0.00    +0.000 OA
ENDROOT
BRANCH   1  17
ATOM     14  C   UNL     1       2.244   6.978  19.985  0.00  0.00    +0.000 A 
ATOM     15  C   UNL     1       2.870   5.769  20.258  0.00  0.00    +0.000 A 
ATOM     16  C   UNL     1       3.697   5.178  19.295  0.00  0.00    +0.000 A 
ATOM     17  N   UNL     1       3.881   5.759  18.080  0.00  0.00    +0.000 N 
ATOM     18  C   UNL     1       3.226   6.922  17.807  0.00  0.00    +0.000 A 
ATOM     19  C   UNL     1       2.412   7.540  18.732  0.00  0.00    +0.000 A 
BRANCH  14  21
ATOM     20  C   UNL     1       1.070   9.015  20.375  0.00  0.00    +0.000 C 
ATOM     21  O   UNL     1       1.479   7.728  20.814  0.00  0.00    +0.000 OA
ENDBRANCH  14  21
ENDBRANCH   1  17
TORSDOF 2
ENDMDL
