MODEL 1
REMARK VINA RESULT:      -6.5      0.000      0.000
REMARK  Name = 
REMARK  20 active torsions:
REMARK  status: ('A' for Active; 'I' for Inactive)
REMARK    1  A    between atoms: C_1  and  C_2
REMARK    2  A    between atoms: C_2  and  C_3
REMARK    3  A    between atoms: C_2  and  O_4
REMARK    4  A    between atoms: O_4  and  P_5
REMARK    5  A    between atoms: P_5  and  O_7
REMARK    6  A    between atoms: P_5  and  O_11
REMARK    7  A    between atoms: O_7  and  C_8
REMARK    8  A    between atoms: C_8  and  C_9
REMARK    9  A    between atoms: C_8  and  C_10
REMARK   10  A    between atoms: O_11  and  C_12
REMARK   11  A    between atoms: C_12  and  C_13
REMARK   12  A    between atoms: C_12  and  P_20
REMARK   13  A    between atoms: P_20  and  O_22
REMARK   14  A    between atoms: P_20  and  O_26
REMARK   15  A    between atoms: O_22  and  C_23
REMARK   16  A    between atoms: C_23  and  C_24
REMARK   17  A    between atoms: C_23  and  C_25
REMARK   18  A    between atoms: O_26  and  C_27
REMARK   19  A    between atoms: C_27  and  C_28
REMARK   20  A    between atoms: C_27  and  C_29
REMARK                            x       y       z     vdW  Elec       q    Type
REMARK                         _______ _______ _______ _____ _____    ______ ____
ROOT
ATOM      1  C   UNL     1       3.316   5.985  18.303  0.00  0.00    +0.000 C 
ENDROOT
BRANCH   1   2
ATOM      2  C   UNL     1       2.766   7.395  18.642  0.00  0.00    +0.000 A 
ATOM      3  C   UNL     1       2.098   7.649  19.851  0.00  0.00    +0.000 A 
ATOM      4  C   UNL     1       1.260   8.762  19.981  0.00  0.00    +0.000 A 
ATOM      5  C   UNL     1       1.038   9.606  18.898  0.00  0.00    +0.000 A 
ATOM      6 CL   UNL     1      -0.256  10.739  18.937  0.00  0.00    +0.000 Cl
ATOM      7  C   UNL     1       1.799   9.455  17.741  0.00  0.00    +0.000 A 
ATOM      8  C   UNL     1       2.709   8.407  17.642  0.00  0.00    +0.000 A 
ENDBRANCH   1   2
BRANCH   1   9
ATOM      9  P   UNL     1       2.299   4.629  18.994  0.00  0.00    +0.000 P 
ATOM     10  O   UNL     1       1.404   4.655  17.747  0.00  0.00    +0.000 OA
BRANCH   9  11
ATOM     11  O   UNL     1       3.546   3.538  18.763  0.00  0.00    +0.000 OA
BRANCH  11  12
ATOM     12  C   UNL     1       3.311   2.278  18.125  0.00  0.00    +0.000 C 
ATOM     13  C   UNL     1       3.761   2.327  16.673  0.00  0.00    +0.000 C 
ATOM     14  C   UNL     1       4.013   1.181  18.929  0.00  0.00    +0.000 C 
ENDBRANCH  11  12
ENDBRANCH   9  11
BRANCH   9  15
ATOM     15  O   UNL     1       1.337   3.348  19.647  0.00  0.00    +0.000 OA
BRANCH  15  16
ATOM     16  C   UNL     1       1.259   3.368  21.074  0.00  0.00    +0.000 C 
ATOM     17  C   UNL     1       1.737   2.045  21.667  0.00  0.00    +0.000 C 
ATOM     18  C   UNL     1       2.121   4.517  21.576  0.00  0.00    +0.000 C 
ENDBRANCH  15  16
ENDBRANCH   9  15
ENDBRANCH   1   9
BRANCH   1  19
ATOM     19  O   UNL     1       3.922   5.896  16.965  0.00  0.00    +0.000 OA
BRANCH  19  20
ATOM     20  P   UNL     1       5.537   5.849  16.740  0.00  0.00    +0.000 P 
ATOM     21  O   UNL     1       6.277   4.663  17.267  0.00  0.00    +0.000 OA
BRANCH  20  22
ATOM     22  O   UNL     1       5.908   6.032  15.169  0.00  0.00    +0.000 OA
BRANCH  22  24
ATOM     23  C   UNL     1       5.536   4.044  13.903  0.00  0.00    +0.000 C 
ATOM     24  C   UNL     1       6.590   4.921  14.554  0.00  0.00    +0.000 C 
ATOM     25  C   UNL     1       7.707   5.284  13.559  0.00  0.00    +0.000 C 
ENDBRANCH  22  24
ENDBRANCH  20  22
BRANCH  20  26
ATOM     26  O   UNL     1       6.110   7.179  17.457  0.00  0.00    +0.000 OA
BRANCH  26  27
ATOM     27  C   UNL     1       7.536   7.176  17.597  0.00  0.00    +0.000 C 
ATOM     28  C   UNL     1       8.083   8.608  17.692  0.00  0.00    +0.000 C 
ATOM     29  C   UNL     1       7.945   6.409  18.840  0.00  0.00    +0.000 C 
ENDBRANCH  26  27
ENDBRANCH  20  26
ENDBRANCH  19  20
ENDBRANCH   1  19
TORSDOF 12
ENDMDL
MODEL 2
REMARK VINA RESULT:      -6.5      2.669      6.635
REMARK  Name = 
REMARK  20 active torsions:
REMARK  status: ('A' for Active; 'I' for Inactive)
REMARK    1  A    between atoms: C_1  and  C_2
REMARK    2  A    between atoms: C_2  and  C_3
REMARK    3  A    between atoms: C_2  and  O_4
REMARK    4  A    between atoms: O_4  and  P_5
REMARK    5  A    between atoms: P_5  and  O_7
REMARK    6  A    between atoms: P_5  and  O_11
REMARK    7  A    between atoms: O_7  and  C_8
REMARK    8  A    between atoms: C_8  and  C_9
REMARK    9  A    between atoms: C_8  and  C_10
REMARK   10  A    between atoms: O_11  and  C_12
REMARK   11  A    between atoms: C_12  and  C_13
REMARK   12  A    between atoms: C_12  and  P_20
REMARK   13  A    between atoms: P_20  and  O_22
REMARK   14  A    between atoms: P_20  and  O_26
REMARK   15  A    between atoms: O_22  and  C_23
REMARK   16  A    between atoms: C_23  and  C_24
REMARK   17  A    between atoms: C_23  and  C_25
REMARK   18  A    between atoms: O_26  and  C_27
REMARK   19  A    between atoms: C_27  and  C_28
REMARK   20  A    between atoms: C_27  and  C_29
REMARK                            x       y       z     vdW  Elec       q    Type
REMARK                         _______ _______ _______ _____ _____    ______ ____
ROOT
ATOM      1  C   UNL     1       3.567   6.558  17.606  0.00  0.00    +0.000 C 
ENDROOT
BRANCH   1   2
ATOM      2  C   UNL     1       3.134   5.237  18.293  0.00  0.00    +0.000 A 
ATOM      3  C   UNL     1       1.862   4.682  18.076  0.00  0.00    +0.000 A 
ATOM      4  C   UNL     1       1.325   3.757  18.978  0.00  0.00    +0.000 A 
ATOM      5  C   UNL     1       2.024   3.412  20.131  0.00  0.00    +0.000 A 
ATOM      6 CL   UNL     1       1.225   2.580  21.407  0.00  0.00    +0.000 Cl
ATOM      7  C   UNL     1       3.340   3.838  20.290  0.00  0.00    +0.000 A 
ATOM      8  C   UNL     1       3.916   4.680  19.343  0.00  0.00    +0.000 A 
ENDBRANCH   1   2
BRANCH   1   9
ATOM      9  P   UNL     1       5.055   6.371  16.558  0.00  0.00    +0.000 P 
ATOM     10  O   UNL     1       4.470   7.357  15.537  0.00  0.00    +0.000 OA
BRANCH   9  11
ATOM     11  O   UNL     1       5.980   7.208  17.674  0.00  0.00    +0.000 OA
BRANCH  11  12
ATOM     12  C   UNL     1       7.407   7.094  17.677  0.00  0.00    +0.000 C 
ATOM     13  C   UNL     1       8.048   8.468  17.791  0.00  0.00    +0.000 C 
ATOM     14  C   UNL     1       7.823   6.147  18.805  0.00  0.00    +0.000 C 
ENDBRANCH  11  12
ENDBRANCH   9  11
BRANCH   9  15
ATOM     15  O   UNL     1       6.462   6.195  15.567  0.00  0.00    +0.000 OA
BRANCH  15  16
ATOM     16  C   UNL     1       6.811   4.832  15.316  0.00  0.00    +0.000 C 
ATOM     17  C   UNL     1       5.896   3.882  16.084  0.00  0.00    +0.000 C 
ATOM     18  C   UNL     1       6.698   4.585  13.819  0.00  0.00    +0.000 C 
ENDBRANCH  15  16
ENDBRANCH   9  15
ENDBRANCH   1   9
BRANCH   1  19
ATOM     19  O   UNL     1       2.436   7.410  17.203  0.00  0.00    +0.000 OA
BRANCH  19  20
ATOM     20  P   UNL     1       1.971   8.710  18.071  0.00  0.00    +0.000 P 
ATOM     21  O   UNL     1       2.516  10.042  17.670  0.00  0.00    +0.000 OA
BRANCH  20  22
ATOM     22  O   UNL     1       0.351   8.814  18.134  0.00  0.00    +0.000 OA
BRANCH  22  24
ATOM     23  C   UNL     1      -1.556   9.914  17.211  0.00  0.00    +0.000 C 
ATOM     24  C   UNL     1      -0.203  10.119  17.869  0.00  0.00    +0.000 C 
ATOM     25  C   UNL     1      -0.309  11.063  19.080  0.00  0.00    +0.000 C 
ENDBRANCH  22  24
ENDBRANCH  20  22
BRANCH  20  26
ATOM     26  O   UNL     1       2.423   8.398  19.590  0.00  0.00    +0.000 OA
BRANCH  26  27
ATOM     27  C   UNL     1       1.318   8.261  20.492  0.00  0.00    +0.000 C 
ATOM     28  C   UNL     1       1.224   6.827  21.034  0.00  0.00    +0.000 C 
ATOM     29  C   UNL     1       1.462   9.220  21.659  0.00  0.00    +0.000 C 
ENDBRANCH  26  27
ENDBRANCH  20  26
ENDBRANCH  19  20
ENDBRANCH   1  19
TORSDOF 12
ENDMDL
MODEL 3
REMARK VINA RESULT:      -6.2      2.892      6.609
REMARK  Name = 
REMARK  20 active torsions:
REMARK  status: ('A' for Active; 'I' for Inactive)
REMARK    1  A    between atoms: C_1  and  C_2
REMARK    2  A    between atoms: C_2  and  C_3
REMARK    3  A    between atoms: C_2  and  O_4
REMARK    4  A    between atoms: O_4  and  P_5
REMARK    5  A    between atoms: P_5  and  O_7
REMARK    6  A    between atoms: P_5  and  O_11
REMARK    7  A    between atoms: O_7  and  C_8
REMARK    8  A    between atoms: C_8  and  C_9
REMARK    9  A    between atoms: C_8  and  C_10
REMARK   10  A    between atoms: O_11  and  C_12
REMARK   11  A    between atoms: C_12  and  C_13
REMARK   12  A    between atoms: C_12  and  P_20
REMARK   13  A    between atoms: P_20  and  O_22
REMARK   14  A    between atoms: P_20  and  O_26
REMARK   15  A    between atoms: O_22  and  C_23
REMARK   16  A    between atoms: C_23  and  C_24
REMARK   17  A    between atoms: C_23  and  C_25
REMARK   18  A    between atoms: O_26  and  C_27
REMARK   19  A    between atoms: C_27  and  C_28
REMARK   20  A    between atoms: C_27  and  C_29
REMARK                            x       y       z     vdW  Elec       q    Type
REMARK                         _______ _______ _______ _____ _____    ______ ____
ROOT
ATOM      1  C   UNL     1       3.954   7.103  17.505  0.00  0.00    +0.000 C 
ENDROOT
BRANCH   1   2
ATOM      2  C   UNL     1       3.205   5.984  18.273  0.00  0.00    +0.000 A 
ATOM      3  C   UNL     1       3.778   5.351  19.388  0.00  0.00    +0.000 A 
ATOM      4  C   UNL     1       3.314   4.103  19.816  0.00  0.00    +0.000 A 
ATOM      5  C   UNL     1       2.309   3.447  19.111  0.00  0.00    +0.000 A 
ATOM      6 CL   UNL     1       1.998   1.780  19.402  0.00  0.00    +0.000 Cl
ATOM      7  C   UNL     1       1.632   4.117  18.095  0.00  0.00    +0.000 A 
ATOM      8  C   UNL     1       2.025   5.402  17.730  0.00  0.00    +0.000 A 
ENDBRANCH   1   2
BRANCH   1   9
ATOM      9  P   UNL     1       5.379   6.484  16.538  0.00  0.00    +0.000 P 
ATOM     10  O   UNL     1       4.737   7.005  15.244  0.00  0.00    +0.000 OA
BRANCH   9  11
ATOM     11  O   UNL     1       6.369   7.668  17.185  0.00  0.00    +0.000 OA
BRANCH  11  12
ATOM     12  C   UNL     1       7.675   7.346  17.676  0.00  0.00    +0.000 C 
ATOM     13  C   UNL     1       8.352   8.586  18.237  0.00  0.00    +0.000 C 
ATOM     14  C   UNL     1       7.549   6.220  18.704  0.00  0.00    +0.000 C 
ENDBRANCH  11  12
ENDBRANCH   9  11
BRANCH   9  15
ATOM     15  O   UNL     1       6.726   5.899  15.623  0.00  0.00    +0.000 OA
BRANCH  15  16
ATOM     16  C   UNL     1       6.697   4.486  15.412  0.00  0.00    +0.000 C 
ATOM     17  C   UNL     1       5.595   3.831  16.241  0.00  0.00    +0.000 C 
ATOM     18  C   UNL     1       6.466   4.236  13.929  0.00  0.00    +0.000 C 
ENDBRANCH  15  16
ENDBRANCH   9  15
ENDBRANCH   1   9
BRANCH   1  19
ATOM     19  O   UNL     1       3.068   8.159  16.991  0.00  0.00    +0.000 OA
BRANCH  19  20
ATOM     20  P   UNL     1       1.969   8.912  17.933  0.00  0.00    +0.000 P 
ATOM     21  O   UNL     1       0.533   8.544  17.753  0.00  0.00    +0.000 OA
BRANCH  20  22
ATOM     22  O   UNL     1       2.349   8.751  19.505  0.00  0.00    +0.000 OA
BRANCH  22  24
ATOM     23  C   UNL     1       1.309   7.134  20.919  0.00  0.00    +0.000 C 
ATOM     24  C   UNL     1       1.235   8.559  20.401  0.00  0.00    +0.000 C 
ATOM     25  C   UNL     1       1.119   9.568  21.557  0.00  0.00    +0.000 C 
ENDBRANCH  22  24
ENDBRANCH  20  22
BRANCH  20  26
ATOM     26  O   UNL     1       2.146  10.488  17.626  0.00  0.00    +0.000 OA
BRANCH  26  27
ATOM     27  C   UNL     1       1.701  11.326  18.699  0.00  0.00    +0.000 C 
ATOM     28  C   UNL     1       2.443  12.671  18.692  0.00  0.00    +0.000 C 
ATOM     29  C   UNL     1       0.210  11.586  18.586  0.00  0.00    +0.000 C 
ENDBRANCH  26  27
ENDBRANCH  20  26
ENDBRANCH  19  20
ENDBRANCH   1  19
TORSDOF 12
ENDMDL
MODEL 4
REMARK VINA RESULT:      -6.1      0.755      2.618
REMARK  Name = 
REMARK  20 active torsions:
REMARK  status: ('A' for Active; 'I' for Inactive)
REMARK    1  A    between atoms: C_1  and  C_2
REMARK    2  A    between atoms: C_2  and  C_3
REMARK    3  A    between atoms: C_2  and  O_4
REMARK    4  A    between atoms: O_4  and  P_5
REMARK    5  A    between atoms: P_5  and  O_7
REMARK    6  A    between atoms: P_5  and  O_11
REMARK    7  A    between atoms: O_7  and  C_8
REMARK    8  A    between atoms: C_8  and  C_9
REMARK    9  A    between atoms: C_8  and  C_10
REMARK   10  A    between atoms: O_11  and  C_12
REMARK   11  A    between atoms: C_12  and  C_13
REMARK   12  A    between atoms: C_12  and  P_20
REMARK   13  A    between atoms: P_20  and  O_22
REMARK   14  A    between atoms: P_20  and  O_26
REMARK   15  A    between atoms: O_22  and  C_23
REMARK   16  A    between atoms: C_23  and  C_24
REMARK   17  A    between atoms: C_23  and  C_25
REMARK   18  A    between atoms: O_26  and  C_27
REMARK   19  A    between atoms: C_27  and  C_28
REMARK   20  A    between atoms: C_27  and  C_29
REMARK                            x       y       z     vdW  Elec       q    Type
REMARK                         _______ _______ _______ _____ _____    ______ ____
ROOT
ATOM      1  C   UNL     1       3.283   5.629  18.072  0.00  0.00    +0.000 C 
ENDROOT
BRANCH   1   2
ATOM      2  C   UNL     1       2.750   7.020  18.502  0.00  0.00    +0.000 A 
ATOM      3  C   UNL     1       2.316   7.264  19.815  0.00  0.00    +0.000 A 
ATOM      4  C   UNL     1       1.473   8.344  20.098  0.00  0.00    +0.000 A 
ATOM      5  C   UNL     1       1.013   9.165  19.073  0.00  0.00    +0.000 A 
ATOM      6 CL   UNL     1      -0.296  10.245  19.354  0.00  0.00    +0.000 Cl
ATOM      7  C   UNL     1       1.544   9.028  17.792  0.00  0.00    +0.000 A 
ATOM      8  C   UNL     1       2.461   8.015  17.526  0.00  0.00    +0.000 A 
ENDBRANCH   1   2
BRANCH   1   9
ATOM      9  P   UNL     1       2.312   4.240  18.763  0.00  0.00    +0.000 P 
ATOM     10  O   UNL     1       1.899   3.814  17.347  0.00  0.00    +0.000 OA
BRANCH   9  11
ATOM     11  O   UNL     1       3.715   3.439  19.199  0.00  0.00    +0.000 OA
BRANCH  11  12
ATOM     12  C   UNL     1       3.750   2.011  19.282  0.00  0.00    +0.000 C 
ATOM     13  C   UNL     1       3.997   1.406  17.909  0.00  0.00    +0.000 C 
ATOM     14  C   UNL     1       4.807   1.604  20.311  0.00  0.00    +0.000 C 
ENDBRANCH  11  12
ENDBRANCH   9  11
BRANCH   9  15
ATOM     15  O   UNL     1       1.394   2.927  19.416  0.00  0.00    +0.000 OA
BRANCH  15  16
ATOM     16  C   UNL     1       0.814   3.219  20.689  0.00  0.00    +0.000 C 
ATOM     17  C   UNL     1       1.533   2.466  21.804  0.00  0.00    +0.000 C 
ATOM     18  C   UNL     1       0.907   4.720  20.915  0.00  0.00    +0.000 C 
ENDBRANCH  15  16
ENDBRANCH   9  15
ENDBRANCH   1   9
BRANCH   1  19
ATOM     19  O   UNL     1       3.810   5.600  16.698  0.00  0.00    +0.000 OA
BRANCH  19  20
ATOM     20  P   UNL     1       5.211   6.325  16.286  0.00  0.00    +0.000 P 
ATOM     21  O   UNL     1       5.170   7.343  15.193  0.00  0.00    +0.000 OA
BRANCH  20  22
ATOM     22  O   UNL     1       5.922   6.992  17.585  0.00  0.00    +0.000 OA
BRANCH  22  24
ATOM     23  C   UNL     1       7.988   8.186  17.645  0.00  0.00    +0.000 C 
ATOM     24  C   UNL     1       7.348   6.809  17.682  0.00  0.00    +0.000 C 
ATOM     25  C   UNL     1       7.843   5.996  18.891  0.00  0.00    +0.000 C 
ENDBRANCH  22  24
ENDBRANCH  20  22
BRANCH  20  26
ATOM     26  O   UNL     1       6.202   5.127  15.844  0.00  0.00    +0.000 OA
BRANCH  26  27
ATOM     27  C   UNL     1       6.254   4.932  14.425  0.00  0.00    +0.000 C 
ATOM     28  C   UNL     1       7.672   5.171  13.888  0.00  0.00    +0.000 C 
ATOM     29  C   UNL     1       5.823   3.522  14.068  0.00  0.00    +0.000 C 
ENDBRANCH  26  27
ENDBRANCH  20  26
ENDBRANCH  19  20
ENDBRANCH   1  19
TORSDOF 12
ENDMDL
MODEL 5
REMARK VINA RESULT:      -6.0      0.729      1.185
REMARK  Name = 
REMARK  20 active torsions:
REMARK  status: ('A' for Active; 'I' for Inactive)
REMARK    1  A    between atoms: C_1  and  C_2
REMARK    2  A    between atoms: C_2  and  C_3
REMARK    3  A    between atoms: C_2  and  O_4
REMARK    4  A    between atoms: O_4  and  P_5
REMARK    5  A    between atoms: P_5  and  O_7
REMARK    6  A    between atoms: P_5  and  O_11
REMARK    7  A    between atoms: O_7  and  C_8
REMARK    8  A    between atoms: C_8  and  C_9
REMARK    9  A    between atoms: C_8  and  C_10
REMARK   10  A    between atoms: O_11  and  C_12
REMARK   11  A    between atoms: C_12  and  C_13
REMARK   12  A    between atoms: C_12  and  P_20
REMARK   13  A    between atoms: P_20  and  O_22
REMARK   14  A    between atoms: P_20  and  O_26
REMARK   15  A    between atoms: O_22  and  C_23
REMARK   16  A    between atoms: C_23  and  C_24
REMARK   17  A    between atoms: C_23  and  C_25
REMARK   18  A    between atoms: O_26  and  C_27
REMARK   19  A    between atoms: C_27  and  C_28
REMARK   20  A    between atoms: C_27  and  C_29
REMARK                            x       y       z     vdW  Elec       q    Type
REMARK                         _______ _______ _______ _____ _____    ______ ____
ROOT
ATOM      1  C   UNL     1       3.164   5.792  18.098  0.00  0.00    +0.000 C 
ENDROOT
BRANCH   1   2
ATOM      2  C   UNL     1       2.360   7.098  18.334  0.00  0.00    +0.000 A 
ATOM      3  C   UNL     1       2.322   8.118  17.370  0.00  0.00    +0.000 A 
ATOM      4  C   UNL     1       1.964   9.422  17.727  0.00  0.00    +0.000 A 
ATOM      5  C   UNL     1       1.690   9.738  19.054  0.00  0.00    +0.000 A 
ATOM      6 CL   UNL     1       1.618  11.383  19.553  0.00  0.00    +0.000 Cl
ATOM      7  C   UNL     1       1.583   8.717  19.996  0.00  0.00    +0.000 A 
ATOM      8  C   UNL     1       1.840   7.401  19.623  0.00  0.00    +0.000 A 
ENDBRANCH   1   2
BRANCH   1   9
ATOM      9  P   UNL     1       2.325   4.301  18.748  0.00  0.00    +0.000 P 
ATOM     10  O   UNL     1       1.778   3.990  17.348  0.00  0.00    +0.000 OA
BRANCH   9  11
ATOM     11  O   UNL     1       3.796   3.530  18.956  0.00  0.00    +0.000 OA
BRANCH  11  12
ATOM     12  C   UNL     1       3.859   2.120  19.189  0.00  0.00    +0.000 C 
ATOM     13  C   UNL     1       4.182   1.382  17.900  0.00  0.00    +0.000 C 
ATOM     14  C   UNL     1       4.876   1.850  20.301  0.00  0.00    +0.000 C 
ENDBRANCH  11  12
ENDBRANCH   9  11
BRANCH   9  15
ATOM     15  O   UNL     1       1.532   2.892  19.362  0.00  0.00    +0.000 OA
BRANCH  15  16
ATOM     16  C   UNL     1       0.832   3.123  20.586  0.00  0.00    +0.000 C 
ATOM     17  C   UNL     1       1.504   2.394  21.747  0.00  0.00    +0.000 C 
ATOM     18  C   UNL     1       0.813   4.623  20.840  0.00  0.00    +0.000 C 
ENDBRANCH  15  16
ENDBRANCH   9  15
ENDBRANCH   1   9
BRANCH   1  19
ATOM     19  O   UNL     1       3.898   5.776  16.823  0.00  0.00    +0.000 OA
BRANCH  19  20
ATOM     20  P   UNL     1       5.526   5.696  16.753  0.00  0.00    +0.000 P 
ATOM     21  O   UNL     1       6.181   4.452  17.257  0.00  0.00    +0.000 OA
BRANCH  20  22
ATOM     22  O   UNL     1       6.055   5.982  15.244  0.00  0.00    +0.000 OA
BRANCH  22  24
ATOM     23  C   UNL     1       5.525   4.058  13.936  0.00  0.00    +0.000 C 
ATOM     24  C   UNL     1       6.651   4.857  14.567  0.00  0.00    +0.000 C 
ATOM     25  C   UNL     1       7.743   5.193  13.536  0.00  0.00    +0.000 C 
ENDBRANCH  22  24
ENDBRANCH  20  22
BRANCH  20  26
ATOM     26  O   UNL     1       6.056   6.952  17.621  0.00  0.00    +0.000 OA
BRANCH  26  27
ATOM     27  C   UNL     1       7.485   7.038  17.675  0.00  0.00    +0.000 C 
ATOM     28  C   UNL     1       7.949   8.502  17.668  0.00  0.00    +0.000 C 
ATOM     29  C   UNL     1       8.011   6.360  18.926  0.00  0.00    +0.000 C 
ENDBRANCH  26  27
ENDBRANCH  20  26
ENDBRANCH  19  20
ENDBRANCH   1  19
TORSDOF 12
ENDMDL
MODEL 6
REMARK VINA RESULT:      -5.8      0.976      2.837
REMARK  Name = 
REMARK  20 active torsions:
REMARK  status: ('A' for Active; 'I' for Inactive)
REMARK    1  A    between atoms: C_1  and  C_2
REMARK    2  A    between atoms: C_2  and  C_3
REMARK    3  A    between atoms: C_2  and  O_4
REMARK    4  A    between atoms: O_4  and  P_5
REMARK    5  A    between atoms: P_5  and  O_7
REMARK    6  A    between atoms: P_5  and  O_11
REMARK    7  A    between atoms: O_7  and  C_8
REMARK    8  A    between atoms: C_8  and  C_9
REMARK    9  A    between atoms: C_8  and  C_10
REMARK   10  A    between atoms: O_11  and  C_12
REMARK   11  A    between atoms: C_12  and  C_13
REMARK   12  A    between atoms: C_12  and  P_20
REMARK   13  A    between atoms: P_20  and  O_22
REMARK   14  A    between atoms: P_20  and  O_26
REMARK   15  A    between atoms: O_22  and  C_23
REMARK   16  A    between atoms: C_23  and  C_24
REMARK   17  A    between atoms: C_23  and  C_25
REMARK   18  A    between atoms: O_26  and  C_27
REMARK   19  A    between atoms: C_27  and  C_28
REMARK   20  A    between atoms: C_27  and  C_29
REMARK                            x       y       z     vdW  Elec       q    Type
REMARK                         _______ _______ _______ _____ _____    ______ ____
ROOT
ATOM      1  C   UNL     1       3.422   5.308  17.836  0.00  0.00    +0.000 C 
ENDROOT
BRANCH   1   2
ATOM      2  C   UNL     1       3.033   6.729  18.319  0.00  0.00    +0.000 A 
ATOM      3  C   UNL     1       2.585   6.959  19.630  0.00  0.00    +0.000 A 
ATOM      4  C   UNL     1       1.858   8.114  19.942  0.00  0.00    +0.000 A 
ATOM      5  C   UNL     1       1.527   9.027  18.946  0.00  0.00    +0.000 A 
ATOM      6 CL   UNL     1       0.338  10.234  19.243  0.00  0.00    +0.000 Cl
ATOM      7  C   UNL     1       2.083   8.891  17.676  0.00  0.00    +0.000 A 
ATOM      8  C   UNL     1       2.890   7.795  17.386  0.00  0.00    +0.000 A 
ENDBRANCH   1   2
BRANCH   1   9
ATOM      9  P   UNL     1       2.285   4.006  18.436  0.00  0.00    +0.000 P 
ATOM     10  O   UNL     1       1.229   4.445  17.413  0.00  0.00    +0.000 OA
BRANCH   9  11
ATOM     11  O   UNL     1       3.251   2.814  17.766  0.00  0.00    +0.000 OA
BRANCH  11  12
ATOM     12  C   UNL     1       4.325   2.233  18.513  0.00  0.00    +0.000 C 
ATOM     13  C   UNL     1       4.620   3.063  19.751  0.00  0.00    +0.000 C 
ATOM     14  C   UNL     1       3.966   0.782  18.841  0.00  0.00    +0.000 C 
ENDBRANCH  11  12
ENDBRANCH   9  11
BRANCH   9  15
ATOM     15  O   UNL     1       1.211   2.775  19.004  0.00  0.00    +0.000 OA
BRANCH  15  16
ATOM     16  C   UNL     1       0.749   2.996  20.339  0.00  0.00    +0.000 C 
ATOM     17  C   UNL     1       1.642   2.283  21.351  0.00  0.00    +0.000 C 
ATOM     18  C   UNL     1       0.749   4.496  20.593  0.00  0.00    +0.000 C 
ENDBRANCH  15  16
ENDBRANCH   9  15
ENDBRANCH   1   9
BRANCH   1  19
ATOM     19  O   UNL     1       3.982   5.282  16.475  0.00  0.00    +0.000 OA
BRANCH  19  20
ATOM     20  P   UNL     1       5.585   5.384  16.189  0.00  0.00    +0.000 P 
ATOM     21  O   UNL     1       6.104   6.655  15.599  0.00  0.00    +0.000 OA
BRANCH  20  22
ATOM     22  O   UNL     1       6.435   5.056  17.534  0.00  0.00    +0.000 OA
BRANCH  22  24
ATOM     23  C   UNL     1       7.432   5.669  19.614  0.00  0.00    +0.000 C 
ATOM     24  C   UNL     1       6.801   6.196  18.337  0.00  0.00    +0.000 C 
ATOM     25  C   UNL     1       7.705   7.238  17.655  0.00  0.00    +0.000 C 
ENDBRANCH  22  24
ENDBRANCH  20  22
BRANCH  20  26
ATOM     26  O   UNL     1       5.920   4.167  15.181  0.00  0.00    +0.000 OA
BRANCH  26  27
ATOM     27  C   UNL     1       6.072   4.586  13.820  0.00  0.00    +0.000 C 
ATOM     28  C   UNL     1       7.544   4.875  13.493  0.00  0.00    +0.000 C 
ATOM     29  C   UNL     1       5.558   3.516  12.874  0.00  0.00    +0.000 C 
ENDBRANCH  26  27
ENDBRANCH  20  26
ENDBRANCH  19  20
ENDBRANCH   1  19
TORSDOF 12
ENDMDL
MODEL 7
REMARK VINA RESULT:      -5.7      7.372     11.417
REMARK  Name = 
REMARK  20 active torsions:
REMARK  status: ('A' for Active; 'I' for Inactive)
REMARK    1  A    between atoms: C_1  and  C_2
REMARK    2  A    between atoms: C_2  and  C_3
REMARK    3  A    between atoms: C_2  and  O_4
REMARK    4  A    between atoms: O_4  and  P_5
REMARK    5  A    between atoms: P_5  and  O_7
REMARK    6  A    between atoms: P_5  and  O_11
REMARK    7  A    between atoms: O_7  and  C_8
REMARK    8  A    between atoms: C_8  and  C_9
REMARK    9  A    between atoms: C_8  and  C_10
REMARK   10  A    between atoms: O_11  and  C_12
REMARK   11  A    between atoms: C_12  and  C_13
REMARK   12  A    between atoms: C_12  and  P_20
REMARK   13  A    between atoms: P_20  and  O_22
REMARK   14  A    between atoms: P_20  and  O_26
REMARK   15  A    between atoms: O_22  and  C_23
REMARK   16  A    between atoms: C_23  and  C_24
REMARK   17  A    between atoms: C_23  and  C_25
REMARK   18  A    between atoms: O_26  and  C_27
REMARK   19  A    between atoms: C_27  and  C_28
REMARK   20  A    between atoms: C_27  and  C_29
REMARK                            x       y       z     vdW  Elec       q    Type
REMARK                         _______ _______ _______ _____ _____    ______ ____
ROOT
ATOM      1  C   UNL     1      -1.894  12.040  20.056  0.00  0.00    +0.000 C 
ENDROOT
BRANCH   1   2
ATOM      2  C   UNL     1      -2.421  11.233  18.841  0.00  0.00    +0.000 A 
ATOM      3  C   UNL     1      -1.576  10.392  18.099  0.00  0.00    +0.000 A 
ATOM      4  C   UNL     1      -1.921  10.002  16.800  0.00  0.00    +0.000 A 
ATOM      5  C   UNL     1      -3.084  10.483  16.207  0.00  0.00    +0.000 A 
ATOM      6 CL   UNL     1      -3.322  10.313  14.512  0.00  0.00    +0.000 Cl
ATOM      7  C   UNL     1      -4.002  11.198  16.973  0.00  0.00    +0.000 A 
ATOM      8  C   UNL     1      -3.709  11.504  18.299  0.00  0.00    +0.000 A 
ENDBRANCH   1   2
BRANCH   1   9
ATOM      9  P   UNL     1      -0.080  12.277  20.031  0.00  0.00    +0.000 P 
ATOM     10  O   UNL     1      -0.265  13.777  20.298  0.00  0.00    +0.000 OA
BRANCH   9  11
ATOM     11  O   UNL     1       0.075  11.466  21.487  0.00  0.00    +0.000 OA
BRANCH  11  12
ATOM     12  C   UNL     1      -0.307  10.092  21.606  0.00  0.00    +0.000 C 
ATOM     13  C   UNL     1       0.674   9.202  20.859  0.00  0.00    +0.000 C 
ATOM     14  C   UNL     1      -0.418   9.739  23.091  0.00  0.00    +0.000 C 
ENDBRANCH  11  12
ENDBRANCH   9  11
BRANCH   9  15
ATOM     15  O   UNL     1       1.635  12.502  20.008  0.00  0.00    +0.000 OA
BRANCH  15  16
ATOM     16  C   UNL     1       2.094  13.249  18.879  0.00  0.00    +0.000 C 
ATOM     17  C   UNL     1       3.216  14.206  19.274  0.00  0.00    +0.000 C 
ATOM     18  C   UNL     1       2.583  12.262  17.829  0.00  0.00    +0.000 C 
ENDBRANCH  15  16
ENDBRANCH   9  15
ENDBRANCH   1   9
BRANCH   1  19
ATOM     19  O   UNL     1      -2.810  13.103  20.499  0.00  0.00    +0.000 OA
BRANCH  19  20
ATOM     20  P   UNL     1      -3.421  13.156  22.010  0.00  0.00    +0.000 P 
ATOM     21  O   UNL     1      -2.560  12.655  23.124  0.00  0.00    +0.000 OA
BRANCH  20  22
ATOM     22  O   UNL     1      -3.920  14.657  22.380  0.00  0.00    +0.000 OA
BRANCH  22  24
ATOM     23  C   UNL     1      -2.315  16.336  22.927  0.00  0.00    +0.000 C 
ATOM     24  C   UNL     1      -3.251  15.283  23.493  0.00  0.00    +0.000 C 
ATOM     25  C   UNL     1      -4.164  15.874  24.582  0.00  0.00    +0.000 C 
ENDBRANCH  22  24
ENDBRANCH  20  22
BRANCH  20  26
ATOM     26  O   UNL     1      -4.772  12.273  21.959  0.00  0.00    +0.000 OA
BRANCH  26  27
ATOM     27  C   UNL     1      -5.945  13.013  22.320  0.00  0.00    +0.000 C 
ATOM     28  C   UNL     1      -7.110  12.695  21.371  0.00  0.00    +0.000 C 
ATOM     29  C   UNL     1      -6.363  12.686  23.741  0.00  0.00    +0.000 C 
ENDBRANCH  26  27
ENDBRANCH  20  26
ENDBRANCH  19  20
ENDBRANCH   1  19
TORSDOF 12
ENDMDL
MODEL 8
REMARK VINA RESULT:      -5.6      2.926      6.680
REMARK  Name = 
REMARK  20 active torsions:
REMARK  status: ('A' for Active; 'I' for Inactive)
REMARK    1  A    between atoms: C_1  and  C_2
REMARK    2  A    between atoms: C_2  and  C_3
REMARK    3  A    between atoms: C_2  and  O_4
REMARK    4  A    between atoms: O_4  and  P_5
REMARK    5  A    between atoms: P_5  and  O_7
REMARK    6  A    between atoms: P_5  and  O_11
REMARK    7  A    between atoms: O_7  and  C_8
REMARK    8  A    between atoms: C_8  and  C_9
REMARK    9  A    between atoms: C_8  and  C_10
REMARK   10  A    between atoms: O_11  and  C_12
REMARK   11  A    between atoms: C_12  and  C_13
REMARK   12  A    between atoms: C_12  and  P_20
REMARK   13  A    between atoms: P_20  and  O_22
REMARK   14  A    between atoms: P_20  and  O_26
REMARK   15  A    between atoms: O_22  and  C_23
REMARK   16  A    between atoms: C_23  and  C_24
REMARK   17  A    between atoms: C_23  and  C_25
REMARK   18  A    between atoms: O_26  and  C_27
REMARK   19  A    between atoms: C_27  and  C_28
REMARK   20  A    between atoms: C_27  and  C_29
REMARK                            x       y       z     vdW  Elec       q    Type
REMARK                         _______ _______ _______ _____ _____    ______ ____
ROOT
ATOM      1  C   UNL     1       3.241   7.064  18.200  0.00  0.00    +0.000 C 
ENDROOT
BRANCH   1   2
ATOM      2  C   UNL     1       3.070   6.041  19.353  0.00  0.00    +0.000 A 
ATOM      3  C   UNL     1       3.941   4.949  19.498  0.00  0.00    +0.000 A 
ATOM      4  C   UNL     1       3.563   3.831  20.250  0.00  0.00    +0.000 A 
ATOM      5  C   UNL     1       2.297   3.765  20.823  0.00  0.00    +0.000 A 
ATOM      6 CL   UNL     1       1.697   2.267  21.420  0.00  0.00    +0.000 Cl
ATOM      7  C   UNL     1       1.477   4.891  20.813  0.00  0.00    +0.000 A 
ATOM      8  C   UNL     1       1.891   6.043  20.151  0.00  0.00    +0.000 A 
ENDBRANCH   1   2
BRANCH   1   9
ATOM      9  P   UNL     1       4.531   6.582  16.995  0.00  0.00    +0.000 P 
ATOM     10  O   UNL     1       3.996   7.617  15.996  0.00  0.00    +0.000 OA
BRANCH   9  11
ATOM     11  O   UNL     1       5.718   7.283  17.943  0.00  0.00    +0.000 OA
BRANCH  11  12
ATOM     12  C   UNL     1       7.105   7.062  17.667  0.00  0.00    +0.000 C 
ATOM     13  C   UNL     1       7.853   8.384  17.610  0.00  0.00    +0.000 C 
ATOM     14  C   UNL     1       7.669   6.104  18.718  0.00  0.00    +0.000 C 
ENDBRANCH  11  12
ENDBRANCH   9  11
BRANCH   9  15
ATOM     15  O   UNL     1       5.751   6.126  15.856  0.00  0.00    +0.000 OA
BRANCH  15  16
ATOM     16  C   UNL     1       5.887   4.712  15.706  0.00  0.00    +0.000 C 
ATOM     17  C   UNL     1       4.677   3.981  16.282  0.00  0.00    +0.000 C 
ATOM     18  C   UNL     1       6.034   4.408  14.222  0.00  0.00    +0.000 C 
ENDBRANCH  15  16
ENDBRANCH   9  15
ENDBRANCH   1   9
BRANCH   1  19
ATOM     19  O   UNL     1       1.978   7.689  17.776  0.00  0.00    +0.000 OA
BRANCH  19  20
ATOM     20  P   UNL     1       1.522   9.169  18.287  0.00  0.00    +0.000 P 
ATOM     21  O   UNL     1       2.048  10.353  17.542  0.00  0.00    +0.000 OA
BRANCH  20  22
ATOM     22  O   UNL     1      -0.097   9.283  18.359  0.00  0.00    +0.000 OA
BRANCH  22  24
ATOM     23  C   UNL     1      -1.876   9.763  16.843  0.00  0.00    +0.000 C 
ATOM     24  C   UNL     1      -0.684  10.345  17.580  0.00  0.00    +0.000 C 
ATOM     25  C   UNL     1      -1.075  11.614  18.359  0.00  0.00    +0.000 C 
ENDBRANCH  22  24
ENDBRANCH  20  22
BRANCH  20  26
ATOM     26  O   UNL     1       2.010   9.262  19.825  0.00  0.00    +0.000 OA
BRANCH  26  27
ATOM     27  C   UNL     1       0.967   9.654  20.726  0.00  0.00    +0.000 C 
ATOM     28  C   UNL     1       1.083   8.904  22.061  0.00  0.00    +0.000 C 
ATOM     29  C   UNL     1       1.028  11.146  20.992  0.00  0.00    +0.000 C 
ENDBRANCH  26  27
ENDBRANCH  20  26
ENDBRANCH  19  20
ENDBRANCH   1  19
TORSDOF 12
ENDMDL
MODEL 9
REMARK VINA RESULT:      -5.6      2.974      6.740
REMARK  Name = 
REMARK  20 active torsions:
REMARK  status: ('A' for Active; 'I' for Inactive)
REMARK    1  A    between atoms: C_1  and  C_2
REMARK    2  A    between atoms: C_2  and  C_3
REMARK    3  A    between atoms: C_2  and  O_4
REMARK    4  A    between atoms: O_4  and  P_5
REMARK    5  A    between atoms: P_5  and  O_7
REMARK    6  A    between atoms: P_5  and  O_11
REMARK    7  A    between atoms: O_7  and  C_8
REMARK    8  A    between atoms: C_8  and  C_9
REMARK    9  A    between atoms: C_8  and  C_10
REMARK   10  A    between atoms: O_11  and  C_12
REMARK   11  A    between atoms: C_12  and  C_13
REMARK   12  A    between atoms: C_12  and  P_20
REMARK   13  A    between atoms: P_20  and  O_22
REMARK   14  A    between atoms: P_20  and  O_26
REMARK   15  A    between atoms: O_22  and  C_23
REMARK   16  A    between atoms: C_23  and  C_24
REMARK   17  A    between atoms: C_23  and  C_25
REMARK   18  A    between atoms: O_26  and  C_27
REMARK   19  A    between atoms: C_27  and  C_28
REMARK   20  A    between atoms: C_27  and  C_29
REMARK                            x       y       z     vdW  Elec       q    Type
REMARK                         _______ _______ _______ _____ _____    ______ ____
ROOT
ATOM      1  C   UNL     1       3.181   7.110  18.219  0.00  0.00    +0.000 C 
ENDROOT
BRANCH   1   2
ATOM      2  C   UNL     1       3.089   6.052  19.349  0.00  0.00    +0.000 A 
ATOM      3  C   UNL     1       3.945   4.939  19.380  0.00  0.00    +0.000 A 
ATOM      4  C   UNL     1       3.609   3.802  20.124  0.00  0.00    +0.000 A 
ATOM      5  C   UNL     1       2.397   3.740  20.805  0.00  0.00    +0.000 A 
ATOM      6 CL   UNL     1       1.819   2.234  21.402  0.00  0.00    +0.000 Cl
ATOM      7  C   UNL     1       1.605   4.882  20.904  0.00  0.00    +0.000 A 
ATOM      8  C   UNL     1       1.985   6.049  20.247  0.00  0.00    +0.000 A 
ENDBRANCH   1   2
BRANCH   1   9
ATOM      9  P   UNL     1       4.434   6.703  16.950  0.00  0.00    +0.000 P 
ATOM     10  O   UNL     1       3.830   7.751  16.005  0.00  0.00    +0.000 OA
BRANCH   9  11
ATOM     11  O   UNL     1       5.639   7.410  17.871  0.00  0.00    +0.000 OA
BRANCH  11  12
ATOM     12  C   UNL     1       7.017   7.101  17.640  0.00  0.00    +0.000 C 
ATOM     13  C   UNL     1       7.860   8.365  17.694  0.00  0.00    +0.000 C 
ATOM     14  C   UNL     1       7.461   6.045  18.654  0.00  0.00    +0.000 C 
ENDBRANCH  11  12
ENDBRANCH   9  11
BRANCH   9  15
ATOM     15  O   UNL     1       5.619   6.318  15.749  0.00  0.00    +0.000 OA
BRANCH  15  16
ATOM     16  C   UNL     1       5.399   5.053  15.121  0.00  0.00    +0.000 C 
ATOM     17  C   UNL     1       6.624   4.618  14.322  0.00  0.00    +0.000 C 
ATOM     18  C   UNL     1       5.084   4.036  16.208  0.00  0.00    +0.000 C 
ENDBRANCH  15  16
ENDBRANCH   9  15
ENDBRANCH   1   9
BRANCH   1  19
ATOM     19  O   UNL     1       1.883   7.707  17.866  0.00  0.00    +0.000 OA
BRANCH  19  20
ATOM     20  P   UNL     1       1.460   9.213  18.327  0.00  0.00    +0.000 P 
ATOM     21  O   UNL     1       2.546  10.231  18.452  0.00  0.00    +0.000 OA
BRANCH  20  22
ATOM     22  O   UNL     1       0.301   9.811  17.358  0.00  0.00    +0.000 OA
BRANCH  22  24
ATOM     23  C   UNL     1      -0.888  11.718  18.161  0.00  0.00    +0.000 C 
ATOM     24  C   UNL     1      -0.920  10.207  18.014  0.00  0.00    +0.000 C 
ATOM     25  C   UNL     1      -2.225   9.739  17.346  0.00  0.00    +0.000 C 
ENDBRANCH  22  24
ENDBRANCH  20  22
BRANCH  20  26
ATOM     26  O   UNL     1       0.744   9.037  19.765  0.00  0.00    +0.000 OA
BRANCH  26  27
ATOM     27  C   UNL     1       1.394   9.766  20.813  0.00  0.00    +0.000 C 
ATOM     28  C   UNL     1       0.665  11.086  21.101  0.00  0.00    +0.000 C 
ATOM     29  C   UNL     1       1.439   8.940  22.086  0.00  0.00    +0.000 C 
ENDBRANCH  26  27
ENDBRANCH  20  26
ENDBRANCH  19  20
ENDBRANCH   1  19
TORSDOF 12
ENDMDL
