MODEL 1
REMARK VINA RESULT:      -8.3      0.000      0.000
REMARK  Name = 
REMARK  3 active torsions:
REMARK  status: ('A' for Active; 'I' for Inactive)
REMARK    1  A    between atoms: N_2  and  C_4
REMARK    2  A    between atoms: C_11  and  N_12
REMARK    3  A    between atoms: C_18  and  N_19
REMARK                            x       y       z     vdW  Elec       q    Type
REMARK                         _______ _______ _______ _____ _____    ______ ____
ROOT
ATOM      1  C   UNL     1       1.839   3.996  19.391  0.00  0.00    +0.000 C 
ATOM      2  C   UNL     1       2.827   4.950  17.857  0.00  0.00    +0.000 C 
ATOM      3  C   UNL     1       3.610   5.770  19.587  0.00  0.00    +0.000 C 
ATOM      4  C   UNL     1       2.492   5.364  20.508  0.00  0.00    +0.000 C 
ATOM      5  C   UNL     1       1.846   5.159  19.338  0.00  0.00    +0.000 C 
ATOM      6  C   UNL     1       2.369   6.834  18.606  0.00  0.00    +0.000 C 
ATOM      7  C   UNL     1       3.941   6.350  18.328  0.00  0.00    +0.000 C 
ATOM      8  C   UNL     1       4.427   4.591  18.119  0.00  0.00    +0.000 C 
ATOM      9  C   UNL     1       3.696   4.153  16.953  0.00  0.00    +0.000 C 
ATOM     10  C   UNL     1       2.665   3.024  16.996  0.00  0.00    +0.000 C 
ATOM     11  C   UNL     1       2.340   2.905  18.488  0.00  0.00    +0.000 C 
ATOM     12  C   UNL     1       3.402   3.708  19.175  0.00  0.00    +0.000 C 
ENDROOT
BRANCH   1  14
ATOM     13  O   UNL     1       2.389   3.676  21.975  0.00  0.00    +0.000 OA
ATOM     14  N   UNL     1       1.854   3.138  20.969  0.00  0.00    +0.000 N 
ATOM     15  O   UNL     1       1.197   2.109  20.983  0.00  0.00    +0.000 OA
ENDBRANCH   1  14
BRANCH   8  16
ATOM     16  N   UNL     1       5.894   4.433  18.290  0.00  0.00    +0.000 N 
ATOM     17  O   UNL     1       6.533   4.114  17.280  0.00  0.00    +0.000 OA
ATOM     18  O   UNL     1       6.386   4.760  19.378  0.00  0.00    +0.000 OA
ENDBRANCH   8  16
BRANCH  12  19
ATOM     19  N   UNL     1       4.167   2.338  19.514  0.00  0.00    +0.000 N 
ATOM     20  O   UNL     1       4.904   2.220  20.499  0.00  0.00    +0.000 OA
ATOM     21  O   UNL     1       3.784   1.353  18.860  0.00  0.00    +0.000 OA
ENDBRANCH  12  19
TORSDOF 3
ENDMDL
MODEL 2
REMARK VINA RESULT:      -7.4      1.679      3.981
REMARK  Name = 
REMARK  3 active torsions:
REMARK  status: ('A' for Active; 'I' for Inactive)
REMARK    1  A    between atoms: N_2  and  C_4
REMARK    2  A    between atoms: C_11  and  N_12
REMARK    3  A    between atoms: C_18  and  N_19
REMARK                            x       y       z     vdW  Elec       q    Type
REMARK                         _______ _______ _______ _____ _____    ______ ____
ROOT
ATOM      1  C   UNL     1       2.436   4.981  18.463  0.00  0.00    +0.000 C 
ATOM      2  C   UNL     1       1.910   3.497  19.791  0.00  0.00    +0.000 C 
ATOM      3  C   UNL     1       2.580   2.496  18.109  0.00  0.00    +0.000 C 
ATOM      4  C   UNL     1       2.437   3.639  17.142  0.00  0.00    +0.000 C 
ATOM      5  C   UNL     1       1.685   4.152  18.141  0.00  0.00    +0.000 C 
ATOM      6  C   UNL     1       0.696   2.548  18.395  0.00  0.00    +0.000 C 
ATOM      7  C   UNL     1       1.953   1.760  19.156  0.00  0.00    +0.000 C 
ATOM      8  C   UNL     1       3.314   2.640  20.021  0.00  0.00    +0.000 C 
ATOM      9  C   UNL     1       2.653   3.378  21.071  0.00  0.00    +0.000 C 
ATOM     10  C   UNL     1       2.690   4.904  21.164  0.00  0.00    +0.000 C 
ATOM     11  C   UNL     1       3.119   5.329  19.756  0.00  0.00    +0.000 C 
ATOM     12  C   UNL     1       3.588   4.065  19.102  0.00  0.00    +0.000 C 
ENDROOT
BRANCH   1  14
ATOM     13  O   UNL     1       4.217   4.947  16.486  0.00  0.00    +0.000 OA
ATOM     14  N   UNL     1       3.594   5.693  17.289  0.00  0.00    +0.000 N 
ATOM     15  O   UNL     1       3.590   6.913  17.263  0.00  0.00    +0.000 OA
ENDBRANCH   1  14
BRANCH   8  16
ATOM     16  N   UNL     1       4.467   1.730  20.240  0.00  0.00    +0.000 N 
ATOM     17  O   UNL     1       4.991   1.770  21.359  0.00  0.00    +0.000 OA
ATOM     18  O   UNL     1       4.730   0.909  19.351  0.00  0.00    +0.000 OA
ENDBRANCH   8  16
BRANCH  12  19
ATOM     19  N   UNL     1       5.099   4.516  19.400  0.00  0.00    +0.000 N 
ATOM     20  O   UNL     1       6.071   3.905  18.943  0.00  0.00    +0.000 OA
ATOM     21  O   UNL     1       5.215   5.640  19.915  0.00  0.00    +0.000 OA
ENDBRANCH  12  19
TORSDOF 3
ENDMDL
MODEL 3
REMARK VINA RESULT:      -7.3      0.927      1.211
REMARK  Name = 
REMARK  3 active torsions:
REMARK  status: ('A' for Active; 'I' for Inactive)
REMARK    1  A    between atoms: N_2  and  C_4
REMARK    2  A    between atoms: C_11  and  N_12
REMARK    3  A    between atoms: C_18  and  N_19
REMARK                            x       y       z     vdW  Elec       q    Type
REMARK                         _______ _______ _______ _____ _____    ______ ____
ROOT
ATOM      1  C   UNL     1       2.152   4.383  18.270  0.00  0.00    +0.000 C 
ATOM      2  C   UNL     1       3.641   5.386  17.263  0.00  0.00    +0.000 C 
ATOM      3  C   UNL     1       3.743   6.090  19.205  0.00  0.00    +0.000 C 
ATOM      4  C   UNL     1       2.363   5.669  19.629  0.00  0.00    +0.000 C 
ATOM      5  C   UNL     1       2.188   5.546  18.294  0.00  0.00    +0.000 C 
ATOM      6  C   UNL     1       2.956   7.241  17.906  0.00  0.00    +0.000 C 
ATOM      7  C   UNL     1       4.516   6.726  18.191  0.00  0.00    +0.000 C 
ATOM      8  C   UNL     1       5.032   4.967  18.068  0.00  0.00    +0.000 C 
ATOM      9  C   UNL     1       4.774   4.613  16.692  0.00  0.00    +0.000 C 
ATOM     10  C   UNL     1       3.789   3.515  16.288  0.00  0.00    +0.000 C 
ATOM     11  C   UNL     1       2.940   3.326  17.548  0.00  0.00    +0.000 C 
ATOM     12  C   UNL     1       3.683   4.060  18.623  0.00  0.00    +0.000 C 
ENDROOT
BRANCH   1  14
ATOM     13  O   UNL     1       0.950   2.364  19.520  0.00  0.00    +0.000 OA
ATOM     14  N   UNL     1       1.582   3.441  19.690  0.00  0.00    +0.000 N 
ATOM     15  O   UNL     1       1.983   3.864  20.762  0.00  0.00    +0.000 OA
ENDBRANCH   1  14
BRANCH   8  16
ATOM     16  N   UNL     1       6.332   4.756  18.753  0.00  0.00    +0.000 N 
ATOM     17  O   UNL     1       7.229   4.236  18.078  0.00  0.00    +0.000 OA
ATOM     18  O   UNL     1       6.471   5.234  19.886  0.00  0.00    +0.000 OA
ENDBRANCH   8  16
BRANCH  12  19
ATOM     19  N   UNL     1       4.261   2.652  19.133  0.00  0.00    +0.000 N 
ATOM     20  O   UNL     1       4.810   2.525  20.233  0.00  0.00    +0.000 OA
ATOM     21  O   UNL     1       3.908   1.670  18.459  0.00  0.00    +0.000 OA
ENDBRANCH  12  19
TORSDOF 3
ENDMDL
MODEL 4
REMARK VINA RESULT:      -7.3      1.817      3.001
REMARK  Name = 
REMARK  3 active torsions:
REMARK  status: ('A' for Active; 'I' for Inactive)
REMARK    1  A    between atoms: N_2  and  C_4
REMARK    2  A    between atoms: C_11  and  N_12
REMARK    3  A    between atoms: C_18  and  N_19
REMARK                            x       y       z     vdW  Elec       q    Type
REMARK                         _______ _______ _______ _____ _____    ______ ____
ROOT
ATOM      1  C   UNL     1       3.036   2.060  19.404  0.00  0.00    +0.000 C 
ATOM      2  C   UNL     1       1.664   3.457  18.767  0.00  0.00    +0.000 C 
ATOM      3  C   UNL     1       2.220   4.080  20.659  0.00  0.00    +0.000 C 
ATOM      4  C   UNL     1       2.781   2.766  21.131  0.00  0.00    +0.000 C 
ATOM      5  C   UNL     1       2.103   2.299  20.059  0.00  0.00    +0.000 C 
ATOM      6  C   UNL     1       0.513   3.249  20.486  0.00  0.00    +0.000 C 
ATOM      7  C   UNL     1       1.129   4.722  20.006  0.00  0.00    +0.000 C 
ATOM      8  C   UNL     1       2.501   4.891  18.795  0.00  0.00    +0.000 C 
ATOM      9  C   UNL     1       1.986   4.297  17.585  0.00  0.00    +0.000 C 
ATOM     10  C   UNL     1       2.626   3.075  16.922  0.00  0.00    +0.000 C 
ATOM     11  C   UNL     1       3.493   2.487  18.039  0.00  0.00    +0.000 C 
ATOM     12  C   UNL     1       3.534   3.553  19.091  0.00  0.00    +0.000 C 
ENDROOT
BRANCH   1  14
ATOM     13  O   UNL     1       4.957   2.180  21.243  0.00  0.00    +0.000 OA
ATOM     14  N   UNL     1       4.615   1.644  20.154  0.00  0.00    +0.000 N 
ATOM     15  O   UNL     1       5.206   0.732  19.598  0.00  0.00    +0.000 OA
ENDBRANCH   1  14
BRANCH   8  16
ATOM     16  N   UNL     1       3.096   6.250  18.868  0.00  0.00    +0.000 N 
ATOM     17  O   UNL     1       3.538   6.712  17.809  0.00  0.00    +0.000 OA
ATOM     18  O   UNL     1       2.984   6.872  19.933  0.00  0.00    +0.000 OA
ENDBRANCH   8  16
BRANCH  12  19
ATOM     19  N   UNL     1       4.989   3.973  18.558  0.00  0.00    +0.000 N 
ATOM     20  O   UNL     1       5.293   3.919  17.362  0.00  0.00    +0.000 OA
ATOM     21  O   UNL     1       5.694   4.571  19.388  0.00  0.00    +0.000 OA
ENDBRANCH  12  19
TORSDOF 3
ENDMDL
MODEL 5
REMARK VINA RESULT:      -7.3      1.255      1.541
REMARK  Name = 
REMARK  3 active torsions:
REMARK  status: ('A' for Active; 'I' for Inactive)
REMARK    1  A    between atoms: N_2  and  C_4
REMARK    2  A    between atoms: C_11  and  N_12
REMARK    3  A    between atoms: C_18  and  N_19
REMARK                            x       y       z     vdW  Elec       q    Type
REMARK                         _______ _______ _______ _____ _____    ______ ____
ROOT
ATOM      1  C   UNL     1       2.648   4.917  18.032  0.00  0.00    +0.000 C 
ATOM      2  C   UNL     1       4.294   5.531  16.958  0.00  0.00    +0.000 C 
ATOM      3  C   UNL     1       4.479   6.461  18.796  0.00  0.00    +0.000 C 
ATOM      4  C   UNL     1       3.042   6.323  19.220  0.00  0.00    +0.000 C 
ATOM      5  C   UNL     1       2.870   6.053  17.907  0.00  0.00    +0.000 C 
ATOM      6  C   UNL     1       3.907   7.539  17.332  0.00  0.00    +0.000 C 
ATOM      7  C   UNL     1       5.359   6.827  17.738  0.00  0.00    +0.000 C 
ATOM      8  C   UNL     1       5.587   5.008  17.861  0.00  0.00    +0.000 C 
ATOM      9  C   UNL     1       5.296   4.520  16.534  0.00  0.00    +0.000 C 
ATOM     10  C   UNL     1       4.154   3.547  16.239  0.00  0.00    +0.000 C 
ATOM     11  C   UNL     1       3.266   3.663  17.481  0.00  0.00    +0.000 C 
ATOM     12  C   UNL     1       4.102   4.407  18.478  0.00  0.00    +0.000 C 
ENDROOT
BRANCH   1  14
ATOM     13  O   UNL     1       2.268   4.731  20.660  0.00  0.00    +0.000 OA
ATOM     14  N   UNL     1       1.912   4.275  19.540  0.00  0.00    +0.000 N 
ATOM     15  O   UNL     1       0.983   3.505  19.352  0.00  0.00    +0.000 OA
ENDBRANCH   1  14
BRANCH   8  16
ATOM     16  N   UNL     1       6.826   4.688  18.614  0.00  0.00    +0.000 N 
ATOM     17  O   UNL     1       7.771   4.245  17.950  0.00  0.00    +0.000 OA
ATOM     18  O   UNL     1       6.875   5.011  19.808  0.00  0.00    +0.000 OA
ENDBRANCH   8  16
BRANCH  12  19
ATOM     19  N   UNL     1       4.437   3.006  19.187  0.00  0.00    +0.000 N 
ATOM     20  O   UNL     1       4.886   2.939  20.336  0.00  0.00    +0.000 OA
ATOM     21  O   UNL     1       3.995   2.006  18.596  0.00  0.00    +0.000 OA
ENDBRANCH  12  19
TORSDOF 3
ENDMDL
MODEL 6
REMARK VINA RESULT:      -6.9      2.675      4.811
REMARK  Name = 
REMARK  3 active torsions:
REMARK  status: ('A' for Active; 'I' for Inactive)
REMARK    1  A    between atoms: N_2  and  C_4
REMARK    2  A    between atoms: C_11  and  N_12
REMARK    3  A    between atoms: C_18  and  N_19
REMARK                            x       y       z     vdW  Elec       q    Type
REMARK                         _______ _______ _______ _____ _____    ______ ____
ROOT
ATOM      1  C   UNL     1       6.783   5.987  17.196  0.00  0.00    +0.000 C 
ATOM      2  C   UNL     1       5.144   5.747  15.973  0.00  0.00    +0.000 C 
ATOM      3  C   UNL     1       6.086   3.906  15.970  0.00  0.00    +0.000 C 
ATOM      4  C   UNL     1       7.429   4.382  16.453  0.00  0.00    +0.000 C 
ATOM      5  C   UNL     1       6.920   5.588  16.111  0.00  0.00    +0.000 C 
ATOM      6  C   UNL     1       6.297   4.991  14.417  0.00  0.00    +0.000 C 
ATOM      7  C   UNL     1       5.014   4.143  15.061  0.00  0.00    +0.000 C 
ATOM      8  C   UNL     1       4.271   4.533  16.695  0.00  0.00    +0.000 C 
ATOM      9  C   UNL     1       3.784   5.885  16.554  0.00  0.00    +0.000 C 
ATOM     10  C   UNL     1       4.293   7.045  17.410  0.00  0.00    +0.000 C 
ATOM     11  C   UNL     1       5.610   6.507  17.978  0.00  0.00    +0.000 C 
ATOM     12  C   UNL     1       5.583   5.039  17.681  0.00  0.00    +0.000 C 
ENDROOT
BRANCH   1  14
ATOM     13  O   UNL     1       8.337   4.262  18.495  0.00  0.00    +0.000 OA
ATOM     14  N   UNL     1       7.833   5.416  18.537  0.00  0.00    +0.000 N 
ATOM     15  O   UNL     1       8.102   6.276  19.360  0.00  0.00    +0.000 OA
ENDBRANCH   1  14
BRANCH   8  16
ATOM     16  N   UNL     1       3.446   3.396  17.177  0.00  0.00    +0.000 N 
ATOM     17  O   UNL     1       2.221   3.569  17.177  0.00  0.00    +0.000 OA
ATOM     18  O   UNL     1       4.021   2.324  17.410  0.00  0.00    +0.000 OA
ENDBRANCH   8  16
BRANCH  12  19
ATOM     19  N   UNL     1       5.139   4.777  19.201  0.00  0.00    +0.000 N 
ATOM     20  O   UNL     1       4.326   5.502  19.785  0.00  0.00    +0.000 OA
ATOM     21  O   UNL     1       5.482   3.675  19.660  0.00  0.00    +0.000 OA
ENDBRANCH  12  19
TORSDOF 3
ENDMDL
MODEL 7
REMARK VINA RESULT:      -6.7      2.339      3.497
REMARK  Name = 
REMARK  3 active torsions:
REMARK  status: ('A' for Active; 'I' for Inactive)
REMARK    1  A    between atoms: N_2  and  C_4
REMARK    2  A    between atoms: C_11  and  N_12
REMARK    3  A    between atoms: C_18  and  N_19
REMARK                            x       y       z     vdW  Elec       q    Type
REMARK                         _______ _______ _______ _____ _____    ______ ____
ROOT
ATOM      1  C   UNL     1       4.818   5.349  19.235  0.00  0.00    +0.000 C 
ATOM      2  C   UNL     1       5.674   6.365  17.661  0.00  0.00    +0.000 C 
ATOM      3  C   UNL     1       6.794   4.637  17.852  0.00  0.00    +0.000 C 
ATOM      4  C   UNL     1       6.384   4.303  19.261  0.00  0.00    +0.000 C 
ATOM      5  C   UNL     1       5.958   5.586  19.247  0.00  0.00    +0.000 C 
ATOM      6  C   UNL     1       7.574   6.251  18.498  0.00  0.00    +0.000 C 
ATOM      7  C   UNL     1       7.242   5.664  16.973  0.00  0.00    +0.000 C 
ATOM      8  C   UNL     1       5.538   5.319  16.379  0.00  0.00    +0.000 C 
ATOM      9  C   UNL     1       4.873   6.599  16.432  0.00  0.00    +0.000 C 
ATOM     10  C   UNL     1       3.648   6.862  17.310  0.00  0.00    +0.000 C 
ATOM     11  C   UNL     1       3.685   5.707  18.316  0.00  0.00    +0.000 C 
ATOM     12  C   UNL     1       4.686   4.744  17.754  0.00  0.00    +0.000 C 
ENDROOT
BRANCH   1  14
ATOM     13  O   UNL     1       4.878   2.787  19.953  0.00  0.00    +0.000 OA
ATOM     14  N   UNL     1       4.177   3.834  19.957  0.00  0.00    +0.000 N 
ATOM     15  O   UNL     1       3.116   3.973  20.545  0.00  0.00    +0.000 OA
ENDBRANCH   1  14
BRANCH   8  16
ATOM     16  N   UNL     1       5.573   4.447  15.177  0.00  0.00    +0.000 N 
ATOM     17  O   UNL     1       5.062   4.910  14.150  0.00  0.00    +0.000 OA
ATOM     18  O   UNL     1       6.221   3.395  15.246  0.00  0.00    +0.000 OA
ENDBRANCH   8  16
BRANCH  12  19
ATOM     19  N   UNL     1       3.468   3.858  17.199  0.00  0.00    +0.000 N 
ATOM     20  O   UNL     1       3.588   2.654  16.952  0.00  0.00    +0.000 OA
ATOM     21  O   UNL     1       2.355   4.407  17.262  0.00  0.00    +0.000 OA
ENDBRANCH  12  19
TORSDOF 3
ENDMDL
MODEL 8
REMARK VINA RESULT:      -6.7      2.123      4.396
REMARK  Name = 
REMARK  3 active torsions:
REMARK  status: ('A' for Active; 'I' for Inactive)
REMARK    1  A    between atoms: N_2  and  C_4
REMARK    2  A    between atoms: C_11  and  N_12
REMARK    3  A    between atoms: C_18  and  N_19
REMARK                            x       y       z     vdW  Elec       q    Type
REMARK                         _______ _______ _______ _____ _____    ______ ____
ROOT
ATOM      1  C   UNL     1       5.123   6.426  18.221  0.00  0.00    +0.000 C 
ATOM      2  C   UNL     1       3.994   5.155  19.382  0.00  0.00    +0.000 C 
ATOM      3  C   UNL     1       2.731   5.746  17.855  0.00  0.00    +0.000 C 
ATOM      4  C   UNL     1       3.498   6.972  17.442  0.00  0.00    +0.000 C 
ATOM      5  C   UNL     1       4.096   6.779  18.639  0.00  0.00    +0.000 C 
ATOM      6  C   UNL     1       2.453   6.539  19.566  0.00  0.00    +0.000 C 
ATOM      7  C   UNL     1       2.200   5.009  18.953  0.00  0.00    +0.000 C 
ATOM      8  C   UNL     1       3.560   3.933  18.345  0.00  0.00    +0.000 C 
ATOM      9  C   UNL     1       4.401   3.731  19.500  0.00  0.00    +0.000 C 
ATOM     10  C   UNL     1       5.863   4.180  19.551  0.00  0.00    +0.000 C 
ATOM     11  C   UNL     1       5.958   5.190  18.404  0.00  0.00    +0.000 C 
ATOM     12  C   UNL     1       4.694   5.001  17.623  0.00  0.00    +0.000 C 
ENDROOT
BRANCH   1  14
ATOM     13  O   UNL     1       4.914   7.028  15.637  0.00  0.00    +0.000 OA
ATOM     14  N   UNL     1       5.710   6.973  16.613  0.00  0.00    +0.000 N 
ATOM     15  O   UNL     1       6.854   7.398  16.619  0.00  0.00    +0.000 OA
ENDBRANCH   1  14
BRANCH   8  16
ATOM     16  N   UNL     1       3.018   2.833  17.506  0.00  0.00    +0.000 N 
ATOM     17  O   UNL     1       3.411   1.693  17.779  0.00  0.00    +0.000 OA
ATOM     18  O   UNL     1       2.121   3.112  16.699  0.00  0.00    +0.000 OA
ENDBRANCH   8  16
BRANCH  12  19
ATOM     19  N   UNL     1       5.525   4.131  16.559  0.00  0.00    +0.000 N 
ATOM     20  O   UNL     1       5.074   3.846  15.445  0.00  0.00    +0.000 OA
ATOM     21  O   UNL     1       6.724   3.973  16.841  0.00  0.00    +0.000 OA
ENDBRANCH  12  19
TORSDOF 3
ENDMDL
