MODEL 1
REMARK VINA RESULT:      -7.6      0.000      0.000
REMARK  Name = 
REMARK  9 active torsions:
REMARK  status: ('A' for Active; 'I' for Inactive)
REMARK    1  A    between atoms: C_1  and  C_2
REMARK    2  A    between atoms: C_2  and  N_3
REMARK    3  A    between atoms: C_5  and  C_6
REMARK    4  A    between atoms: C_6  and  O_8
REMARK    5  A    between atoms: C_15  and  N_16
REMARK    6  A    between atoms: C_18  and  N_19
REMARK    7  A    between atoms: N_19  and  C_20
REMARK    8  A    between atoms: C_21  and  N_22
REMARK    9  A    between atoms: N_22  and  C_23
REMARK                            x       y       z     vdW  Elec       q    Type
REMARK                         _______ _______ _______ _____ _____    ______ ____
ROOT
ATOM      1  N   UNL     1       2.962   5.435  19.862  0.00  0.00    +0.000 N 
ATOM      2  C   UNL     1       3.877   4.688  19.126  0.00  0.00    +0.000 A 
ATOM      3  C   UNL     1       4.499   5.061  18.000  0.00  0.00    +0.000 A 
ATOM      4  C   UNL     1       4.161   6.389  17.472  0.00  0.00    +0.000 A 
ATOM      5  O   UNL     1       4.677   6.791  16.431  0.00  0.00    +0.000 OA
ATOM      6  C   UNL     1       3.190   7.224  18.226  0.00  0.00    +0.000 A 
ATOM      7  C   UNL     1       2.881   8.485  17.712  0.00  0.00    +0.000 A 
ATOM      8  C   UNL     1       1.964   9.289  18.377  0.00  0.00    +0.000 A 
ATOM      9  F   UNL     1       1.744  10.510  17.866  0.00  0.00    +0.000 F 
ATOM     10  C   UNL     1       1.329   8.879  19.558  0.00  0.00    +0.000 A 
ATOM     11  C   UNL     1       1.700   7.607  20.061  0.00  0.00    +0.000 A 
ATOM     12  F   UNL     1       1.104   7.217  21.202  0.00  0.00    +0.000 F 
ATOM     13  C   UNL     1       2.609   6.734  19.413  0.00  0.00    +0.000 A 
ENDROOT
BRANCH  10  14
ATOM     14  N   UNL     1       0.360   9.629  20.205  0.00  0.00    +0.000 N 
ATOM     15  C   UNL     1      -0.823  10.170  19.540  0.00  0.00    +0.000 C 
ATOM     16  C   UNL     1      -0.878  11.641  19.975  0.00  0.00    +0.000 C 
ATOM     17  C   UNL     1      -0.337  11.586  21.433  0.00  0.00    +0.000 C 
ATOM     18  C   UNL     1       0.711  10.433  21.381  0.00  0.00    +0.000 C 
BRANCH  16  19
ATOM     19  N   UNL     1      -2.218  12.254  19.906  0.00  0.00    +0.000 NA
ATOM     20  C   UNL     1      -2.980  11.783  18.759  0.00  0.00    +0.000 C 
ATOM     21  H   UNL     1      -2.100  13.268  19.864  0.00  0.00    +0.000 HD
ENDBRANCH  16  19
BRANCH  17  22
ATOM     22  N   UNL     1       0.170  12.913  21.848  0.00  0.00    +0.000 NA
ATOM     23  C   UNL     1       1.153  13.454  20.920  0.00  0.00    +0.000 C 
ATOM     24  H   UNL     1      -0.613  13.562  21.924  0.00  0.00    +0.000 HD
ENDBRANCH  17  22
ENDBRANCH  10  14
BRANCH   1  26
ATOM     25  C   UNL     1       1.102   3.921  20.461  0.00  0.00    +0.000 C 
ATOM     26  C   UNL     1       2.232   4.802  20.979  0.00  0.00    +0.000 C 
ENDBRANCH   1  26
BRANCH   3  27
ATOM     27  C   UNL     1       5.447   4.133  17.348  0.00  0.00    +0.000 C 
ATOM     28  O   UNL     1       5.204   3.543  16.308  0.00  0.00    +0.000 OA
BRANCH  27  29
ATOM     29  O   UNL     1       6.620   3.981  18.004  0.00  0.00    +0.000 OA
ATOM     30  H   UNL     1       6.627   4.372  18.911  0.00  0.00    +0.000 HD
ENDBRANCH  27  29
ENDBRANCH   3  27
TORSDOF 6
ENDMDL
MODEL 2
REMARK VINA RESULT:      -7.2      3.677      8.019
REMARK  Name = 
REMARK  9 active torsions:
REMARK  status: ('A' for Active; 'I' for Inactive)
REMARK    1  A    between atoms: C_1  and  C_2
REMARK    2  A    between atoms: C_2  and  N_3
REMARK    3  A    between atoms: C_5  and  C_6
REMARK    4  A    between atoms: C_6  and  O_8
REMARK    5  A    between atoms: C_15  and  N_16
REMARK    6  A    between atoms: C_18  and  N_19
REMARK    7  A    between atoms: N_19  and  C_20
REMARK    8  A    between atoms: C_21  and  N_22
REMARK    9  A    between atoms: N_22  and  C_23
REMARK                            x       y       z     vdW  Elec       q    Type
REMARK                         _______ _______ _______ _____ _____    ______ ____
ROOT
ATOM      1  N   UNL     1       1.198  10.262  19.225  0.00  0.00    +0.000 N 
ATOM      2  C   UNL     1       0.385  11.040  20.044  0.00  0.00    +0.000 A 
ATOM      3  C   UNL     1      -0.183  10.669  21.199  0.00  0.00    +0.000 A 
ATOM      4  C   UNL     1       0.059   9.287  21.636  0.00  0.00    +0.000 A 
ATOM      5  O   UNL     1      -0.447   8.870  22.676  0.00  0.00    +0.000 OA
ATOM      6  C   UNL     1       0.923   8.420  20.794  0.00  0.00    +0.000 A 
ATOM      7  C   UNL     1       1.146   7.111  21.225  0.00  0.00    +0.000 A 
ATOM      8  C   UNL     1       1.933   6.263  20.457  0.00  0.00    +0.000 A 
ATOM      9  F   UNL     1       2.153   5.032  20.944  0.00  0.00    +0.000 F 
ATOM     10  C   UNL     1       2.521   6.675  19.253  0.00  0.00    +0.000 A 
ATOM     11  C   UNL     1       2.298   8.021  18.874  0.00  0.00    +0.000 A 
ATOM     12  F   UNL     1       2.873   8.425  17.727  0.00  0.00    +0.000 F 
ATOM     13  C   UNL     1       1.484   8.924  19.603  0.00  0.00    +0.000 A 
ENDROOT
BRANCH  10  14
ATOM     14  N   UNL     1       3.253   5.831  18.432  0.00  0.00    +0.000 N 
ATOM     15  C   UNL     1       2.901   4.436  18.185  0.00  0.00    +0.000 C 
ATOM     16  C   UNL     1       4.209   3.659  18.396  0.00  0.00    +0.000 C 
ATOM     17  C   UNL     1       5.284   4.655  17.874  0.00  0.00    +0.000 C 
ATOM     18  C   UNL     1       4.693   6.047  18.248  0.00  0.00    +0.000 C 
BRANCH  16  19
ATOM     19  N   UNL     1       4.273   2.360  17.699  0.00  0.00    +0.000 NA
ATOM     20  C   UNL     1       3.546   1.318  18.409  0.00  0.00    +0.000 C 
ATOM     21  H   UNL     1       5.257   2.104  17.599  0.00  0.00    +0.000 HD
ENDBRANCH  16  19
BRANCH  17  22
ATOM     22  N   UNL     1       6.610   4.332  18.446  0.00  0.00    +0.000 NA
ATOM     23  C   UNL     1       7.294   5.503  18.975  0.00  0.00    +0.000 C 
ATOM     24  H   UNL     1       6.495   3.645  19.192  0.00  0.00    +0.000 HD
ENDBRANCH  17  22
ENDBRANCH  10  14
BRANCH   1  26
ATOM     25  C   UNL     1       2.421  12.039  18.018  0.00  0.00    +0.000 C 
ATOM     26  C   UNL     1       1.592  10.767  17.894  0.00  0.00    +0.000 C 
ENDBRANCH   1  26
BRANCH   3  27
ATOM     27  C   UNL     1      -1.022  11.632  21.942  0.00  0.00    +0.000 C 
ATOM     28  O   UNL     1      -1.928  12.271  21.429  0.00  0.00    +0.000 OA
BRANCH  27  29
ATOM     29  O   UNL     1      -0.703  11.759  23.250  0.00  0.00    +0.000 OA
ATOM     30  H   UNL     1      -1.466  11.625  23.864  0.00  0.00    +0.000 HD
ENDBRANCH  27  29
ENDBRANCH   3  27
TORSDOF 6
ENDMDL
MODEL 3
REMARK VINA RESULT:      -7.2      1.905      3.561
REMARK  Name = 
REMARK  9 active torsions:
REMARK  status: ('A' for Active; 'I' for Inactive)
REMARK    1  A    between atoms: C_1  and  C_2
REMARK    2  A    between atoms: C_2  and  N_3
REMARK    3  A    between atoms: C_5  and  C_6
REMARK    4  A    between atoms: C_6  and  O_8
REMARK    5  A    between atoms: C_15  and  N_16
REMARK    6  A    between atoms: C_18  and  N_19
REMARK    7  A    between atoms: N_19  and  C_20
REMARK    8  A    between atoms: C_21  and  N_22
REMARK    9  A    between atoms: N_22  and  C_23
REMARK                            x       y       z     vdW  Elec       q    Type
REMARK                         _______ _______ _______ _____ _____    ______ ____
ROOT
ATOM      1  N   UNL     1       3.919   5.776  18.129  0.00  0.00    +0.000 N 
ATOM      2  C   UNL     1       4.303   4.469  18.416  0.00  0.00    +0.000 A 
ATOM      3  C   UNL     1       3.838   3.693  19.404  0.00  0.00    +0.000 A 
ATOM      4  C   UNL     1       2.837   4.293  20.295  0.00  0.00    +0.000 A 
ATOM      5  O   UNL     1       2.381   3.648  21.237  0.00  0.00    +0.000 OA
ATOM      6  C   UNL     1       2.395   5.686  20.026  0.00  0.00    +0.000 A 
ATOM      7  C   UNL     1       1.440   6.241  20.880  0.00  0.00    +0.000 A 
ATOM      8  C   UNL     1       1.014   7.546  20.674  0.00  0.00    +0.000 A 
ATOM      9  F   UNL     1       0.059   8.011  21.495  0.00  0.00    +0.000 F 
ATOM     10  C   UNL     1       1.511   8.339  19.629  0.00  0.00    +0.000 A 
ATOM     11  C   UNL     1       2.451   7.723  18.767  0.00  0.00    +0.000 A 
ATOM     12  F   UNL     1       2.918   8.474  17.754  0.00  0.00    +0.000 F 
ATOM     13  C   UNL     1       2.941   6.404  18.943  0.00  0.00    +0.000 A 
ENDROOT
BRANCH  10  14
ATOM     14  N   UNL     1       1.157   9.665  19.441  0.00  0.00    +0.000 N 
ATOM     15  C   UNL     1       1.114  10.652  20.516  0.00  0.00    +0.000 C 
ATOM     16  C   UNL     1      -0.243  11.352  20.353  0.00  0.00    +0.000 C 
ATOM     17  C   UNL     1      -0.435  11.365  18.808  0.00  0.00    +0.000 C 
ATOM     18  C   UNL     1       0.246  10.039  18.353  0.00  0.00    +0.000 C 
BRANCH  16  19
ATOM     19  N   UNL     1      -0.311  12.708  20.929  0.00  0.00    +0.000 NA
ATOM     20  C   UNL     1       0.951  13.422  20.806  0.00  0.00    +0.000 C 
ATOM     21  H   UNL     1      -0.577  12.620  21.912  0.00  0.00    +0.000 HD
ENDBRANCH  16  19
BRANCH  17  22
ATOM     22  N   UNL     1      -1.866  11.517  18.465  0.00  0.00    +0.000 NA
ATOM     23  C   UNL     1      -2.256  10.716  17.314  0.00  0.00    +0.000 C 
ATOM     24  H   UNL     1      -2.433  11.248  19.269  0.00  0.00    +0.000 HD
ENDBRANCH  17  22
ENDBRANCH  10  14
BRANCH   1  26
ATOM     25  C   UNL     1       5.154   5.645  15.992  0.00  0.00    +0.000 C 
ATOM     26  C   UNL     1       4.664   6.550  17.116  0.00  0.00    +0.000 C 
ENDBRANCH   1  26
BRANCH   3  27
ATOM     27  C   UNL     1       4.362   2.320  19.561  0.00  0.00    +0.000 C 
ATOM     28  O   UNL     1       5.082   1.975  20.486  0.00  0.00    +0.000 OA
BRANCH  27  29
ATOM     29  O   UNL     1       3.984   1.463  18.587  0.00  0.00    +0.000 OA
ATOM     30  H   UNL     1       4.231   1.755  17.675  0.00  0.00    +0.000 HD
ENDBRANCH  27  29
ENDBRANCH   3  27
TORSDOF 6
ENDMDL
MODEL 4
REMARK VINA RESULT:      -7.0      1.901      3.521
REMARK  Name = 
REMARK  9 active torsions:
REMARK  status: ('A' for Active; 'I' for Inactive)
REMARK    1  A    between atoms: C_1  and  C_2
REMARK    2  A    between atoms: C_2  and  N_3
REMARK    3  A    between atoms: C_5  and  C_6
REMARK    4  A    between atoms: C_6  and  O_8
REMARK    5  A    between atoms: C_15  and  N_16
REMARK    6  A    between atoms: C_18  and  N_19
REMARK    7  A    between atoms: N_19  and  C_20
REMARK    8  A    between atoms: C_21  and  N_22
REMARK    9  A    between atoms: N_22  and  C_23
REMARK                            x       y       z     vdW  Elec       q    Type
REMARK                         _______ _______ _______ _____ _____    ______ ____
ROOT
ATOM      1  N   UNL     1       3.434   6.487  17.996  0.00  0.00    +0.000 N 
ATOM      2  C   UNL     1       3.832   5.204  18.361  0.00  0.00    +0.000 A 
ATOM      3  C   UNL     1       3.461   4.530  19.459  0.00  0.00    +0.000 A 
ATOM      4  C   UNL     1       2.560   5.227  20.386  0.00  0.00    +0.000 A 
ATOM      5  O   UNL     1       2.195   4.678  21.423  0.00  0.00    +0.000 OA
ATOM      6  C   UNL     1       2.107   6.598  20.035  0.00  0.00    +0.000 A 
ATOM      7  C   UNL     1       1.248   7.246  20.925  0.00  0.00    +0.000 A 
ATOM      8  C   UNL     1       0.817   8.535  20.643  0.00  0.00    +0.000 A 
ATOM      9  F   UNL     1      -0.047   9.090  21.508  0.00  0.00    +0.000 F 
ATOM     10  C   UNL     1       1.214   9.220  19.486  0.00  0.00    +0.000 A 
ATOM     11  C   UNL     1       2.056   8.511  18.595  0.00  0.00    +0.000 A 
ATOM     12  F   UNL     1       2.426   9.159  17.476  0.00  0.00    +0.000 F 
ATOM     13  C   UNL     1       2.548   7.205  18.842  0.00  0.00    +0.000 A 
ENDROOT
BRANCH  10  14
ATOM     14  N   UNL     1       0.855  10.531  19.213  0.00  0.00    +0.000 N 
ATOM     15  C   UNL     1       1.241  11.666  20.046  0.00  0.00    +0.000 C 
ATOM     16  C   UNL     1      -0.059  12.454  20.262  0.00  0.00    +0.000 C 
ATOM     17  C   UNL     1      -0.805  12.255  18.911  0.00  0.00    +0.000 C 
ATOM     18  C   UNL     1      -0.380  10.821  18.476  0.00  0.00    +0.000 C 
BRANCH  16  19
ATOM     19  N   UNL     1       0.131  13.881  20.584  0.00  0.00    +0.000 NA
ATOM     20  C   UNL     1       1.255  14.462  19.863  0.00  0.00    +0.000 C 
ATOM     21  H   UNL     1       0.274  13.961  21.592  0.00  0.00    +0.000 HD
ENDBRANCH  16  19
BRANCH  17  22
ATOM     22  N   UNL     1      -2.257  12.484  19.083  0.00  0.00    +0.000 NA
ATOM     23  C   UNL     1      -3.068  11.535  18.334  0.00  0.00    +0.000 C 
ATOM     24  H   UNL     1      -2.491  12.418  20.074  0.00  0.00    +0.000 HD
ENDBRANCH  17  22
ENDBRANCH  10  14
BRANCH   1  26
ATOM     25  C   UNL     1       5.167   6.268  16.247  0.00  0.00    +0.000 C 
ATOM     26  C   UNL     1       4.080   7.153  16.847  0.00  0.00    +0.000 C 
ENDBRANCH   1  26
BRANCH   3  27
ATOM     27  C   UNL     1       3.985   3.167  19.688  0.00  0.00    +0.000 C 
ATOM     28  O   UNL     1       5.175   2.897  19.701  0.00  0.00    +0.000 OA
BRANCH  27  29
ATOM     29  O   UNL     1       3.032   2.227  19.880  0.00  0.00    +0.000 OA
ATOM     30  H   UNL     1       2.955   1.575  19.141  0.00  0.00    +0.000 HD
ENDBRANCH  27  29
ENDBRANCH   3  27
TORSDOF 6
ENDMDL
MODEL 5
REMARK VINA RESULT:      -7.0      3.343      7.782
REMARK  Name = 
REMARK  9 active torsions:
REMARK  status: ('A' for Active; 'I' for Inactive)
REMARK    1  A    between atoms: C_1  and  C_2
REMARK    2  A    between atoms: C_2  and  N_3
REMARK    3  A    between atoms: C_5  and  C_6
REMARK    4  A    between atoms: C_6  and  O_8
REMARK    5  A    between atoms: C_15  and  N_16
REMARK    6  A    between atoms: C_18  and  N_19
REMARK    7  A    between atoms: N_19  and  C_20
REMARK    8  A    between atoms: C_21  and  N_22
REMARK    9  A    between atoms: N_22  and  C_23
REMARK                            x       y       z     vdW  Elec       q    Type
REMARK                         _______ _______ _______ _____ _____    ______ ____
ROOT
ATOM      1  N   UNL     1       0.030   9.356  21.029  0.00  0.00    +0.000 N 
ATOM      2  C   UNL     1      -0.555  10.604  20.836  0.00  0.00    +0.000 A 
ATOM      3  C   UNL     1      -0.354  11.435  19.804  0.00  0.00    +0.000 A 
ATOM      4  C   UNL     1       0.604  10.995  18.782  0.00  0.00    +0.000 A 
ATOM      5  O   UNL     1       0.855  11.714  17.818  0.00  0.00    +0.000 OA
ATOM      6  C   UNL     1       1.252   9.667  18.945  0.00  0.00    +0.000 A 
ATOM      7  C   UNL     1       2.158   9.261  17.963  0.00  0.00    +0.000 A 
ATOM      8  C   UNL     1       2.798   8.036  18.089  0.00  0.00    +0.000 A 
ATOM      9  F   UNL     1       3.620   7.675  17.090  0.00  0.00    +0.000 F 
ATOM     10  C   UNL     1       2.568   7.179  19.174  0.00  0.00    +0.000 A 
ATOM     11  C   UNL     1       1.615   7.615  20.127  0.00  0.00    +0.000 A 
ATOM     12  F   UNL     1       1.380   6.790  21.163  0.00  0.00    +0.000 F 
ATOM     13  C   UNL     1       0.950   8.866  20.065  0.00  0.00    +0.000 A 
ENDROOT
BRANCH  10  14
ATOM     14  N   UNL     1       3.243   5.983  19.361  0.00  0.00    +0.000 N 
ATOM     15  C   UNL     1       4.689   5.838  19.217  0.00  0.00    +0.000 C 
ATOM     16  C   UNL     1       4.872   4.599  18.328  0.00  0.00    +0.000 C 
ATOM     17  C   UNL     1       3.691   3.687  18.770  0.00  0.00    +0.000 C 
ATOM     18  C   UNL     1       2.564   4.706  19.117  0.00  0.00    +0.000 C 
BRANCH  16  19
ATOM     19  N   UNL     1       6.175   3.924  18.473  0.00  0.00    +0.000 NA
ATOM     20  C   UNL     1       7.254   4.672  17.844  0.00  0.00    +0.000 C 
ATOM     21  H   UNL     1       6.097   2.994  18.058  0.00  0.00    +0.000 HD
ENDBRANCH  16  19
BRANCH  17  22
ATOM     22  N   UNL     1       3.378   2.699  17.714  0.00  0.00    +0.000 NA
ATOM     23  C   UNL     1       3.555   1.325  18.160  0.00  0.00    +0.000 C 
ATOM     24  H   UNL     1       2.414   2.831  17.407  0.00  0.00    +0.000 HD
ENDBRANCH  17  22
ENDBRANCH  10  14
BRANCH   1  26
ATOM     25  C   UNL     1      -0.039   9.613  23.487  0.00  0.00    +0.000 C 
ATOM     26  C   UNL     1      -0.162   8.649  22.312  0.00  0.00    +0.000 C 
ENDBRANCH   1  26
BRANCH   3  27
ATOM     27  C   UNL     1      -1.065  12.730  19.763  0.00  0.00    +0.000 C 
ATOM     28  O   UNL     1      -1.255  13.426  20.747  0.00  0.00    +0.000 OA
BRANCH  27  29
ATOM     29  O   UNL     1      -1.500  13.089  18.534  0.00  0.00    +0.000 OA
ATOM     30  H   UNL     1      -2.149  13.835  18.539  0.00  0.00    +0.000 HD
ENDBRANCH  27  29
ENDBRANCH   3  27
TORSDOF 6
ENDMDL
MODEL 6
REMARK VINA RESULT:      -6.9      2.085      3.239
REMARK  Name = 
REMARK  9 active torsions:
REMARK  status: ('A' for Active; 'I' for Inactive)
REMARK    1  A    between atoms: C_1  and  C_2
REMARK    2  A    between atoms: C_2  and  N_3
REMARK    3  A    between atoms: C_5  and  C_6
REMARK    4  A    between atoms: C_6  and  O_8
REMARK    5  A    between atoms: C_15  and  N_16
REMARK    6  A    between atoms: C_18  and  N_19
REMARK    7  A    between atoms: N_19  and  C_20
REMARK    8  A    between atoms: C_21  and  N_22
REMARK    9  A    between atoms: N_22  and  C_23
REMARK                            x       y       z     vdW  Elec       q    Type
REMARK                         _______ _______ _______ _____ _____    ______ ____
ROOT
ATOM      1  N   UNL     1       3.774   6.118  18.249  0.00  0.00    +0.000 N 
ATOM      2  C   UNL     1       4.202   4.805  18.421  0.00  0.00    +0.000 A 
ATOM      3  C   UNL     1       3.762   3.930  19.336  0.00  0.00    +0.000 A 
ATOM      4  C   UNL     1       2.739   4.415  20.271  0.00  0.00    +0.000 A 
ATOM      5  O   UNL     1       2.304   3.675  21.151  0.00  0.00    +0.000 OA
ATOM      6  C   UNL     1       2.250   5.811  20.123  0.00  0.00    +0.000 A 
ATOM      7  C   UNL     1       1.276   6.257  21.018  0.00  0.00    +0.000 A 
ATOM      8  C   UNL     1       0.806   7.560  20.925  0.00  0.00    +0.000 A 
ATOM      9  F   UNL     1      -0.166   7.918  21.779  0.00  0.00    +0.000 F 
ATOM     10  C   UNL     1       1.277   8.457  19.956  0.00  0.00    +0.000 A 
ATOM     11  C   UNL     1       2.239   7.951  19.047  0.00  0.00    +0.000 A 
ATOM     12  F   UNL     1       2.683   8.804  18.106  0.00  0.00    +0.000 F 
ATOM     13  C   UNL     1       2.773   6.640  19.110  0.00  0.00    +0.000 A 
ENDROOT
BRANCH  10  14
ATOM     14  N   UNL     1       0.879   9.783  19.883  0.00  0.00    +0.000 N 
ATOM     15  C   UNL     1       0.751  10.522  18.630  0.00  0.00    +0.000 C 
ATOM     16  C   UNL     1       1.491  11.844  18.879  0.00  0.00    +0.000 C 
ATOM     17  C   UNL     1       1.196  12.122  20.381  0.00  0.00    +0.000 C 
ATOM     18  C   UNL     1       1.137  10.694  21.003  0.00  0.00    +0.000 C 
BRANCH  16  19
ATOM     19  N   UNL     1       1.064  12.961  18.016  0.00  0.00    +0.000 NA
ATOM     20  C   UNL     1      -0.314  13.356  18.270  0.00  0.00    +0.000 C 
ATOM     21  H   UNL     1       1.178  12.671  17.043  0.00  0.00    +0.000 HD
ENDBRANCH  16  19
BRANCH  17  22
ATOM     22  N   UNL     1       2.208  13.041  20.946  0.00  0.00    +0.000 NA
ATOM     23  C   UNL     1       1.642  14.319  21.352  0.00  0.00    +0.000 C 
ATOM     24  H   UNL     1       2.650  12.598  21.752  0.00  0.00    +0.000 HD
ENDBRANCH  17  22
ENDBRANCH  10  14
BRANCH   1  26
ATOM     25  C   UNL     1       5.090   6.204  16.158  0.00  0.00    +0.000 C 
ATOM     26  C   UNL     1       4.494   7.003  17.310  0.00  0.00    +0.000 C 
ENDBRANCH   1  26
BRANCH   3  27
ATOM     27  C   UNL     1       4.332   2.567  19.374  0.00  0.00    +0.000 C 
ATOM     28  O   UNL     1       5.052   2.163  20.274  0.00  0.00    +0.000 OA
BRANCH  27  29
ATOM     29  O   UNL     1       3.996   1.791  18.320  0.00  0.00    +0.000 OA
ATOM     30  H   UNL     1       3.475   0.986  18.562  0.00  0.00    +0.000 HD
ENDBRANCH  27  29
ENDBRANCH   3  27
TORSDOF 6
ENDMDL
MODEL 7
REMARK VINA RESULT:      -6.9      3.869      7.981
REMARK  Name = 
REMARK  9 active torsions:
REMARK  status: ('A' for Active; 'I' for Inactive)
REMARK    1  A    between atoms: C_1  and  C_2
REMARK    2  A    between atoms: C_2  and  N_3
REMARK    3  A    between atoms: C_5  and  C_6
REMARK    4  A    between atoms: C_6  and  O_8
REMARK    5  A    between atoms: C_15  and  N_16
REMARK    6  A    between atoms: C_18  and  N_19
REMARK    7  A    between atoms: N_19  and  C_20
REMARK    8  A    between atoms: C_21  and  N_22
REMARK    9  A    between atoms: N_22  and  C_23
REMARK                            x       y       z     vdW  Elec       q    Type
REMARK                         _______ _______ _______ _____ _____    ______ ____
ROOT
ATOM      1  N   UNL     1      -0.025  11.057  19.733  0.00  0.00    +0.000 N 
ATOM      2  C   UNL     1      -0.637  11.740  20.780  0.00  0.00    +0.000 A 
ATOM      3  C   UNL     1      -0.694  11.358  22.064  0.00  0.00    +0.000 A 
ATOM      4  C   UNL     1      -0.067  10.072  22.396  0.00  0.00    +0.000 A 
ATOM      5  O   UNL     1      -0.099   9.648  23.549  0.00  0.00    +0.000 OA
ATOM      6  C   UNL     1       0.600   9.309  21.309  0.00  0.00    +0.000 A 
ATOM      7  C   UNL     1       1.194   8.090  21.641  0.00  0.00    +0.000 A 
ATOM      8  C   UNL     1       1.812   7.338  20.651  0.00  0.00    +0.000 A 
ATOM      9  F   UNL     1       2.409   6.200  21.037  0.00  0.00    +0.000 F 
ATOM     10  C   UNL     1       1.864   7.759  19.315  0.00  0.00    +0.000 A 
ATOM     11  C   UNL     1       1.280   9.019  19.031  0.00  0.00    +0.000 A 
ATOM     12  F   UNL     1       1.342   9.434  17.753  0.00  0.00    +0.000 F 
ATOM     13  C   UNL     1       0.614   9.817  19.994  0.00  0.00    +0.000 A 
ENDROOT
BRANCH  10  14
ATOM     14  N   UNL     1       2.412   6.998  18.294  0.00  0.00    +0.000 N 
ATOM     15  C   UNL     1       2.012   5.625  18.004  0.00  0.00    +0.000 C 
ATOM     16  C   UNL     1       3.332   4.850  17.880  0.00  0.00    +0.000 C 
ATOM     17  C   UNL     1       4.284   5.901  17.239  0.00  0.00    +0.000 C 
ATOM     18  C   UNL     1       3.785   7.249  17.843  0.00  0.00    +0.000 C 
BRANCH  16  19
ATOM     19  N   UNL     1       3.250   3.616  17.076  0.00  0.00    +0.000 NA
ATOM     20  C   UNL     1       2.717   2.497  17.839  0.00  0.00    +0.000 C 
ATOM     21  H   UNL     1       4.187   3.400  16.733  0.00  0.00    +0.000 HD
ENDBRANCH  16  19
BRANCH  17  22
ATOM     22  N   UNL     1       5.697   5.549  17.503  0.00  0.00    +0.000 NA
ATOM     23  C   UNL     1       5.959   5.298  18.913  0.00  0.00    +0.000 C 
ATOM     24  H   UNL     1       5.942   4.719  16.963  0.00  0.00    +0.000 HD
ENDBRANCH  17  22
ENDBRANCH  10  14
BRANCH   1  26
ATOM     25  C   UNL     1      -1.584  11.124  17.815  0.00  0.00    +0.000 C 
ATOM     26  C   UNL     1      -0.213  11.528  18.346  0.00  0.00    +0.000 C 
ENDBRANCH   1  26
BRANCH   3  27
ATOM     27  C   UNL     1      -1.390  12.213  23.048  0.00  0.00    +0.000 C 
ATOM     28  O   UNL     1      -0.941  13.273  23.455  0.00  0.00    +0.000 OA
BRANCH  27  29
ATOM     29  O   UNL     1      -2.577  11.725  23.473  0.00  0.00    +0.000 OA
ATOM     30  H   UNL     1      -3.179  12.408  23.857  0.00  0.00    +0.000 HD
ENDBRANCH  27  29
ENDBRANCH   3  27
TORSDOF 6
ENDMDL
MODEL 8
REMARK VINA RESULT:      -6.8      2.092      3.238
REMARK  Name = 
REMARK  9 active torsions:
REMARK  status: ('A' for Active; 'I' for Inactive)
REMARK    1  A    between atoms: C_1  and  C_2
REMARK    2  A    between atoms: C_2  and  N_3
REMARK    3  A    between atoms: C_5  and  C_6
REMARK    4  A    between atoms: C_6  and  O_8
REMARK    5  A    between atoms: C_15  and  N_16
REMARK    6  A    between atoms: C_18  and  N_19
REMARK    7  A    between atoms: N_19  and  C_20
REMARK    8  A    between atoms: C_21  and  N_22
REMARK    9  A    between atoms: N_22  and  C_23
REMARK                            x       y       z     vdW  Elec       q    Type
REMARK                         _______ _______ _______ _____ _____    ______ ____
ROOT
ATOM      1  N   UNL     1       3.570   6.335  18.020  0.00  0.00    +0.000 N 
ATOM      2  C   UNL     1       4.062   5.051  18.236  0.00  0.00    +0.000 A 
ATOM      3  C   UNL     1       3.746   4.229  19.246  0.00  0.00    +0.000 A 
ATOM      4  C   UNL     1       2.801   4.746  20.244  0.00  0.00    +0.000 A 
ATOM      5  O   UNL     1       2.481   4.055  21.209  0.00  0.00    +0.000 OA
ATOM      6  C   UNL     1       2.247   6.112  20.053  0.00  0.00    +0.000 A 
ATOM      7  C   UNL     1       1.347   6.588  21.008  0.00  0.00    +0.000 A 
ATOM      8  C   UNL     1       0.822   7.866  20.876  0.00  0.00    +0.000 A 
ATOM      9  F   UNL     1      -0.076   8.252  21.796  0.00  0.00    +0.000 F 
ATOM     10  C   UNL     1       1.163   8.708  19.808  0.00  0.00    +0.000 A 
ATOM     11  C   UNL     1       2.051   8.170  18.843  0.00  0.00    +0.000 A 
ATOM     12  F   UNL     1       2.368   8.968  17.809  0.00  0.00    +0.000 F 
ATOM     13  C   UNL     1       2.638   6.884  18.940  0.00  0.00    +0.000 A 
ENDROOT
BRANCH  10  14
ATOM     14  N   UNL     1       0.708  10.012  19.687  0.00  0.00    +0.000 N 
ATOM     15  C   UNL     1      -0.583  10.369  19.107  0.00  0.00    +0.000 C 
ATOM     16  C   UNL     1      -0.267  11.490  18.106  0.00  0.00    +0.000 C 
ATOM     17  C   UNL     1       0.898  12.249  18.804  0.00  0.00    +0.000 C 
ATOM     18  C   UNL     1       1.664  11.117  19.552  0.00  0.00    +0.000 C 
BRANCH  16  19
ATOM     19  N   UNL     1      -1.402  12.381  17.801  0.00  0.00    +0.000 NA
ATOM     20  C   UNL     1      -2.610  11.639  17.468  0.00  0.00    +0.000 C 
ATOM     21  H   UNL     1      -1.130  12.984  17.023  0.00  0.00    +0.000 HD
ENDBRANCH  16  19
BRANCH  17  22
ATOM     22  N   UNL     1       1.679  13.022  17.812  0.00  0.00    +0.000 NA
ATOM     23  C   UNL     1       2.814  13.712  18.406  0.00  0.00    +0.000 C 
ATOM     24  H   UNL     1       2.013  12.391  17.083  0.00  0.00    +0.000 HD
ENDBRANCH  17  22
ENDBRANCH  10  14
BRANCH   1  26
ATOM     25  C   UNL     1       5.176   6.384  16.142  0.00  0.00    +0.000 C 
ATOM     26  C   UNL     1       4.161   7.175  16.958  0.00  0.00    +0.000 C 
ENDBRANCH   1  26
BRANCH   3  27
ATOM     27  C   UNL     1       4.369   2.891  19.318  0.00  0.00    +0.000 C 
ATOM     28  O   UNL     1       5.155   2.560  20.192  0.00  0.00    +0.000 OA
BRANCH  27  29
ATOM     29  O   UNL     1       4.001   2.049  18.326  0.00  0.00    +0.000 OA
ATOM     30  H   UNL     1       3.426   1.302  18.625  0.00  0.00    +0.000 HD
ENDBRANCH  27  29
ENDBRANCH   3  27
TORSDOF 6
ENDMDL
MODEL 9
REMARK VINA RESULT:      -6.7      3.204      7.347
REMARK  Name = 
REMARK  9 active torsions:
REMARK  status: ('A' for Active; 'I' for Inactive)
REMARK    1  A    between atoms: C_1  and  C_2
REMARK    2  A    between atoms: C_2  and  N_3
REMARK    3  A    between atoms: C_5  and  C_6
REMARK    4  A    between atoms: C_6  and  O_8
REMARK    5  A    between atoms: C_15  and  N_16
REMARK    6  A    between atoms: C_18  and  N_19
REMARK    7  A    between atoms: N_19  and  C_20
REMARK    8  A    between atoms: C_21  and  N_22
REMARK    9  A    between atoms: N_22  and  C_23
REMARK                            x       y       z     vdW  Elec       q    Type
REMARK                         _______ _______ _______ _____ _____    ______ ____
ROOT
ATOM      1  N   UNL     1       0.724   9.060  20.459  0.00  0.00    +0.000 N 
ATOM      2  C   UNL     1       0.426  10.406  20.266  0.00  0.00    +0.000 A 
ATOM      3  C   UNL     1       0.874  11.196  19.281  0.00  0.00    +0.000 A 
ATOM      4  C   UNL     1       1.798  10.584  18.316  0.00  0.00    +0.000 A 
ATOM      5  O   UNL     1       2.266  11.253  17.398  0.00  0.00    +0.000 OA
ATOM      6  C   UNL     1       2.143   9.148  18.481  0.00  0.00    +0.000 A 
ATOM      7  C   UNL     1       3.020   8.579  17.555  0.00  0.00    +0.000 A 
ATOM      8  C   UNL     1       3.382   7.246  17.685  0.00  0.00    +0.000 A 
ATOM      9  F   UNL     1       4.187   6.740  16.738  0.00  0.00    +0.000 F 
ATOM     10  C   UNL     1       2.896   6.436  18.722  0.00  0.00    +0.000 A 
ATOM     11  C   UNL     1       1.982   7.045  19.617  0.00  0.00    +0.000 A 
ATOM     12  F   UNL     1       1.501   6.268  20.604  0.00  0.00    +0.000 F 
ATOM     13  C   UNL     1       1.596   8.407  19.549  0.00  0.00    +0.000 A 
ENDROOT
BRANCH  10  14
ATOM     14  N   UNL     1       3.293   5.123  18.917  0.00  0.00    +0.000 N 
ATOM     15  C   UNL     1       2.829   4.007  18.098  0.00  0.00    +0.000 C 
ATOM     16  C   UNL     1       2.402   2.931  19.107  0.00  0.00    +0.000 C 
ATOM     17  C   UNL     1       3.424   3.126  20.264  0.00  0.00    +0.000 C 
ATOM     18  C   UNL     1       3.689   4.662  20.252  0.00  0.00    +0.000 C 
BRANCH  16  19
ATOM     19  N   UNL     1       2.417   1.553  18.583  0.00  0.00    +0.000 NA
ATOM     20  C   UNL     1       3.766   1.088  18.298  0.00  0.00    +0.000 C 
ATOM     21  H   UNL     1       1.846   1.531  17.736  0.00  0.00    +0.000 HD
ENDBRANCH  16  19
BRANCH  17  22
ATOM     22  N   UNL     1       2.892   2.564  21.525  0.00  0.00    +0.000 NA
ATOM     23  C   UNL     1       1.467   2.807  21.692  0.00  0.00    +0.000 C 
ATOM     24  H   UNL     1       3.066   1.559  21.543  0.00  0.00    +0.000 HD
ENDBRANCH  17  22
ENDBRANCH  10  14
BRANCH   1  26
ATOM     25  C   UNL     1      -0.212   9.400  22.721  0.00  0.00    +0.000 C 
ATOM     26  C   UNL     1       0.291   8.387  21.700  0.00  0.00    +0.000 C 
ENDBRANCH   1  26
BRANCH   3  27
ATOM     27  C   UNL     1       0.451  12.611  19.231  0.00  0.00    +0.000 C 
ATOM     28  O   UNL     1       0.498  13.362  20.192  0.00  0.00    +0.000 OA
BRANCH  27  29
ATOM     29  O   UNL     1      -0.003  13.016  18.023  0.00  0.00    +0.000 OA
ATOM     30  H   UNL     1      -0.947  12.781  17.849  0.00  0.00    +0.000 HD
ENDBRANCH  27  29
ENDBRANCH   3  27
TORSDOF 6
ENDMDL
