MODEL 1
REMARK VINA RESULT:      -9.1      0.000      0.000
REMARK  Name = 
REMARK  4 active torsions:
REMARK  status: ('A' for Active; 'I' for Inactive)
REMARK    1  A    between atoms: C_2  and  C_4
REMARK    2  A    between atoms: N_6  and  C_7
REMARK    3  A    between atoms: C_7  and  C_8
REMARK    4  A    between atoms: C_11  and  C_12
REMARK                            x       y       z     vdW  Elec       q    Type
REMARK                         _______ _______ _______ _____ _____    ______ ____
ROOT
ATOM      1  C   UNL     1       7.200   6.473  17.505  0.00  0.00    +0.000 C 
ATOM      2  C   UNL     1       5.768   7.001  17.407  0.00  0.00    +0.000 C 
ATOM      3  N   UNL     1       4.861   6.037  16.755  0.00  0.00    +0.000 N 
ATOM      4  C   UNL     1       5.472   5.324  15.707  0.00  0.00    +0.000 A 
ATOM      5  C   UNL     1       4.723   4.506  14.846  0.00  0.00    +0.000 A 
ATOM      6  C   UNL     1       5.301   3.889  13.731  0.00  0.00    +0.000 A 
ATOM      7  C   UNL     1       6.642   4.101  13.432  0.00  0.00    +0.000 A 
ATOM      8  C   UNL     1       7.416   4.887  14.278  0.00  0.00    +0.000 A 
ATOM      9  C   UNL     1       6.846   5.464  15.417  0.00  0.00    +0.000 A 
ATOM     10  O   UNL     1       7.732   6.144  16.221  0.00  0.00    +0.000 OA
ENDROOT
BRANCH   1  12
ATOM     11  N   UNL     1       8.008   4.245  18.167  0.00  0.00    +0.000 N 
ATOM     12  C   UNL     1       7.324   5.364  18.565  0.00  0.00    +0.000 C 
ATOM     13  O   UNL     1       6.936   5.465  19.724  0.00  0.00    +0.000 OA
ATOM     14  H   UNL     1       8.026   3.466  18.811  0.00  0.00    +0.000 HD
ATOM     15  H   UNL     1       8.103   4.050  17.178  0.00  0.00    +0.000 HD
ENDBRANCH   1  12
BRANCH   3  16
ATOM     16  C   UNL     1       3.913   5.317  17.618  0.00  0.00    +0.000 C 
BRANCH  16  17
ATOM     17  C   UNL     1       3.044   6.257  18.428  0.00  0.00    +0.000 A 
ATOM     18  C   UNL     1       2.656   5.941  19.735  0.00  0.00    +0.000 A 
ATOM     19  C   UNL     1       1.915   6.852  20.502  0.00  0.00    +0.000 A 
ATOM     20  C   UNL     1       1.553   8.117  20.002  0.00  0.00    +0.000 A 
ATOM     21  C   UNL     1       1.948   8.414  18.684  0.00  0.00    +0.000 A 
ATOM     22  C   UNL     1       2.671   7.500  17.907  0.00  0.00    +0.000 A 
BRANCH  20  23
ATOM     23  C   UNL     1       0.793   9.093  20.824  0.00  0.00    +0.000 A 
ATOM     24  C   UNL     1       0.245  10.262  20.263  0.00  0.00    +0.000 A 
ATOM     25  C   UNL     1      -0.461  11.189  21.040  0.00  0.00    +0.000 A 
ATOM     26  C   UNL     1      -0.650  10.961  22.398  0.00  0.00    +0.000 A 
ATOM     27  C   UNL     1      -0.133   9.809  22.979  0.00  0.00    +0.000 A 
ATOM     28  C   UNL     1       0.584   8.892  22.202  0.00  0.00    +0.000 A 
ENDBRANCH  20  23
ENDBRANCH  16  17
ENDBRANCH   3  16
TORSDOF 4
ENDMDL
MODEL 2
REMARK VINA RESULT:      -8.9      0.678      1.486
REMARK  Name = 
REMARK  4 active torsions:
REMARK  status: ('A' for Active; 'I' for Inactive)
REMARK    1  A    between atoms: C_2  and  C_4
REMARK    2  A    between atoms: N_6  and  C_7
REMARK    3  A    between atoms: C_7  and  C_8
REMARK    4  A    between atoms: C_11  and  C_12
REMARK                            x       y       z     vdW  Elec       q    Type
REMARK                         _______ _______ _______ _____ _____    ______ ____
ROOT
ATOM      1  C   UNL     1       7.311   6.405  17.215  0.00  0.00    +0.000 C 
ATOM      2  C   UNL     1       5.891   6.969  17.147  0.00  0.00    +0.000 C 
ATOM      3  N   UNL     1       4.943   6.021  16.529  0.00  0.00    +0.000 N 
ATOM      4  C   UNL     1       5.509   5.283  15.473  0.00  0.00    +0.000 A 
ATOM      5  C   UNL     1       4.718   4.474  14.641  0.00  0.00    +0.000 A 
ATOM      6  C   UNL     1       5.252   3.832  13.518  0.00  0.00    +0.000 A 
ATOM      7  C   UNL     1       6.590   4.006  13.183  0.00  0.00    +0.000 A 
ATOM      8  C   UNL     1       7.405   4.781  14.001  0.00  0.00    +0.000 A 
ATOM      9  C   UNL     1       6.879   5.384  15.147  0.00  0.00    +0.000 A 
ATOM     10  O   UNL     1       7.802   6.050  15.921  0.00  0.00    +0.000 OA
ENDROOT
BRANCH   1  12
ATOM     11  N   UNL     1       6.748   5.537  19.447  0.00  0.00    +0.000 N 
ATOM     12  C   UNL     1       7.434   5.304  18.284  0.00  0.00    +0.000 C 
ATOM     13  O   UNL     1       8.014   4.238  18.117  0.00  0.00    +0.000 OA
ATOM     14  H   UNL     1       6.885   4.875  20.200  0.00  0.00    +0.000 HD
ATOM     15  H   UNL     1       6.490   6.487  19.687  0.00  0.00    +0.000 HD
ENDBRANCH   1  12
BRANCH   3  16
ATOM     16  C   UNL     1       3.999   5.335  17.423  0.00  0.00    +0.000 C 
BRANCH  16  17
ATOM     17  C   UNL     1       3.243   6.301  18.312  0.00  0.00    +0.000 A 
ATOM     18  C   UNL     1       2.864   7.566  17.851  0.00  0.00    +0.000 A 
ATOM     19  C   UNL     1       2.099   8.422  18.657  0.00  0.00    +0.000 A 
ATOM     20  C   UNL     1       1.670   8.040  19.941  0.00  0.00    +0.000 A 
ATOM     21  C   UNL     1       2.067   6.767  20.390  0.00  0.00    +0.000 A 
ATOM     22  C   UNL     1       2.846   5.915  19.597  0.00  0.00    +0.000 A 
BRANCH  20  23
ATOM     23  C   UNL     1       0.836   8.936  20.785  0.00  0.00    +0.000 A 
ATOM     24  C   UNL     1       0.830   8.832  22.188  0.00  0.00    +0.000 A 
ATOM     25  C   UNL     1       0.034   9.668  22.983  0.00  0.00    +0.000 A 
ATOM     26  C   UNL     1      -0.763  10.641  22.392  0.00  0.00    +0.000 A 
ATOM     27  C   UNL     1      -0.767  10.777  21.008  0.00  0.00    +0.000 A 
ATOM     28  C   UNL     1       0.017   9.931  20.217  0.00  0.00    +0.000 A 
ENDBRANCH  20  23
ENDBRANCH  16  17
ENDBRANCH   3  16
TORSDOF 4
ENDMDL
MODEL 3
REMARK VINA RESULT:      -8.8      2.232      3.781
REMARK  Name = 
REMARK  4 active torsions:
REMARK  status: ('A' for Active; 'I' for Inactive)
REMARK    1  A    between atoms: C_2  and  C_4
REMARK    2  A    between atoms: N_6  and  C_7
REMARK    3  A    between atoms: C_7  and  C_8
REMARK    4  A    between atoms: C_11  and  C_12
REMARK                            x       y       z     vdW  Elec       q    Type
REMARK                         _______ _______ _______ _____ _____    ______ ____
ROOT
ATOM      1  C   UNL     1       5.273   4.421  16.966  0.00  0.00    +0.000 C 
ATOM      2  C   UNL     1       4.424   5.688  16.858  0.00  0.00    +0.000 C 
ATOM      3  N   UNL     1       3.376   5.749  17.896  0.00  0.00    +0.000 N 
ATOM      4  C   UNL     1       2.815   4.492  18.189  0.00  0.00    +0.000 A 
ATOM      5  C   UNL     1       1.678   4.372  19.004  0.00  0.00    +0.000 A 
ATOM      6  C   UNL     1       1.044   3.140  19.203  0.00  0.00    +0.000 A 
ATOM      7  C   UNL     1       1.517   1.999  18.566  0.00  0.00    +0.000 A 
ATOM      8  C   UNL     1       2.655   2.081  17.772  0.00  0.00    +0.000 A 
ATOM      9  C   UNL     1       3.313   3.304  17.611  0.00  0.00    +0.000 A 
ATOM     10  O   UNL     1       4.475   3.240  16.876  0.00  0.00    +0.000 OA
ENDROOT
BRANCH   1  12
ATOM     11  N   UNL     1       7.386   5.171  17.980  0.00  0.00    +0.000 N 
ATOM     12  C   UNL     1       6.221   4.476  18.178  0.00  0.00    +0.000 C 
ATOM     13  O   UNL     1       5.957   4.025  19.287  0.00  0.00    +0.000 OA
ATOM     14  H   UNL     1       8.067   5.145  18.728  0.00  0.00    +0.000 HD
ATOM     15  H   UNL     1       7.719   5.318  17.035  0.00  0.00    +0.000 HD
ENDBRANCH   1  12
BRANCH   3  16
ATOM     16  C   UNL     1       3.584   6.688  19.007  0.00  0.00    +0.000 C 
BRANCH  16  17
ATOM     17  C   UNL     1       2.493   7.736  19.086  0.00  0.00    +0.000 A 
ATOM     18  C   UNL     1       2.107   8.467  17.958  0.00  0.00    +0.000 A 
ATOM     19  C   UNL     1       1.045   9.381  18.026  0.00  0.00    +0.000 A 
ATOM     20  C   UNL     1       0.319   9.584  19.214  0.00  0.00    +0.000 A 
ATOM     21  C   UNL     1       0.727   8.845  20.340  0.00  0.00    +0.000 A 
ATOM     22  C   UNL     1       1.798   7.944  20.282  0.00  0.00    +0.000 A 
BRANCH  20  23
ATOM     23  C   UNL     1      -0.824  10.531  19.279  0.00  0.00    +0.000 A 
ATOM     24  C   UNL     1      -1.796  10.585  18.263  0.00  0.00    +0.000 A 
ATOM     25  C   UNL     1      -2.866  11.487  18.318  0.00  0.00    +0.000 A 
ATOM     26  C   UNL     1      -2.999  12.348  19.401  0.00  0.00    +0.000 A 
ATOM     27  C   UNL     1      -2.062  12.309  20.427  0.00  0.00    +0.000 A 
ATOM     28  C   UNL     1      -0.986  11.417  20.362  0.00  0.00    +0.000 A 
ENDBRANCH  20  23
ENDBRANCH  16  17
ENDBRANCH   3  16
TORSDOF 4
ENDMDL
MODEL 4
REMARK VINA RESULT:      -8.7      2.261      3.965
REMARK  Name = 
REMARK  4 active torsions:
REMARK  status: ('A' for Active; 'I' for Inactive)
REMARK    1  A    between atoms: C_2  and  C_4
REMARK    2  A    between atoms: N_6  and  C_7
REMARK    3  A    between atoms: C_7  and  C_8
REMARK    4  A    between atoms: C_11  and  C_12
REMARK                            x       y       z     vdW  Elec       q    Type
REMARK                         _______ _______ _______ _____ _____    ______ ____
ROOT
ATOM      1  C   UNL     1       5.004   4.611  17.130  0.00  0.00    +0.000 C 
ATOM      2  C   UNL     1       4.113   5.853  17.122  0.00  0.00    +0.000 C 
ATOM      3  N   UNL     1       3.092   5.814  18.188  0.00  0.00    +0.000 N 
ATOM      4  C   UNL     1       2.580   4.523  18.416  0.00  0.00    +0.000 A 
ATOM      5  C   UNL     1       1.470   4.315  19.251  0.00  0.00    +0.000 A 
ATOM      6  C   UNL     1       0.882   3.053  19.389  0.00  0.00    +0.000 A 
ATOM      7  C   UNL     1       1.374   1.970  18.671  0.00  0.00    +0.000 A 
ATOM      8  C   UNL     1       2.487   2.138  17.854  0.00  0.00    +0.000 A 
ATOM      9  C   UNL     1       3.100   3.391  17.753  0.00  0.00    +0.000 A 
ATOM     10  O   UNL     1       4.243   3.411  16.986  0.00  0.00    +0.000 OA
ENDROOT
BRANCH   1  12
ATOM     11  N   UNL     1       6.955   5.589  18.267  0.00  0.00    +0.000 N 
ATOM     12  C   UNL     1       5.984   4.623  18.318  0.00  0.00    +0.000 C 
ATOM     13  O   UNL     1       5.886   3.903  19.305  0.00  0.00    +0.000 OA
ATOM     14  H   UNL     1       7.666   5.561  18.987  0.00  0.00    +0.000 HD
ATOM     15  H   UNL     1       7.195   6.002  17.374  0.00  0.00    +0.000 HD
ENDBRANCH   1  12
BRANCH   3  16
ATOM     16  C   UNL     1       3.300   6.690  19.350  0.00  0.00    +0.000 C 
BRANCH  16  17
ATOM     17  C   UNL     1       2.265   7.793  19.432  0.00  0.00    +0.000 A 
ATOM     18  C   UNL     1       1.978   8.601  18.327  0.00  0.00    +0.000 A 
ATOM     19  C   UNL     1       0.964   9.569  18.392  0.00  0.00    +0.000 A 
ATOM     20  C   UNL     1       0.189   9.751  19.553  0.00  0.00    +0.000 A 
ATOM     21  C   UNL     1       0.497   8.933  20.655  0.00  0.00    +0.000 A 
ATOM     22  C   UNL     1       1.521   7.977  20.602  0.00  0.00    +0.000 A 
BRANCH  20  23
ATOM     23  C   UNL     1      -0.903  10.757  19.613  0.00  0.00    +0.000 A 
ATOM     24  C   UNL     1      -0.957  11.726  20.631  0.00  0.00    +0.000 A 
ATOM     25  C   UNL     1      -1.993  12.667  20.696  0.00  0.00    +0.000 A 
ATOM     26  C   UNL     1      -2.994  12.670  19.731  0.00  0.00    +0.000 A 
ATOM     27  C   UNL     1      -2.960  11.733  18.705  0.00  0.00    +0.000 A 
ATOM     28  C   UNL     1      -1.931  10.786  18.652  0.00  0.00    +0.000 A 
ENDBRANCH  20  23
ENDBRANCH  16  17
ENDBRANCH   3  16
TORSDOF 4
ENDMDL
MODEL 5
REMARK VINA RESULT:      -8.7      1.721      2.496
REMARK  Name = 
REMARK  4 active torsions:
REMARK  status: ('A' for Active; 'I' for Inactive)
REMARK    1  A    between atoms: C_2  and  C_4
REMARK    2  A    between atoms: N_6  and  C_7
REMARK    3  A    between atoms: C_7  and  C_8
REMARK    4  A    between atoms: C_11  and  C_12
REMARK                            x       y       z     vdW  Elec       q    Type
REMARK                         _______ _______ _______ _____ _____    ______ ____
ROOT
ATOM      1  C   UNL     1       5.459   4.237  19.364  0.00  0.00    +0.000 C 
ATOM      2  C   UNL     1       4.942   5.676  19.353  0.00  0.00    +0.000 C 
ATOM      3  N   UNL     1       4.472   6.090  18.016  0.00  0.00    +0.000 N 
ATOM      4  C   UNL     1       5.252   5.563  16.969  0.00  0.00    +0.000 A 
ATOM      5  C   UNL     1       5.081   5.995  15.643  0.00  0.00    +0.000 A 
ATOM      6  C   UNL     1       5.930   5.566  14.617  0.00  0.00    +0.000 A 
ATOM      7  C   UNL     1       6.992   4.713  14.897  0.00  0.00    +0.000 A 
ATOM      8  C   UNL     1       7.172   4.249  16.195  0.00  0.00    +0.000 A 
ATOM      9  C   UNL     1       6.295   4.644  17.210  0.00  0.00    +0.000 A 
ATOM     10  O   UNL     1       6.524   4.049  18.430  0.00  0.00    +0.000 OA
ENDROOT
BRANCH   1  12
ATOM     11  N   UNL     1       4.401   2.340  18.207  0.00  0.00    +0.000 N 
ATOM     12  C   UNL     1       4.309   3.220  19.254  0.00  0.00    +0.000 C 
ATOM     13  O   UNL     1       3.403   3.106  20.072  0.00  0.00    +0.000 OA
ATOM     14  H   UNL     1       3.614   1.722  18.057  0.00  0.00    +0.000 HD
ATOM     15  H   UNL     1       4.979   2.579  17.410  0.00  0.00    +0.000 HD
ENDBRANCH   1  12
BRANCH   3  16
ATOM     16  C   UNL     1       3.020   6.186  17.814  0.00  0.00    +0.000 C 
BRANCH  16  17
ATOM     17  C   UNL     1       2.383   7.232  18.707  0.00  0.00    +0.000 A 
ATOM     18  C   UNL     1       2.025   8.489  18.210  0.00  0.00    +0.000 A 
ATOM     19  C   UNL     1       1.368   9.421  19.027  0.00  0.00    +0.000 A 
ATOM     20  C   UNL     1       1.028   9.126  20.360  0.00  0.00    +0.000 A 
ATOM     21  C   UNL     1       1.403   7.858  20.844  0.00  0.00    +0.000 A 
ATOM     22  C   UNL     1       2.075   6.931  20.038  0.00  0.00    +0.000 A 
BRANCH  20  23
ATOM     23  C   UNL     1       0.308  10.102  21.217  0.00  0.00    +0.000 A 
ATOM     24  C   UNL     1      -0.401   9.696  22.363  0.00  0.00    +0.000 A 
ATOM     25  C   UNL     1      -1.091  10.614  23.165  0.00  0.00    +0.000 A 
ATOM     26  C   UNL     1      -1.075  11.968  22.847  0.00  0.00    +0.000 A 
ATOM     27  C   UNL     1      -0.373  12.401  21.729  0.00  0.00    +0.000 A 
ATOM     28  C   UNL     1       0.303  11.479  20.923  0.00  0.00    +0.000 A 
ENDBRANCH  20  23
ENDBRANCH  16  17
ENDBRANCH   3  16
TORSDOF 4
ENDMDL
MODEL 6
REMARK VINA RESULT:      -8.7      2.134      3.696
REMARK  Name = 
REMARK  4 active torsions:
REMARK  status: ('A' for Active; 'I' for Inactive)
REMARK    1  A    between atoms: C_2  and  C_4
REMARK    2  A    between atoms: N_6  and  C_7
REMARK    3  A    between atoms: C_7  and  C_8
REMARK    4  A    between atoms: C_11  and  C_12
REMARK                            x       y       z     vdW  Elec       q    Type
REMARK                         _______ _______ _______ _____ _____    ______ ____
ROOT
ATOM      1  C   UNL     1       5.178   4.500  17.087  0.00  0.00    +0.000 C 
ATOM      2  C   UNL     1       4.292   5.745  17.055  0.00  0.00    +0.000 C 
ATOM      3  N   UNL     1       3.255   5.720  18.105  0.00  0.00    +0.000 N 
ATOM      4  C   UNL     1       2.734   4.433  18.336  0.00  0.00    +0.000 A 
ATOM      5  C   UNL     1       1.610   4.237  19.155  0.00  0.00    +0.000 A 
ATOM      6  C   UNL     1       1.015   2.978  19.294  0.00  0.00    +0.000 A 
ATOM      7  C   UNL     1       1.513   1.886  18.592  0.00  0.00    +0.000 A 
ATOM      8  C   UNL     1       2.639   2.044  17.792  0.00  0.00    +0.000 A 
ATOM      9  C   UNL     1       3.259   3.293  17.691  0.00  0.00    +0.000 A 
ATOM     10  O   UNL     1       4.414   3.302  16.942  0.00  0.00    +0.000 OA
ENDROOT
BRANCH   1  12
ATOM     11  N   UNL     1       7.465   4.360  17.984  0.00  0.00    +0.000 N 
ATOM     12  C   UNL     1       6.139   4.518  18.290  0.00  0.00    +0.000 C 
ATOM     13  O   UNL     1       5.799   4.747  19.445  0.00  0.00    +0.000 OA
ATOM     14  H   UNL     1       8.108   4.276  18.761  0.00  0.00    +0.000 HD
ATOM     15  H   UNL     1       7.721   3.929  17.104  0.00  0.00    +0.000 HD
ENDBRANCH   1  12
BRANCH   3  16
ATOM     16  C   UNL     1       3.449   6.604  19.263  0.00  0.00    +0.000 C 
BRANCH  16  17
ATOM     17  C   UNL     1       2.332   7.618  19.405  0.00  0.00    +0.000 A 
ATOM     18  C   UNL     1       1.647   7.778  20.615  0.00  0.00    +0.000 A 
ATOM     19  C   UNL     1       0.667   8.772  20.757  0.00  0.00    +0.000 A 
ATOM     20  C   UNL     1       0.350   9.652  19.706  0.00  0.00    +0.000 A 
ATOM     21  C   UNL     1       1.044   9.472  18.496  0.00  0.00    +0.000 A 
ATOM     22  C   UNL     1       2.011   8.469  18.343  0.00  0.00    +0.000 A 
BRANCH  20  23
ATOM     23  C   UNL     1      -0.668  10.723  19.865  0.00  0.00    +0.000 A 
ATOM     24  C   UNL     1      -0.746  11.499  21.036  0.00  0.00    +0.000 A 
ATOM     25  C   UNL     1      -1.714  12.500  21.192  0.00  0.00    +0.000 A 
ATOM     26  C   UNL     1      -2.620  12.759  20.169  0.00  0.00    +0.000 A 
ATOM     27  C   UNL     1      -2.560  12.018  18.995  0.00  0.00    +0.000 A 
ATOM     28  C   UNL     1      -1.601  11.010  18.850  0.00  0.00    +0.000 A 
ENDBRANCH  20  23
ENDBRANCH  16  17
ENDBRANCH   3  16
TORSDOF 4
ENDMDL
MODEL 7
REMARK VINA RESULT:      -8.6      2.209      3.924
REMARK  Name = 
REMARK  4 active torsions:
REMARK  status: ('A' for Active; 'I' for Inactive)
REMARK    1  A    between atoms: C_2  and  C_4
REMARK    2  A    between atoms: N_6  and  C_7
REMARK    3  A    between atoms: C_7  and  C_8
REMARK    4  A    between atoms: C_11  and  C_12
REMARK                            x       y       z     vdW  Elec       q    Type
REMARK                         _______ _______ _______ _____ _____    ______ ____
ROOT
ATOM      1  C   UNL     1       4.544   4.920  17.257  0.00  0.00    +0.000 C 
ATOM      2  C   UNL     1       3.601   6.110  17.433  0.00  0.00    +0.000 C 
ATOM      3  N   UNL     1       2.671   5.924  18.564  0.00  0.00    +0.000 N 
ATOM      4  C   UNL     1       2.235   4.593  18.707  0.00  0.00    +0.000 A 
ATOM      5  C   UNL     1       1.205   4.254  19.600  0.00  0.00    +0.000 A 
ATOM      6  C   UNL     1       0.686   2.956  19.662  0.00  0.00    +0.000 A 
ATOM      7  C   UNL     1       1.166   1.969  18.810  0.00  0.00    +0.000 A 
ATOM      8  C   UNL     1       2.202   2.267  17.932  0.00  0.00    +0.000 A 
ATOM      9  C   UNL     1       2.750   3.553  17.904  0.00  0.00    +0.000 A 
ATOM     10  O   UNL     1       3.826   3.701  17.059  0.00  0.00    +0.000 OA
ENDROOT
BRANCH   1  12
ATOM     11  N   UNL     1       5.860   3.633  18.890  0.00  0.00    +0.000 N 
ATOM     12  C   UNL     1       5.612   4.874  18.364  0.00  0.00    +0.000 C 
ATOM     13  O   UNL     1       6.286   5.835  18.719  0.00  0.00    +0.000 OA
ATOM     14  H   UNL     1       6.490   3.588  19.681  0.00  0.00    +0.000 HD
ATOM     15  H   UNL     1       5.160   2.907  18.795  0.00  0.00    +0.000 HD
ENDBRANCH   1  12
BRANCH   3  16
ATOM     16  C   UNL     1       2.932   6.700  19.785  0.00  0.00    +0.000 C 
BRANCH  16  17
ATOM     17  C   UNL     1       1.897   7.784  20.009  0.00  0.00    +0.000 A 
ATOM     18  C   UNL     1       1.180   7.864  21.207  0.00  0.00    +0.000 A 
ATOM     19  C   UNL     1       0.279   8.916  21.433  0.00  0.00    +0.000 A 
ATOM     20  C   UNL     1       0.078   9.933  20.483  0.00  0.00    +0.000 A 
ATOM     21  C   UNL     1       0.803   9.831  19.282  0.00  0.00    +0.000 A 
ATOM     22  C   UNL     1       1.690   8.773  19.043  0.00  0.00    +0.000 A 
BRANCH  20  23
ATOM     23  C   UNL     1      -0.855  11.062  20.733  0.00  0.00    +0.000 A 
ATOM     24  C   UNL     1      -1.643  11.611  19.704  0.00  0.00    +0.000 A 
ATOM     25  C   UNL     1      -2.513  12.684  19.937  0.00  0.00    +0.000 A 
ATOM     26  C   UNL     1      -2.629  13.224  21.212  0.00  0.00    +0.000 A 
ATOM     27  C   UNL     1      -1.874  12.695  22.252  0.00  0.00    +0.000 A 
ATOM     28  C   UNL     1      -0.995  11.633  22.013  0.00  0.00    +0.000 A 
ENDBRANCH  20  23
ENDBRANCH  16  17
ENDBRANCH   3  16
TORSDOF 4
ENDMDL
MODEL 8
REMARK VINA RESULT:      -8.6      1.964      2.819
REMARK  Name = 
REMARK  4 active torsions:
REMARK  status: ('A' for Active; 'I' for Inactive)
REMARK    1  A    between atoms: C_2  and  C_4
REMARK    2  A    between atoms: N_6  and  C_7
REMARK    3  A    between atoms: C_7  and  C_8
REMARK    4  A    between atoms: C_11  and  C_12
REMARK                            x       y       z     vdW  Elec       q    Type
REMARK                         _______ _______ _______ _____ _____    ______ ____
ROOT
ATOM      1  C   UNL     1       4.740   3.684  19.398  0.00  0.00    +0.000 C 
ATOM      2  C   UNL     1       4.332   5.128  19.687  0.00  0.00    +0.000 C 
ATOM      3  N   UNL     1       4.069   5.892  18.452  0.00  0.00    +0.000 N 
ATOM      4  C   UNL     1       4.938   5.554  17.397  0.00  0.00    +0.000 A 
ATOM      5  C   UNL     1       4.971   6.302  16.209  0.00  0.00    +0.000 A 
ATOM      6  C   UNL     1       5.913   6.046  15.207  0.00  0.00    +0.000 A 
ATOM      7  C   UNL     1       6.867   5.050  15.381  0.00  0.00    +0.000 A 
ATOM      8  C   UNL     1       6.845   4.276  16.535  0.00  0.00    +0.000 A 
ATOM      9  C   UNL     1       5.874   4.504  17.515  0.00  0.00    +0.000 A 
ATOM     10  O   UNL     1       5.901   3.617  18.567  0.00  0.00    +0.000 OA
ENDROOT
BRANCH   1  12
ATOM     11  N   UNL     1       3.862   1.785  18.103  0.00  0.00    +0.000 N 
ATOM     12  C   UNL     1       3.545   2.842  18.916  0.00  0.00    +0.000 C 
ATOM     13  O   UNL     1       2.387   3.009  19.281  0.00  0.00    +0.000 OA
ATOM     14  H   UNL     1       3.090   1.271  17.698  0.00  0.00    +0.000 HD
ATOM     15  H   UNL     1       4.744   1.791  17.606  0.00  0.00    +0.000 HD
ENDBRANCH   1  12
BRANCH   3  16
ATOM     16  C   UNL     1       2.665   6.178  18.123  0.00  0.00    +0.000 C 
BRANCH  16  17
ATOM     17  C   UNL     1       2.098   7.308  18.959  0.00  0.00    +0.000 A 
ATOM     18  C   UNL     1       1.851   8.568  18.403  0.00  0.00    +0.000 A 
ATOM     19  C   UNL     1       1.256   9.583  19.167  0.00  0.00    +0.000 A 
ATOM     20  C   UNL     1       0.869   9.372  20.503  0.00  0.00    +0.000 A 
ATOM     21  C   UNL     1       1.132   8.101  21.046  0.00  0.00    +0.000 A 
ATOM     22  C   UNL     1       1.743   7.089  20.294  0.00  0.00    +0.000 A 
BRANCH  20  23
ATOM     23  C   UNL     1       0.214  10.438  21.304  0.00  0.00    +0.000 A 
ATOM     24  C   UNL     1       0.380  11.801  20.995  0.00  0.00    +0.000 A 
ATOM     25  C   UNL     1      -0.227  12.807  21.757  0.00  0.00    +0.000 A 
ATOM     26  C   UNL     1      -1.031  12.473  22.840  0.00  0.00    +0.000 A 
ATOM     27  C   UNL     1      -1.226  11.135  23.162  0.00  0.00    +0.000 A 
ATOM     28  C   UNL     1      -0.606  10.133  22.408  0.00  0.00    +0.000 A 
ENDBRANCH  20  23
ENDBRANCH  16  17
ENDBRANCH   3  16
TORSDOF 4
ENDMDL
MODEL 9
REMARK VINA RESULT:      -8.5      4.753      8.895
REMARK  Name = 
REMARK  4 active torsions:
REMARK  status: ('A' for Active; 'I' for Inactive)
REMARK    1  A    between atoms: C_2  and  C_4
REMARK    2  A    between atoms: N_6  and  C_7
REMARK    3  A    between atoms: C_7  and  C_8
REMARK    4  A    between atoms: C_11  and  C_12
REMARK                            x       y       z     vdW  Elec       q    Type
REMARK                         _______ _______ _______ _____ _____    ______ ____
ROOT
ATOM      1  C   UNL     1      -1.607  12.525  20.596  0.00  0.00    +0.000 C 
ATOM      2  C   UNL     1      -0.905  11.184  20.811  0.00  0.00    +0.000 C 
ATOM      3  N   UNL     1      -0.600  10.503  19.537  0.00  0.00    +0.000 N 
ATOM      4  C   UNL     1      -1.600  10.681  18.562  0.00  0.00    +0.000 A 
ATOM      5  C   UNL     1      -1.584   9.957  17.359  0.00  0.00    +0.000 A 
ATOM      6  C   UNL     1      -2.635  10.039  16.439  0.00  0.00    +0.000 A 
ATOM      7  C   UNL     1      -3.746  10.827  16.714  0.00  0.00    +0.000 A 
ATOM      8  C   UNL     1      -3.781  11.574  17.886  0.00  0.00    +0.000 A 
ATOM      9  C   UNL     1      -2.709  11.526  18.782  0.00  0.00    +0.000 A 
ATOM     10  O   UNL     1      -2.821  12.376  19.859  0.00  0.00    +0.000 OA
ENDROOT
BRANCH   1  12
ATOM     11  N   UNL     1      -1.217  14.571  19.286  0.00  0.00    +0.000 N 
ATOM     12  C   UNL     1      -0.639  13.590  20.050  0.00  0.00    +0.000 C 
ATOM     13  O   UNL     1       0.553  13.652  20.327  0.00  0.00    +0.000 OA
ATOM     14  H   UNL     1      -0.593  15.230  18.839  0.00  0.00    +0.000 HD
ATOM     15  H   UNL     1      -2.116  14.394  18.853  0.00  0.00    +0.000 HD
ENDBRANCH   1  12
BRANCH   3  16
ATOM     16  C   UNL     1       0.802  10.501  19.094  0.00  0.00    +0.000 C 
BRANCH  16  17
ATOM     17  C   UNL     1       1.426   9.122  19.172  0.00  0.00    +0.000 A 
ATOM     18  C   UNL     1       1.394   8.377  20.355  0.00  0.00    +0.000 A 
ATOM     19  C   UNL     1       1.909   7.073  20.394  0.00  0.00    +0.000 A 
ATOM     20  C   UNL     1       2.455   6.460  19.252  0.00  0.00    +0.000 A 
ATOM     21  C   UNL     1       2.485   7.227  18.073  0.00  0.00    +0.000 A 
ATOM     22  C   UNL     1       1.989   8.537  18.033  0.00  0.00    +0.000 A 
BRANCH  20  23
ATOM     23  C   UNL     1       2.975   5.068  19.286  0.00  0.00    +0.000 A 
ATOM     24  C   UNL     1       2.685   4.198  20.353  0.00  0.00    +0.000 A 
ATOM     25  C   UNL     1       3.185   2.890  20.392  0.00  0.00    +0.000 A 
ATOM     26  C   UNL     1       3.977   2.415  19.353  0.00  0.00    +0.000 A 
ATOM     27  C   UNL     1       4.271   3.246  18.279  0.00  0.00    +0.000 A 
ATOM     28  C   UNL     1       3.781   4.557  18.250  0.00  0.00    +0.000 A 
ENDBRANCH  20  23
ENDBRANCH  16  17
ENDBRANCH   3  16
TORSDOF 4
ENDMDL
