MODEL 1
REMARK VINA RESULT:      -6.5      0.000      0.000
REMARK  Name = 
REMARK  2 active torsions:
REMARK  status: ('A' for Active; 'I' for Inactive)
REMARK    1  A    between atoms: C_1  and  N_2
REMARK    2  A    between atoms: N_9  and  C_10
REMARK                            x       y       z     vdW  Elec       q    Type
REMARK                         _______ _______ _______ _____ _____    ______ ____
ROOT
ATOM      1  C   UNL     1       0.763   2.602  18.877  0.00  0.00    +0.000 C 
ATOM      2  N   UNL     1       2.195   2.306  18.830  0.00  0.00    +0.000 NA
ATOM      3  C   UNL     1       2.899   3.000  19.918  0.00  0.00    +0.000 C 
ATOM      4  C   UNL     1       4.427   3.048  19.812  0.00  0.00    +0.000 C 
ATOM      5  C   UNL     1       4.930   4.216  18.961  0.00  0.00    +0.000 C 
ATOM      6  N   UNL     1       4.659   4.080  17.529  0.00  0.00    +0.000 N 
ATOM      7  C   UNL     1       5.741   4.043  16.662  0.00  0.00    +0.000 C 
ATOM      8  O   UNL     1       6.905   4.130  17.045  0.00  0.00    +0.000 OA
ATOM      9  N   UNL     1       5.438   3.955  15.325  0.00  0.00    +0.000 N 
ATOM     10  C   UNL     1       3.247   3.930  17.161  0.00  0.00    +0.000 C 
ATOM     11  C   UNL     1       2.747   2.510  17.483  0.00  0.00    +0.000 C 
ATOM     12  H   UNL     1       4.563   3.536  15.067  0.00  0.00    +0.000 HD
ENDROOT
BRANCH   9  13
ATOM     13  C   UNL     1       6.483   3.928  14.321  0.00  0.00    +0.000 C 
ATOM     14  C   UNL     1       5.975   3.558  12.929  0.00  0.00    +0.000 C 
ATOM     15  C   UNL     1       7.099   4.023  12.010  0.00  0.00    +0.000 C 
ATOM     16  C   UNL     1       7.737   5.224  12.709  0.00  0.00    +0.000 C 
ATOM     17  C   UNL     1       7.096   5.306  14.091  0.00  0.00    +0.000 C 
ENDBRANCH   9  13
TORSDOF 1
ENDMDL
MODEL 2
REMARK VINA RESULT:      -6.5      3.078      3.814
REMARK  Name = 
REMARK  2 active torsions:
REMARK  status: ('A' for Active; 'I' for Inactive)
REMARK    1  A    between atoms: C_1  and  N_2
REMARK    2  A    between atoms: N_9  and  C_10
REMARK                            x       y       z     vdW  Elec       q    Type
REMARK                         _______ _______ _______ _____ _____    ______ ____
ROOT
ATOM      1  C   UNL     1       1.257   2.473  21.855  0.00  0.00    +0.000 C 
ATOM      2  N   UNL     1       1.452   3.165  20.581  0.00  0.00    +0.000 NA
ATOM      3  C   UNL     1       1.202   2.253  19.456  0.00  0.00    +0.000 C 
ATOM      4  C   UNL     1       1.672   2.733  18.078  0.00  0.00    +0.000 C 
ATOM      5  C   UNL     1       3.142   2.409  17.803  0.00  0.00    +0.000 C 
ATOM      6  N   UNL     1       4.091   3.193  18.594  0.00  0.00    +0.000 N 
ATOM      7  C   UNL     1       4.987   4.009  17.918  0.00  0.00    +0.000 C 
ATOM      8  O   UNL     1       5.020   4.089  16.693  0.00  0.00    +0.000 OA
ATOM      9  N   UNL     1       5.885   4.694  18.700  0.00  0.00    +0.000 N 
ATOM     10  C   UNL     1       3.951   3.080  20.051  0.00  0.00    +0.000 C 
ATOM     11  C   UNL     1       2.734   3.884  20.546  0.00  0.00    +0.000 C 
ATOM     12  H   UNL     1       5.625   4.898  19.648  0.00  0.00    +0.000 HD
ENDROOT
BRANCH   9  13
ATOM     13  C   UNL     1       6.883   5.563  18.108  0.00  0.00    +0.000 C 
ATOM     14  C   UNL     1       6.290   6.811  17.459  0.00  0.00    +0.000 C 
ATOM     15  C   UNL     1       7.490   7.742  17.326  0.00  0.00    +0.000 C 
ATOM     16  C   UNL     1       8.416   7.393  18.491  0.00  0.00    +0.000 C 
ATOM     17  C   UNL     1       7.825   6.151  19.152  0.00  0.00    +0.000 C 
ENDBRANCH   9  13
TORSDOF 1
ENDMDL
MODEL 3
REMARK VINA RESULT:      -6.3      1.723      6.397
REMARK  Name = 
REMARK  2 active torsions:
REMARK  status: ('A' for Active; 'I' for Inactive)
REMARK    1  A    between atoms: C_1  and  N_2
REMARK    2  A    between atoms: N_9  and  C_10
REMARK                            x       y       z     vdW  Elec       q    Type
REMARK                         _______ _______ _______ _____ _____    ______ ____
ROOT
ATOM      1  C   UNL     1       6.389   3.870  13.277  0.00  0.00    +0.000 C 
ATOM      2  N   UNL     1       6.145   4.821  14.363  0.00  0.00    +0.000 NA
ATOM      3  C   UNL     1       7.411   5.198  15.009  0.00  0.00    +0.000 C 
ATOM      4  C   UNL     1       7.293   5.927  16.352  0.00  0.00    +0.000 C 
ATOM      5  C   UNL     1       7.159   4.972  17.540  0.00  0.00    +0.000 C 
ATOM      6  N   UNL     1       5.876   4.271  17.609  0.00  0.00    +0.000 N 
ATOM      7  C   UNL     1       5.080   4.476  18.726  0.00  0.00    +0.000 C 
ATOM      8  O   UNL     1       5.413   5.208  19.656  0.00  0.00    +0.000 OA
ATOM      9  N   UNL     1       3.905   3.767  18.766  0.00  0.00    +0.000 N 
ATOM     10  C   UNL     1       5.532   3.459  16.436  0.00  0.00    +0.000 C 
ATOM     11  C   UNL     1       5.084   4.354  15.265  0.00  0.00    +0.000 C 
ATOM     12  H   UNL     1       3.496   3.482  17.894  0.00  0.00    +0.000 HD
ENDROOT
BRANCH   9  13
ATOM     13  C   UNL     1       2.998   3.882  19.891  0.00  0.00    +0.000 C 
ATOM     14  C   UNL     1       1.526   3.867  19.487  0.00  0.00    +0.000 C 
ATOM     15  C   UNL     1       0.806   3.548  20.792  0.00  0.00    +0.000 C 
ATOM     16  C   UNL     1       1.775   2.685  21.601  0.00  0.00    +0.000 C 
ATOM     17  C   UNL     1       3.093   2.684  20.831  0.00  0.00    +0.000 C 
ENDBRANCH   9  13
TORSDOF 1
ENDMDL
MODEL 4
REMARK VINA RESULT:      -6.0      5.405      7.994
REMARK  Name = 
REMARK  2 active torsions:
REMARK  status: ('A' for Active; 'I' for Inactive)
REMARK    1  A    between atoms: C_1  and  N_2
REMARK    2  A    between atoms: N_9  and  C_10
REMARK                            x       y       z     vdW  Elec       q    Type
REMARK                         _______ _______ _______ _____ _____    ______ ____
ROOT
ATOM      1  C   UNL     1       1.800   2.043  20.239  0.00  0.00    +0.000 C 
ATOM      2  N   UNL     1       1.379   3.229  19.494  0.00  0.00    +0.000 NA
ATOM      3  C   UNL     1       2.347   3.540  18.432  0.00  0.00    +0.000 C 
ATOM      4  C   UNL     1       2.216   4.921  17.781  0.00  0.00    +0.000 C 
ATOM      5  C   UNL     1       2.955   6.017  18.552  0.00  0.00    +0.000 C 
ATOM      6  N   UNL     1       2.344   6.370  19.834  0.00  0.00    +0.000 N 
ATOM      7  C   UNL     1       1.904   7.673  20.009  0.00  0.00    +0.000 C 
ATOM      8  O   UNL     1       2.016   8.537  19.142  0.00  0.00    +0.000 OA
ATOM      9  N   UNL     1       1.375   7.969  21.242  0.00  0.00    +0.000 N 
ATOM     10  C   UNL     1       2.201   5.270  20.794  0.00  0.00    +0.000 C 
ATOM     11  C   UNL     1       1.040   4.342  20.392  0.00  0.00    +0.000 C 
ATOM     12  H   UNL     1       0.972   7.219  21.774  0.00  0.00    +0.000 HD
ENDROOT
BRANCH   9  13
ATOM     13  C   UNL     1       0.898   9.302  21.552  0.00  0.00    +0.000 C 
ATOM     14  C   UNL     1      -0.261   9.752  20.666  0.00  0.00    +0.000 C 
ATOM     15  C   UNL     1      -0.860  10.922  21.439  0.00  0.00    +0.000 C 
ATOM     16  C   UNL     1      -0.605  10.618  22.916  0.00  0.00    +0.000 C 
ATOM     17  C   UNL     1       0.295   9.386  22.950  0.00  0.00    +0.000 C 
ENDBRANCH   9  13
TORSDOF 1
ENDMDL
MODEL 5
REMARK VINA RESULT:      -5.8      1.833      2.296
REMARK  Name = 
REMARK  2 active torsions:
REMARK  status: ('A' for Active; 'I' for Inactive)
REMARK    1  A    between atoms: C_1  and  N_2
REMARK    2  A    between atoms: N_9  and  C_10
REMARK                            x       y       z     vdW  Elec       q    Type
REMARK                         _______ _______ _______ _____ _____    ______ ____
ROOT
ATOM      1  C   UNL     1       1.524   2.630  21.591  0.00  0.00    +0.000 C 
ATOM      2  N   UNL     1       2.428   3.666  21.092  0.00  0.00    +0.000 NA
ATOM      3  C   UNL     1       1.674   4.879  20.741  0.00  0.00    +0.000 C 
ATOM      4  C   UNL     1       2.427   5.927  19.912  0.00  0.00    +0.000 C 
ATOM      5  C   UNL     1       2.370   5.651  18.408  0.00  0.00    +0.000 C 
ATOM      6  N   UNL     1       3.152   4.492  17.976  0.00  0.00    +0.000 N 
ATOM      7  C   UNL     1       4.185   4.702  17.076  0.00  0.00    +0.000 C 
ATOM      8  O   UNL     1       4.459   5.811  16.622  0.00  0.00    +0.000 OA
ATOM      9  N   UNL     1       4.865   3.581  16.667  0.00  0.00    +0.000 N 
ATOM     10  C   UNL     1       2.794   3.215  18.603  0.00  0.00    +0.000 C 
ATOM     11  C   UNL     1       3.323   3.149  20.048  0.00  0.00    +0.000 C 
ATOM     12  H   UNL     1       4.879   2.788  17.284  0.00  0.00    +0.000 HD
ENDROOT
BRANCH   9  13
ATOM     13  C   UNL     1       5.953   3.670  15.714  0.00  0.00    +0.000 C 
ATOM     14  C   UNL     1       5.490   3.991  14.295  0.00  0.00    +0.000 C 
ATOM     15  C   UNL     1       6.765   4.466  13.608  0.00  0.00    +0.000 C 
ATOM     16  C   UNL     1       7.611   5.113  14.705  0.00  0.00    +0.000 C 
ATOM     17  C   UNL     1       6.895   4.829  16.022  0.00  0.00    +0.000 C 
ENDBRANCH   9  13
TORSDOF 1
ENDMDL
MODEL 6
REMARK VINA RESULT:      -5.7      2.348      2.883
REMARK  Name = 
REMARK  2 active torsions:
REMARK  status: ('A' for Active; 'I' for Inactive)
REMARK    1  A    between atoms: C_1  and  N_2
REMARK    2  A    between atoms: N_9  and  C_10
REMARK                            x       y       z     vdW  Elec       q    Type
REMARK                         _______ _______ _______ _____ _____    ______ ____
ROOT
ATOM      1  C   UNL     1       1.736   7.587  20.981  0.00  0.00    +0.000 C 
ATOM      2  N   UNL     1       1.589   6.482  20.034  0.00  0.00    +0.000 NA
ATOM      3  C   UNL     1       1.389   5.214  20.751  0.00  0.00    +0.000 C 
ATOM      4  C   UNL     1       1.539   3.936  19.918  0.00  0.00    +0.000 C 
ATOM      5  C   UNL     1       2.990   3.460  19.811  0.00  0.00    +0.000 C 
ATOM      6  N   UNL     1       3.844   4.310  18.982  0.00  0.00    +0.000 N 
ATOM      7  C   UNL     1       4.430   3.746  17.858  0.00  0.00    +0.000 C 
ATOM      8  O   UNL     1       4.270   2.570  17.543  0.00  0.00    +0.000 OA
ATOM      9  N   UNL     1       5.257   4.570  17.133  0.00  0.00    +0.000 N 
ATOM     10  C   UNL     1       3.942   5.713  19.399  0.00  0.00    +0.000 C 
ATOM     11  C   UNL     1       2.660   6.483  19.029  0.00  0.00    +0.000 C 
ATOM     12  H   UNL     1       5.096   5.560  17.182  0.00  0.00    +0.000 HD
ENDROOT
BRANCH   9  13
ATOM     13  C   UNL     1       5.942   4.090  15.949  0.00  0.00    +0.000 C 
ATOM     14  C   UNL     1       5.070   4.109  14.696  0.00  0.00    +0.000 C 
ATOM     15  C   UNL     1       6.084   4.010  13.562  0.00  0.00    +0.000 C 
ATOM     16  C   UNL     1       7.352   4.689  14.079  0.00  0.00    +0.000 C 
ATOM     17  C   UNL     1       7.106   4.992  15.554  0.00  0.00    +0.000 C 
ENDBRANCH   9  13
TORSDOF 1
ENDMDL
MODEL 7
REMARK VINA RESULT:      -5.7      5.722      6.908
REMARK  Name = 
REMARK  2 active torsions:
REMARK  status: ('A' for Active; 'I' for Inactive)
REMARK    1  A    between atoms: C_1  and  N_2
REMARK    2  A    between atoms: N_9  and  C_10
REMARK                            x       y       z     vdW  Elec       q    Type
REMARK                         _______ _______ _______ _____ _____    ______ ____
ROOT
ATOM      1  C   UNL     1      -0.477  12.014  18.729  0.00  0.00    +0.000 C 
ATOM      2  N   UNL     1      -0.676  10.681  19.299  0.00  0.00    +0.000 NA
ATOM      3  C   UNL     1      -0.498  10.715  20.758  0.00  0.00    +0.000 C 
ATOM      4  C   UNL     1      -0.358   9.356  21.454  0.00  0.00    +0.000 C 
ATOM      5  C   UNL     1       1.078   8.830  21.453  0.00  0.00    +0.000 C 
ATOM      6  N   UNL     1       1.565   8.405  20.140  0.00  0.00    +0.000 N 
ATOM      7  C   UNL     1       1.942   7.080  19.982  0.00  0.00    +0.000 C 
ATOM      8  O   UNL     1       1.893   6.260  20.896  0.00  0.00    +0.000 OA
ATOM      9  N   UNL     1       2.430   6.736  18.745  0.00  0.00    +0.000 N 
ATOM     10  C   UNL     1       1.543   9.431  19.091  0.00  0.00    +0.000 C 
ATOM     11  C   UNL     1       0.107   9.663  18.585  0.00  0.00    +0.000 C 
ATOM     12  H   UNL     1       2.135   7.280  17.954  0.00  0.00    +0.000 HD
ENDROOT
BRANCH   9  13
ATOM     13  C   UNL     1       2.874   5.385  18.463  0.00  0.00    +0.000 C 
ATOM     14  C   UNL     1       1.798   4.517  17.817  0.00  0.00    +0.000 C 
ATOM     15  C   UNL     1       2.591   3.358  17.224  0.00  0.00    +0.000 C 
ATOM     16  C   UNL     1       3.960   3.934  16.863  0.00  0.00    +0.000 C 
ATOM     17  C   UNL     1       3.991   5.352  17.425  0.00  0.00    +0.000 C 
ENDBRANCH   9  13
TORSDOF 1
ENDMDL
MODEL 8
REMARK VINA RESULT:      -5.6      2.057      2.567
REMARK  Name = 
REMARK  2 active torsions:
REMARK  status: ('A' for Active; 'I' for Inactive)
REMARK    1  A    between atoms: C_1  and  N_2
REMARK    2  A    between atoms: N_9  and  C_10
REMARK                            x       y       z     vdW  Elec       q    Type
REMARK                         _______ _______ _______ _____ _____    ______ ____
ROOT
ATOM      1  C   UNL     1       1.889   2.306  21.295  0.00  0.00    +0.000 C 
ATOM      2  N   UNL     1       2.722   3.468  20.983  0.00  0.00    +0.000 NA
ATOM      3  C   UNL     1       1.936   4.706  21.081  0.00  0.00    +0.000 C 
ATOM      4  C   UNL     1       2.574   5.962  20.479  0.00  0.00    +0.000 C 
ATOM      5  C   UNL     1       2.309   6.106  18.979  0.00  0.00    +0.000 C 
ATOM      6  N   UNL     1       3.017   5.133  18.145  0.00  0.00    +0.000 N 
ATOM      7  C   UNL     1       3.919   5.613  17.207  0.00  0.00    +0.000 C 
ATOM      8  O   UNL     1       4.135   6.811  17.042  0.00  0.00    +0.000 OA
ATOM      9  N   UNL     1       4.529   4.667  16.420  0.00  0.00    +0.000 N 
ATOM     10  C   UNL     1       2.741   3.723  18.440  0.00  0.00    +0.000 C 
ATOM     11  C   UNL     1       3.463   3.282  19.727  0.00  0.00    +0.000 C 
ATOM     12  H   UNL     1       4.622   3.737  16.787  0.00  0.00    +0.000 HD
ENDROOT
BRANCH   9  13
ATOM     13  C   UNL     1       5.476   5.046  15.390  0.00  0.00    +0.000 C 
ATOM     14  C   UNL     1       6.932   4.863  15.810  0.00  0.00    +0.000 C 
ATOM     15  C   UNL     1       7.685   4.881  14.484  0.00  0.00    +0.000 C 
ATOM     16  C   UNL     1       6.716   4.310  13.449  0.00  0.00    +0.000 C 
ATOM     17  C   UNL     1       5.374   4.154  14.158  0.00  0.00    +0.000 C 
ENDBRANCH   9  13
TORSDOF 1
ENDMDL
MODEL 9
REMARK VINA RESULT:      -5.6      2.280      6.714
REMARK  Name = 
REMARK  2 active torsions:
REMARK  status: ('A' for Active; 'I' for Inactive)
REMARK    1  A    between atoms: C_1  and  N_2
REMARK    2  A    between atoms: N_9  and  C_10
REMARK                            x       y       z     vdW  Elec       q    Type
REMARK                         _______ _______ _______ _____ _____    ______ ____
ROOT
ATOM      1  C   UNL     1       7.829   8.087  17.447  0.00  0.00    +0.000 C 
ATOM      2  N   UNL     1       7.631   6.638  17.424  0.00  0.00    +0.000 NA
ATOM      3  C   UNL     1       7.481   6.161  16.041  0.00  0.00    +0.000 C 
ATOM      4  C   UNL     1       6.951   4.733  15.872  0.00  0.00    +0.000 C 
ATOM      5  C   UNL     1       5.423   4.656  15.892  0.00  0.00    +0.000 C 
ATOM      6  N   UNL     1       4.823   4.911  17.202  0.00  0.00    +0.000 N 
ATOM      7  C   UNL     1       4.071   3.900  17.783  0.00  0.00    +0.000 C 
ATOM      8  O   UNL     1       3.882   2.815  17.239  0.00  0.00    +0.000 OA
ATOM      9  N   UNL     1       3.494   4.198  18.993  0.00  0.00    +0.000 N 
ATOM     10  C   UNL     1       5.140   6.211  17.805  0.00  0.00    +0.000 C 
ATOM     11  C   UNL     1       6.577   6.220  18.359  0.00  0.00    +0.000 C 
ATOM     12  H   UNL     1       3.931   4.901  19.563  0.00  0.00    +0.000 HD
ENDROOT
BRANCH   9  13
ATOM     13  C   UNL     1       2.669   3.230  19.689  0.00  0.00    +0.000 C 
ATOM     14  C   UNL     1       2.704   3.385  21.207  0.00  0.00    +0.000 C 
ATOM     15  C   UNL     1       1.475   2.610  21.667  0.00  0.00    +0.000 C 
ATOM     16  C   UNL     1       0.458   2.730  20.531  0.00  0.00    +0.000 C 
ATOM     17  C   UNL     1       1.187   3.406  19.374  0.00  0.00    +0.000 C 
ENDBRANCH   9  13
TORSDOF 1
ENDMDL
