MODEL 1
REMARK VINA RESULT:      -7.8      0.000      0.000
REMARK  Name = 
REMARK  6 active torsions:
REMARK  status: ('A' for Active; 'I' for Inactive)
REMARK    1  A    between atoms: C_1  and  C_2
REMARK    2  A    between atoms: C_4  and  C_5
REMARK    3  A    between atoms: C_7  and  O_8
REMARK    4  A    between atoms: C_10  and  S_11
REMARK    5  A    between atoms: S_11  and  C_12
REMARK    6  A    between atoms: C_12  and  C_13
REMARK                            x       y       z     vdW  Elec       q    Type
REMARK                         _______ _______ _______ _____ _____    ______ ____
ROOT
ATOM      1  C   UNL     1       1.555   7.555  20.824  0.00  0.00    +0.000 C 
ATOM      2  C   UNL     1       1.936   6.224  20.247  0.00  0.00    +0.000 A 
ATOM      3  C   UNL     1       1.579   5.050  20.874  0.00  0.00    +0.000 A 
ATOM      4  C   UNL     1       1.958   3.833  20.298  0.00  0.00    +0.000 A 
ATOM      5  C   UNL     1       1.538   2.591  21.033  0.00  0.00    +0.000 C 
ATOM      6  C   UNL     1       2.709   3.845  19.064  0.00  0.00    +0.000 A 
ATOM      7  C   UNL     1       3.211   2.783  18.281  0.00  0.00    +0.000 A 
ATOM      8  N   UNL     1       3.906   2.919  17.140  0.00  0.00    +0.000 NA
ATOM      9  C   UNL     1       4.130   4.166  16.740  0.00  0.00    +0.000 A 
ATOM     10  N   UNL     1       3.708   5.248  17.393  0.00  0.00    +0.000 NA
ATOM     11  C   UNL     1       3.019   5.095  18.514  0.00  0.00    +0.000 A 
ATOM     12  N   UNL     1       2.639   6.234  19.095  0.00  0.00    +0.000 NA
ENDROOT
BRANCH   7  13
ATOM     13  O   UNL     1       3.060   1.466  18.597  0.00  0.00    +0.000 OA
ATOM     14  H   UNL     1       2.971   0.935  17.801  0.00  0.00    +0.000 HD
ENDBRANCH   7  13
BRANCH   9  15
ATOM     15  S   UNL     1       5.124   4.452  15.292  0.00  0.00    +0.000 S 
BRANCH  15  16
ATOM     16  C   UNL     1       6.792   4.110  15.937  0.00  0.00    +0.000 C 
BRANCH  16  17
ATOM     17  C   UNL     1       7.231   5.163  16.938  0.00  0.00    +0.000 A 
ATOM     18  C   UNL     1       7.230   6.524  16.594  0.00  0.00    +0.000 A 
ATOM     19  C   UNL     1       7.636   7.495  17.516  0.00  0.00    +0.000 A 
ATOM     20  C   UNL     1       8.053   7.119  18.790  0.00  0.00    +0.000 A 
ATOM     21  C   UNL     1       8.067   5.771  19.145  0.00  0.00    +0.000 A 
ATOM     22  C   UNL     1       7.662   4.798  18.224  0.00  0.00    +0.000 A 
ENDBRANCH  16  17
ENDBRANCH  15  16
ENDBRANCH   9  15
TORSDOF 4
ENDMDL
MODEL 2
REMARK VINA RESULT:      -7.8      0.220      1.074
REMARK  Name = 
REMARK  6 active torsions:
REMARK  status: ('A' for Active; 'I' for Inactive)
REMARK    1  A    between atoms: C_1  and  C_2
REMARK    2  A    between atoms: C_4  and  C_5
REMARK    3  A    between atoms: C_7  and  O_8
REMARK    4  A    between atoms: C_10  and  S_11
REMARK    5  A    between atoms: S_11  and  C_12
REMARK    6  A    between atoms: C_12  and  C_13
REMARK                            x       y       z     vdW  Elec       q    Type
REMARK                         _______ _______ _______ _____ _____    ______ ____
ROOT
ATOM      1  C   UNL     1       1.452   7.611  20.734  0.00  0.00    +0.000 C 
ATOM      2  C   UNL     1       1.947   6.287  20.229  0.00  0.00    +0.000 A 
ATOM      3  C   UNL     1       1.736   5.131  20.948  0.00  0.00    +0.000 A 
ATOM      4  C   UNL     1       2.217   3.921  20.438  0.00  0.00    +0.000 A 
ATOM      5  C   UNL     1       1.955   2.697  21.272  0.00  0.00    +0.000 C 
ATOM      6  C   UNL     1       2.917   3.922  19.174  0.00  0.00    +0.000 A 
ATOM      7  C   UNL     1       3.496   2.862  18.441  0.00  0.00    +0.000 A 
ATOM      8  N   UNL     1       4.131   2.987  17.265  0.00  0.00    +0.000 NA
ATOM      9  C   UNL     1       4.210   4.219  16.773  0.00  0.00    +0.000 A 
ATOM     10  N   UNL     1       3.702   5.296  17.372  0.00  0.00    +0.000 NA
ATOM     11  C   UNL     1       3.075   5.154  18.529  0.00  0.00    +0.000 A 
ATOM     12  N   UNL     1       2.601   6.287  19.049  0.00  0.00    +0.000 NA
ENDROOT
BRANCH   7  13
ATOM     13  O   UNL     1       3.494   1.562  18.850  0.00  0.00    +0.000 OA
ATOM     14  H   UNL     1       3.880   1.482  19.726  0.00  0.00    +0.000 HD
ENDBRANCH   7  13
BRANCH   9  15
ATOM     15  S   UNL     1       5.115   4.500  15.267  0.00  0.00    +0.000 S 
BRANCH  15  16
ATOM     16  C   UNL     1       6.822   4.192  15.820  0.00  0.00    +0.000 C 
BRANCH  16  17
ATOM     17  C   UNL     1       7.252   5.182  16.885  0.00  0.00    +0.000 A 
ATOM     18  C   UNL     1       7.663   4.740  18.153  0.00  0.00    +0.000 A 
ATOM     19  C   UNL     1       8.059   5.653  19.136  0.00  0.00    +0.000 A 
ATOM     20  C   UNL     1       8.045   7.019  18.868  0.00  0.00    +0.000 A 
ATOM     21  C   UNL     1       7.633   7.476  17.617  0.00  0.00    +0.000 A 
ATOM     22  C   UNL     1       7.235   6.565  16.632  0.00  0.00    +0.000 A 
ENDBRANCH  16  17
ENDBRANCH  15  16
ENDBRANCH   9  15
TORSDOF 4
ENDMDL
MODEL 3
REMARK VINA RESULT:      -7.4      3.253      4.902
REMARK  Name = 
REMARK  6 active torsions:
REMARK  status: ('A' for Active; 'I' for Inactive)
REMARK    1  A    between atoms: C_1  and  C_2
REMARK    2  A    between atoms: C_4  and  C_5
REMARK    3  A    between atoms: C_7  and  O_8
REMARK    4  A    between atoms: C_10  and  S_11
REMARK    5  A    between atoms: S_11  and  C_12
REMARK    6  A    between atoms: C_12  and  C_13
REMARK                            x       y       z     vdW  Elec       q    Type
REMARK                         _______ _______ _______ _____ _____    ______ ____
ROOT
ATOM      1  C   UNL     1      -0.658  10.021  23.316  0.00  0.00    +0.000 C 
ATOM      2  C   UNL     1      -0.032   9.881  21.960  0.00  0.00    +0.000 A 
ATOM      3  C   UNL     1      -0.111  10.899  21.034  0.00  0.00    +0.000 A 
ATOM      4  C   UNL     1       0.487  10.722  19.782  0.00  0.00    +0.000 A 
ATOM      5  C   UNL     1       0.363  11.871  18.819  0.00  0.00    +0.000 C 
ATOM      6  C   UNL     1       1.171   9.481  19.501  0.00  0.00    +0.000 A 
ATOM      7  C   UNL     1       1.850   9.046  18.342  0.00  0.00    +0.000 A 
ATOM      8  N   UNL     1       2.451   7.855  18.194  0.00  0.00    +0.000 NA
ATOM      9  C   UNL     1       2.384   7.036  19.238  0.00  0.00    +0.000 A 
ATOM     10  N   UNL     1       1.773   7.334  20.384  0.00  0.00    +0.000 NA
ATOM     11  C   UNL     1       1.189   8.515  20.514  0.00  0.00    +0.000 A 
ATOM     12  N   UNL     1       0.606   8.722  21.695  0.00  0.00    +0.000 NA
ENDROOT
BRANCH   7  13
ATOM     13  O   UNL     1       1.970   9.789  17.205  0.00  0.00    +0.000 OA
ATOM     14  H   UNL     1       1.104  10.001  16.847  0.00  0.00    +0.000 HD
ENDBRANCH   7  13
BRANCH   9  15
ATOM     15  S   UNL     1       3.067   5.398  19.106  0.00  0.00    +0.000 S 
BRANCH  15  16
ATOM     16  C   UNL     1       4.094   5.564  17.612  0.00  0.00    +0.000 C 
BRANCH  16  17
ATOM     17  C   UNL     1       5.512   5.983  17.951  0.00  0.00    +0.000 A 
ATOM     18  C   UNL     1       6.157   6.992  17.217  0.00  0.00    +0.000 A 
ATOM     19  C   UNL     1       7.465   7.377  17.529  0.00  0.00    +0.000 A 
ATOM     20  C   UNL     1       8.147   6.758  18.573  0.00  0.00    +0.000 A 
ATOM     21  C   UNL     1       7.524   5.750  19.306  0.00  0.00    +0.000 A 
ATOM     22  C   UNL     1       6.216   5.361  18.996  0.00  0.00    +0.000 A 
ENDBRANCH  16  17
ENDBRANCH  15  16
ENDBRANCH   9  15
TORSDOF 4
ENDMDL
MODEL 4
REMARK VINA RESULT:      -7.2      1.963      3.136
REMARK  Name = 
REMARK  6 active torsions:
REMARK  status: ('A' for Active; 'I' for Inactive)
REMARK    1  A    between atoms: C_1  and  C_2
REMARK    2  A    between atoms: C_4  and  C_5
REMARK    3  A    between atoms: C_7  and  O_8
REMARK    4  A    between atoms: C_10  and  S_11
REMARK    5  A    between atoms: S_11  and  C_12
REMARK    6  A    between atoms: C_12  and  C_13
REMARK                            x       y       z     vdW  Elec       q    Type
REMARK                         _______ _______ _______ _____ _____    ______ ____
ROOT
ATOM      1  C   UNL     1       1.456   8.056  20.237  0.00  0.00    +0.000 C 
ATOM      2  C   UNL     1       2.114   6.713  20.125  0.00  0.00    +0.000 A 
ATOM      3  C   UNL     1       1.565   5.602  20.726  0.00  0.00    +0.000 A 
ATOM      4  C   UNL     1       2.215   4.370  20.595  0.00  0.00    +0.000 A 
ATOM      5  C   UNL     1       1.563   3.199  21.276  0.00  0.00    +0.000 C 
ATOM      6  C   UNL     1       3.439   4.302  19.831  0.00  0.00    +0.000 A 
ATOM      7  C   UNL     1       4.285   3.209  19.544  0.00  0.00    +0.000 A 
ATOM      8  N   UNL     1       5.413   3.268  18.817  0.00  0.00    +0.000 NA
ATOM      9  C   UNL     1       5.738   4.467  18.345  0.00  0.00    +0.000 A 
ATOM     10  N   UNL     1       5.021   5.571  18.549  0.00  0.00    +0.000 NA
ATOM     11  C   UNL     1       3.909   5.493  19.264  0.00  0.00    +0.000 A 
ATOM     12  N   UNL     1       3.259   6.648  19.413  0.00  0.00    +0.000 NA
ENDROOT
BRANCH   7  13
ATOM     13  O   UNL     1       4.066   1.938  19.986  0.00  0.00    +0.000 OA
ATOM     14  H   UNL     1       3.124   1.755  20.033  0.00  0.00    +0.000 HD
ENDBRANCH   7  13
BRANCH   9  15
ATOM     15  S   UNL     1       7.265   4.667  17.452  0.00  0.00    +0.000 S 
BRANCH  15  16
ATOM     16  C   UNL     1       6.746   5.794  16.119  0.00  0.00    +0.000 C 
BRANCH  16  17
ATOM     17  C   UNL     1       6.597   5.064  14.796  0.00  0.00    +0.000 A 
ATOM     18  C   UNL     1       7.568   5.193  13.791  0.00  0.00    +0.000 A 
ATOM     19  C   UNL     1       7.430   4.522  12.572  0.00  0.00    +0.000 A 
ATOM     20  C   UNL     1       6.317   3.717  12.339  0.00  0.00    +0.000 A 
ATOM     21  C   UNL     1       5.340   3.584  13.323  0.00  0.00    +0.000 A 
ATOM     22  C   UNL     1       5.475   4.256  14.543  0.00  0.00    +0.000 A 
ENDBRANCH  16  17
ENDBRANCH  15  16
ENDBRANCH   9  15
TORSDOF 4
ENDMDL
MODEL 5
REMARK VINA RESULT:      -7.2      3.200      4.784
REMARK  Name = 
REMARK  6 active torsions:
REMARK  status: ('A' for Active; 'I' for Inactive)
REMARK    1  A    between atoms: C_1  and  C_2
REMARK    2  A    between atoms: C_4  and  C_5
REMARK    3  A    between atoms: C_7  and  O_8
REMARK    4  A    between atoms: C_10  and  S_11
REMARK    5  A    between atoms: S_11  and  C_12
REMARK    6  A    between atoms: C_12  and  C_13
REMARK                            x       y       z     vdW  Elec       q    Type
REMARK                         _______ _______ _______ _____ _____    ______ ____
ROOT
ATOM      1  C   UNL     1      -0.381   9.422  23.370  0.00  0.00    +0.000 C 
ATOM      2  C   UNL     1       0.176   9.417  21.977  0.00  0.00    +0.000 A 
ATOM      3  C   UNL     1       0.005  10.499  21.141  0.00  0.00    +0.000 A 
ATOM      4  C   UNL     1       0.542  10.448  19.850  0.00  0.00    +0.000 A 
ATOM      5  C   UNL     1       0.317  11.660  18.989  0.00  0.00    +0.000 C 
ATOM      6  C   UNL     1       1.261   9.265  19.437  0.00  0.00    +0.000 A 
ATOM      7  C   UNL     1       1.894   8.954  18.213  0.00  0.00    +0.000 A 
ATOM      8  N   UNL     1       2.536   7.807  17.941  0.00  0.00    +0.000 NA
ATOM      9  C   UNL     1       2.561   6.906  18.918  0.00  0.00    +0.000 A 
ATOM     10  N   UNL     1       2.000   7.086  20.114  0.00  0.00    +0.000 NA
ATOM     11  C   UNL     1       1.375   8.225  20.367  0.00  0.00    +0.000 A 
ATOM     12  N   UNL     1       0.848   8.313  21.589  0.00  0.00    +0.000 NA
ENDROOT
BRANCH   7  13
ATOM     13  O   UNL     1       1.922   9.787  17.135  0.00  0.00    +0.000 OA
ATOM     14  H   UNL     1       1.111   9.708  16.626  0.00  0.00    +0.000 HD
ENDBRANCH   7  13
BRANCH   9  15
ATOM     15  S   UNL     1       3.305   5.317  18.622  0.00  0.00    +0.000 S 
BRANCH  15  16
ATOM     16  C   UNL     1       4.416   5.703  17.233  0.00  0.00    +0.000 C 
BRANCH  16  17
ATOM     17  C   UNL     1       5.778   6.165  17.717  0.00  0.00    +0.000 A 
ATOM     18  C   UNL     1       6.478   5.436  18.692  0.00  0.00    +0.000 A 
ATOM     19  C   UNL     1       7.732   5.863  19.140  0.00  0.00    +0.000 A 
ATOM     20  C   UNL     1       8.302   7.025  18.624  0.00  0.00    +0.000 A 
ATOM     21  C   UNL     1       7.616   7.764  17.662  0.00  0.00    +0.000 A 
ATOM     22  C   UNL     1       6.361   7.340  17.213  0.00  0.00    +0.000 A 
ENDBRANCH  16  17
ENDBRANCH  15  16
ENDBRANCH   9  15
TORSDOF 4
ENDMDL
MODEL 6
REMARK VINA RESULT:      -7.1      1.697      2.640
REMARK  Name = 
REMARK  6 active torsions:
REMARK  status: ('A' for Active; 'I' for Inactive)
REMARK    1  A    between atoms: C_1  and  C_2
REMARK    2  A    between atoms: C_4  and  C_5
REMARK    3  A    between atoms: C_7  and  O_8
REMARK    4  A    between atoms: C_10  and  S_11
REMARK    5  A    between atoms: S_11  and  C_12
REMARK    6  A    between atoms: C_12  and  C_13
REMARK                            x       y       z     vdW  Elec       q    Type
REMARK                         _______ _______ _______ _____ _____    ______ ____
ROOT
ATOM      1  C   UNL     1       1.988   2.541  21.495  0.00  0.00    +0.000 C 
ATOM      2  C   UNL     1       2.305   3.722  20.626  0.00  0.00    +0.000 A 
ATOM      3  C   UNL     1       1.874   4.987  20.964  0.00  0.00    +0.000 A 
ATOM      4  C   UNL     1       2.193   6.057  20.122  0.00  0.00    +0.000 A 
ATOM      5  C   UNL     1       1.691   7.410  20.548  0.00  0.00    +0.000 C 
ATOM      6  C   UNL     1       2.965   5.804  18.927  0.00  0.00    +0.000 A 
ATOM      7  C   UNL     1       3.418   6.684  17.920  0.00  0.00    +0.000 A 
ATOM      8  N   UNL     1       4.133   6.328  16.842  0.00  0.00    +0.000 NA
ATOM      9  C   UNL     1       4.422   5.035  16.735  0.00  0.00    +0.000 A 
ATOM     10  N   UNL     1       4.050   4.111  17.620  0.00  0.00    +0.000 NA
ATOM     11  C   UNL     1       3.349   4.480  18.680  0.00  0.00    +0.000 A 
ATOM     12  N   UNL     1       3.025   3.487  19.509  0.00  0.00    +0.000 NA
ENDROOT
BRANCH   7  13
ATOM     13  O   UNL     1       3.171   8.024  17.911  0.00  0.00    +0.000 OA
ATOM     14  H   UNL     1       3.586   8.450  18.665  0.00  0.00    +0.000 HD
ENDBRANCH   7  13
BRANCH   9  15
ATOM     15  S   UNL     1       5.284   4.450  15.292  0.00  0.00    +0.000 S 
BRANCH  15  16
ATOM     16  C   UNL     1       6.953   4.177  15.966  0.00  0.00    +0.000 C 
BRANCH  16  17
ATOM     17  C   UNL     1       7.343   5.262  16.952  0.00  0.00    +0.000 A 
ATOM     18  C   UNL     1       7.350   6.612  16.567  0.00  0.00    +0.000 A 
ATOM     19  C   UNL     1       7.710   7.613  17.476  0.00  0.00    +0.000 A 
ATOM     20  C   UNL     1       8.073   7.278  18.778  0.00  0.00    +0.000 A 
ATOM     21  C   UNL     1       8.079   5.941  19.173  0.00  0.00    +0.000 A 
ATOM     22  C   UNL     1       7.720   4.938  18.266  0.00  0.00    +0.000 A 
ENDBRANCH  16  17
ENDBRANCH  15  16
ENDBRANCH   9  15
TORSDOF 4
ENDMDL
MODEL 7
REMARK VINA RESULT:      -7.0      1.718      2.864
REMARK  Name = 
REMARK  6 active torsions:
REMARK  status: ('A' for Active; 'I' for Inactive)
REMARK    1  A    between atoms: C_1  and  C_2
REMARK    2  A    between atoms: C_4  and  C_5
REMARK    3  A    between atoms: C_7  and  O_8
REMARK    4  A    between atoms: C_10  and  S_11
REMARK    5  A    between atoms: S_11  and  C_12
REMARK    6  A    between atoms: C_12  and  C_13
REMARK                            x       y       z     vdW  Elec       q    Type
REMARK                         _______ _______ _______ _____ _____    ______ ____
ROOT
ATOM      1  C   UNL     1       1.728   2.738  21.462  0.00  0.00    +0.000 C 
ATOM      2  C   UNL     1       2.122   3.906  20.606  0.00  0.00    +0.000 A 
ATOM      3  C   UNL     1       1.764   5.191  20.951  0.00  0.00    +0.000 A 
ATOM      4  C   UNL     1       2.153   6.247  20.121  0.00  0.00    +0.000 A 
ATOM      5  C   UNL     1       1.729   7.623  20.555  0.00  0.00    +0.000 C 
ATOM      6  C   UNL     1       2.918   5.958  18.930  0.00  0.00    +0.000 A 
ATOM      7  C   UNL     1       3.431   6.817  17.934  0.00  0.00    +0.000 A 
ATOM      8  N   UNL     1       4.133   6.428  16.859  0.00  0.00    +0.000 NA
ATOM      9  C   UNL     1       4.345   5.121  16.743  0.00  0.00    +0.000 A 
ATOM     10  N   UNL     1       3.912   4.213  17.617  0.00  0.00    +0.000 NA
ATOM     11  C   UNL     1       3.225   4.615  18.675  0.00  0.00    +0.000 A 
ATOM     12  N   UNL     1       2.835   3.637  19.493  0.00  0.00    +0.000 NA
ENDROOT
BRANCH   7  13
ATOM     13  O   UNL     1       3.264   8.170  17.935  0.00  0.00    +0.000 OA
ATOM     14  H   UNL     1       2.634   8.432  18.610  0.00  0.00    +0.000 HD
ENDBRANCH   7  13
BRANCH   9  15
ATOM     15  S   UNL     1       5.183   4.497  15.302  0.00  0.00    +0.000 S 
BRANCH  15  16
ATOM     16  C   UNL     1       6.843   4.170  15.974  0.00  0.00    +0.000 C 
BRANCH  16  17
ATOM     17  C   UNL     1       7.272   5.246  16.953  0.00  0.00    +0.000 A 
ATOM     18  C   UNL     1       7.557   4.928  18.291  0.00  0.00    +0.000 A 
ATOM     19  C   UNL     1       7.952   5.920  19.194  0.00  0.00    +0.000 A 
ATOM     20  C   UNL     1       8.062   7.244  18.775  0.00  0.00    +0.000 A 
ATOM     21  C   UNL     1       7.775   7.578  17.453  0.00  0.00    +0.000 A 
ATOM     22  C   UNL     1       7.379   6.587  16.547  0.00  0.00    +0.000 A 
ENDBRANCH  16  17
ENDBRANCH  15  16
ENDBRANCH   9  15
TORSDOF 4
ENDMDL
MODEL 8
REMARK VINA RESULT:      -6.9      4.098      6.217
REMARK  Name = 
REMARK  6 active torsions:
REMARK  status: ('A' for Active; 'I' for Inactive)
REMARK    1  A    between atoms: C_1  and  C_2
REMARK    2  A    between atoms: C_4  and  C_5
REMARK    3  A    between atoms: C_7  and  O_8
REMARK    4  A    between atoms: C_10  and  S_11
REMARK    5  A    between atoms: S_11  and  C_12
REMARK    6  A    between atoms: C_12  and  C_13
REMARK                            x       y       z     vdW  Elec       q    Type
REMARK                         _______ _______ _______ _____ _____    ______ ____
ROOT
ATOM      1  C   UNL     1      -0.107   9.275  23.401  0.00  0.00    +0.000 C 
ATOM      2  C   UNL     1       0.384   9.513  22.003  0.00  0.00    +0.000 A 
ATOM      3  C   UNL     1       0.172  10.719  21.372  0.00  0.00    +0.000 A 
ATOM      4  C   UNL     1       0.648  10.893  20.069  0.00  0.00    +0.000 A 
ATOM      5  C   UNL     1       0.382  12.232  19.438  0.00  0.00    +0.000 C 
ATOM      6  C   UNL     1       1.349   9.805  19.427  0.00  0.00    +0.000 A 
ATOM      7  C   UNL     1       1.924   9.711  18.141  0.00  0.00    +0.000 A 
ATOM      8  N   UNL     1       2.554   8.634  17.648  0.00  0.00    +0.000 NA
ATOM      9  C   UNL     1       2.625   7.580  18.456  0.00  0.00    +0.000 A 
ATOM     10  N   UNL     1       2.121   7.549  19.689  0.00  0.00    +0.000 NA
ATOM     11  C   UNL     1       1.508   8.623  20.161  0.00  0.00    +0.000 A 
ATOM     12  N   UNL     1       1.038   8.496  21.402  0.00  0.00    +0.000 NA
ENDROOT
BRANCH   7  13
ATOM     13  O   UNL     1       1.900  10.716  17.220  0.00  0.00    +0.000 OA
ATOM     14  H   UNL     1       2.705  10.714  16.696  0.00  0.00    +0.000 HD
ENDBRANCH   7  13
BRANCH   9  15
ATOM     15  S   UNL     1       3.357   6.072  17.859  0.00  0.00    +0.000 S 
BRANCH  15  16
ATOM     16  C   UNL     1       1.965   4.912  18.037  0.00  0.00    +0.000 C 
BRANCH  16  17
ATOM     17  C   UNL     1       2.110   4.052  19.279  0.00  0.00    +0.000 A 
ATOM     18  C   UNL     1       3.310   3.375  19.548  0.00  0.00    +0.000 A 
ATOM     19  C   UNL     1       3.442   2.581  20.692  0.00  0.00    +0.000 A 
ATOM     20  C   UNL     1       2.378   2.450  21.580  0.00  0.00    +0.000 A 
ATOM     21  C   UNL     1       1.177   3.109  21.324  0.00  0.00    +0.000 A 
ATOM     22  C   UNL     1       1.041   3.902  20.179  0.00  0.00    +0.000 A 
ENDBRANCH  16  17
ENDBRANCH  15  16
ENDBRANCH   9  15
TORSDOF 4
ENDMDL
MODEL 9
REMARK VINA RESULT:      -6.9      4.470      7.096
REMARK  Name = 
REMARK  6 active torsions:
REMARK  status: ('A' for Active; 'I' for Inactive)
REMARK    1  A    between atoms: C_1  and  C_2
REMARK    2  A    between atoms: C_4  and  C_5
REMARK    3  A    between atoms: C_7  and  O_8
REMARK    4  A    between atoms: C_10  and  S_11
REMARK    5  A    between atoms: S_11  and  C_12
REMARK    6  A    between atoms: C_12  and  C_13
REMARK                            x       y       z     vdW  Elec       q    Type
REMARK                         _______ _______ _______ _____ _____    ______ ____
ROOT
ATOM      1  C   UNL     1      -1.049  10.535  23.151  0.00  0.00    +0.000 C 
ATOM      2  C   UNL     1      -0.319  10.832  21.875  0.00  0.00    +0.000 A 
ATOM      3  C   UNL     1      -0.223  12.120  21.395  0.00  0.00    +0.000 A 
ATOM      4  C   UNL     1       0.467  12.347  20.200  0.00  0.00    +0.000 A 
ATOM      5  C   UNL     1       0.533  13.775  19.733  0.00  0.00    +0.000 C 
ATOM      6  C   UNL     1       1.060  11.226  19.509  0.00  0.00    +0.000 A 
ATOM      7  C   UNL     1       1.798  11.172  18.306  0.00  0.00    +0.000 A 
ATOM      8  N   UNL     1       2.301  10.057  17.753  0.00  0.00    +0.000 NA
ATOM      9  C   UNL     1       2.068   8.925  18.409  0.00  0.00    +0.000 A 
ATOM     10  N   UNL     1       1.385   8.850  19.551  0.00  0.00    +0.000 NA
ATOM     11  C   UNL     1       0.900   9.960  20.085  0.00  0.00    +0.000 A 
ATOM     12  N   UNL     1       0.234   9.785  21.227  0.00  0.00    +0.000 NA
ENDROOT
BRANCH   7  13
ATOM     13  O   UNL     1       2.086  12.260  17.539  0.00  0.00    +0.000 OA
ATOM     14  H   UNL     1       2.218  13.037  18.089  0.00  0.00    +0.000 HD
ENDBRANCH   7  13
BRANCH   9  15
ATOM     15  S   UNL     1       2.611   7.382  17.707  0.00  0.00    +0.000 S 
BRANCH  15  16
ATOM     16  C   UNL     1       3.073   6.457  19.205  0.00  0.00    +0.000 C 
BRANCH  16  17
ATOM     17  C   UNL     1       2.284   5.167  19.332  0.00  0.00    +0.000 A 
ATOM     18  C   UNL     1       1.963   4.408  18.196  0.00  0.00    +0.000 A 
ATOM     19  C   UNL     1       1.235   3.220  18.313  0.00  0.00    +0.000 A 
ATOM     20  C   UNL     1       0.813   2.777  19.564  0.00  0.00    +0.000 A 
ATOM     21  C   UNL     1       1.118   3.524  20.701  0.00  0.00    +0.000 A 
ATOM     22  C   UNL     1       1.845   4.713  20.587  0.00  0.00    +0.000 A 
ENDBRANCH  16  17
ENDBRANCH  15  16
ENDBRANCH   9  15
TORSDOF 4
ENDMDL
