MODEL 1
REMARK VINA RESULT:      -7.7      0.000      0.000
REMARK  Name = 
REMARK  6 active torsions:
REMARK  status: ('A' for Active; 'I' for Inactive)
REMARK    1  A    between atoms: O_1  and  C_2
REMARK    2  A    between atoms: C_7  and  C_8
REMARK    3  A    between atoms: C_8  and  C_9
REMARK    4  A    between atoms: C_9  and  N_10
REMARK    5  A    between atoms: N_10  and  C_11
REMARK    6  A    between atoms: C_14  and  C_15
REMARK                            x       y       z     vdW  Elec       q    Type
REMARK                         _______ _______ _______ _____ _____    ______ ____
ROOT
ATOM      1  N   UNL     1       1.925   5.970  20.738  0.00  0.00    +0.000 N 
ATOM      2  H   UNL     1       1.102   6.538  20.538  0.00  0.00    +0.000 HD
ENDROOT
BRANCH   1   3
ATOM      3  C   UNL     1       2.879   6.115  19.718  0.00  0.00    +0.000 A 
ATOM      4  C   UNL     1       4.125   5.472  19.718  0.00  0.00    +0.000 A 
ATOM      5  C   UNL     1       5.043   5.652  18.682  0.00  0.00    +0.000 A 
ATOM      6  C   UNL     1       4.773   6.514  17.615  0.00  0.00    +0.000 A 
ATOM      7  C   UNL     1       3.563   7.217  17.654  0.00  0.00    +0.000 A 
ATOM      8  C   UNL     1       2.631   7.019  18.682  0.00  0.00    +0.000 A 
BRANCH   6   9
ATOM      9  C   UNL     1       5.792   6.617  16.488  0.00  0.00    +0.000 C 
ATOM     10  C   UNL     1       7.187   6.094  16.865  0.00  0.00    +0.000 C 
ATOM     11  C   UNL     1       7.319   4.575  16.824  0.00  0.00    +0.000 C 
ATOM     12  C   UNL     1       6.758   3.953  15.546  0.00  0.00    +0.000 C 
ATOM     13  C   UNL     1       5.404   4.501  15.100  0.00  0.00    +0.000 C 
ATOM     14  C   UNL     1       5.324   6.021  15.156  0.00  0.00    +0.000 C 
ENDBRANCH   6   9
ENDBRANCH   1   3
BRANCH   1  15
ATOM     15  C   UNL     1       1.609   4.607  21.169  0.00  0.00    +0.000 C 
BRANCH  15  16
ATOM     16  C   UNL     1       0.820   3.834  20.115  0.00  0.00    +0.000 C 
BRANCH  16  22
ATOM     17  C   UNL     1       1.831   3.401  17.815  0.00  0.00    +0.000 A 
ATOM     18  C   UNL     1       2.766   2.780  16.987  0.00  0.00    +0.000 A 
ATOM     19  C   UNL     1       3.676   1.874  17.530  0.00  0.00    +0.000 A 
ATOM     20  C   UNL     1       3.651   1.594  18.895  0.00  0.00    +0.000 A 
ATOM     21  C   UNL     1       2.710   2.215  19.718  0.00  0.00    +0.000 A 
ATOM     22  C   UNL     1       1.780   3.121  19.185  0.00  0.00    +0.000 A 
BRANCH  17  23
ATOM     23  O   UNL     1       0.958   4.316  17.297  0.00  0.00    +0.000 OA
ATOM     24  H   UNL     1       0.956   4.227  16.328  0.00  0.00    +0.000 HD
ENDBRANCH  17  23
ENDBRANCH  16  22
ENDBRANCH  15  16
ENDBRANCH   1  15
TORSDOF 6
ENDMDL
MODEL 2
REMARK VINA RESULT:      -7.4      4.894      8.135
REMARK  Name = 
REMARK  6 active torsions:
REMARK  status: ('A' for Active; 'I' for Inactive)
REMARK    1  A    between atoms: O_1  and  C_2
REMARK    2  A    between atoms: C_7  and  C_8
REMARK    3  A    between atoms: C_8  and  C_9
REMARK    4  A    between atoms: C_9  and  N_10
REMARK    5  A    between atoms: N_10  and  C_11
REMARK    6  A    between atoms: C_14  and  C_15
REMARK                            x       y       z     vdW  Elec       q    Type
REMARK                         _______ _______ _______ _____ _____    ______ ____
ROOT
ATOM      1  N   UNL     1       7.966   7.888  17.172  0.00  0.00    +0.000 N 
ATOM      2  H   UNL     1       7.931   7.842  16.154  0.00  0.00    +0.000 HD
ENDROOT
BRANCH   1   3
ATOM      3  C   UNL     1       7.003   7.035  17.734  0.00  0.00    +0.000 A 
ATOM      4  C   UNL     1       7.292   6.066  18.707  0.00  0.00    +0.000 A 
ATOM      5  C   UNL     1       6.300   5.237  19.233  0.00  0.00    +0.000 A 
ATOM      6  C   UNL     1       4.979   5.310  18.783  0.00  0.00    +0.000 A 
ATOM      7  C   UNL     1       4.705   6.222  17.756  0.00  0.00    +0.000 A 
ATOM      8  C   UNL     1       5.697   7.071  17.244  0.00  0.00    +0.000 A 
BRANCH   6   9
ATOM      9  C   UNL     1       3.936   4.419  19.443  0.00  0.00    +0.000 C 
ATOM     10  C   UNL     1       2.487   4.810  19.109  0.00  0.00    +0.000 C 
ATOM     11  C   UNL     1       2.008   4.330  17.742  0.00  0.00    +0.000 C 
ATOM     12  C   UNL     1       2.323   2.859  17.473  0.00  0.00    +0.000 C 
ATOM     13  C   UNL     1       3.732   2.416  17.861  0.00  0.00    +0.000 C 
ATOM     14  C   UNL     1       4.162   2.918  19.234  0.00  0.00    +0.000 C 
ENDBRANCH   6   9
ENDBRANCH   1   3
BRANCH   1  15
ATOM     15  C   UNL     1       8.038   9.253  17.697  0.00  0.00    +0.000 C 
BRANCH  15  16
ATOM     16  C   UNL     1       8.863   9.338  18.979  0.00  0.00    +0.000 C 
BRANCH  16  22
ATOM     17  C   UNL     1       9.866  11.320  20.228  0.00  0.00    +0.000 A 
ATOM     18  C   UNL     1      10.601  12.505  20.254  0.00  0.00    +0.000 A 
ATOM     19  C   UNL     1      11.088  13.042  19.062  0.00  0.00    +0.000 A 
ATOM     20  C   UNL     1      10.844  12.392  17.854  0.00  0.00    +0.000 A 
ATOM     21  C   UNL     1      10.104  11.209  17.834  0.00  0.00    +0.000 A 
ATOM     22  C   UNL     1       9.597  10.661  19.023  0.00  0.00    +0.000 A 
BRANCH  17  23
ATOM     23  O   UNL     1       9.415  10.769  21.395  0.00  0.00    +0.000 OA
ATOM     24  H   UNL     1       9.456   9.800  21.316  0.00  0.00    +0.000 HD
ENDBRANCH  17  23
ENDBRANCH  16  22
ENDBRANCH  15  16
ENDBRANCH   1  15
TORSDOF 6
ENDMDL
MODEL 3
REMARK VINA RESULT:      -7.3      4.750      8.047
REMARK  Name = 
REMARK  6 active torsions:
REMARK  status: ('A' for Active; 'I' for Inactive)
REMARK    1  A    between atoms: O_1  and  C_2
REMARK    2  A    between atoms: C_7  and  C_8
REMARK    3  A    between atoms: C_8  and  C_9
REMARK    4  A    between atoms: C_9  and  N_10
REMARK    5  A    between atoms: N_10  and  C_11
REMARK    6  A    between atoms: C_14  and  C_15
REMARK                            x       y       z     vdW  Elec       q    Type
REMARK                         _______ _______ _______ _____ _____    ______ ____
ROOT
ATOM      1  N   UNL     1       7.815   7.768  17.035  0.00  0.00    +0.000 N 
ATOM      2  H   UNL     1       7.865   7.982  16.039  0.00  0.00    +0.000 HD
ENDROOT
BRANCH   1   3
ATOM      3  C   UNL     1       6.899   6.730  17.268  0.00  0.00    +0.000 A 
ATOM      4  C   UNL     1       5.774   6.487  16.466  0.00  0.00    +0.000 A 
ATOM      5  C   UNL     1       4.889   5.444  16.742  0.00  0.00    +0.000 A 
ATOM      6  C   UNL     1       5.065   4.618  17.856  0.00  0.00    +0.000 A 
ATOM      7  C   UNL     1       6.142   4.910  18.701  0.00  0.00    +0.000 A 
ATOM      8  C   UNL     1       7.045   5.942  18.412  0.00  0.00    +0.000 A 
BRANCH   6   9
ATOM      9  C   UNL     1       4.097   3.462  18.064  0.00  0.00    +0.000 C 
ATOM     10  C   UNL     1       3.838   3.127  19.541  0.00  0.00    +0.000 C 
ATOM     11  C   UNL     1       2.847   4.060  20.231  0.00  0.00    +0.000 C 
ATOM     12  C   UNL     1       1.570   4.287  19.423  0.00  0.00    +0.000 C 
ATOM     13  C   UNL     1       1.783   4.550  17.934  0.00  0.00    +0.000 C 
ATOM     14  C   UNL     1       2.779   3.592  17.292  0.00  0.00    +0.000 C 
ENDBRANCH   6   9
ENDBRANCH   1   3
BRANCH   1  15
ATOM     15  C   UNL     1       7.711   8.955  17.886  0.00  0.00    +0.000 C 
BRANCH  15  16
ATOM     16  C   UNL     1       8.844   9.039  18.905  0.00  0.00    +0.000 C 
BRANCH  16  22
ATOM     17  C   UNL     1       9.519  11.094  20.253  0.00  0.00    +0.000 A 
ATOM     18  C   UNL     1      10.023  12.392  20.336  0.00  0.00    +0.000 A 
ATOM     19  C   UNL     1      10.349  13.082  19.168  0.00  0.00    +0.000 A 
ATOM     20  C   UNL     1      10.175  12.473  17.927  0.00  0.00    +0.000 A 
ATOM     21  C   UNL     1       9.667  11.175  17.851  0.00  0.00    +0.000 A 
ATOM     22  C   UNL     1       9.323  10.471  19.015  0.00  0.00    +0.000 A 
BRANCH  17  23
ATOM     23  O   UNL     1       9.229  10.398  21.394  0.00  0.00    +0.000 OA
ATOM     24  H   UNL     1       9.584   9.497  21.305  0.00  0.00    +0.000 HD
ENDBRANCH  17  23
ENDBRANCH  16  22
ENDBRANCH  15  16
ENDBRANCH   1  15
TORSDOF 6
ENDMDL
MODEL 4
REMARK VINA RESULT:      -7.3      4.800      8.030
REMARK  Name = 
REMARK  6 active torsions:
REMARK  status: ('A' for Active; 'I' for Inactive)
REMARK    1  A    between atoms: O_1  and  C_2
REMARK    2  A    between atoms: C_7  and  C_8
REMARK    3  A    between atoms: C_8  and  C_9
REMARK    4  A    between atoms: C_9  and  N_10
REMARK    5  A    between atoms: N_10  and  C_11
REMARK    6  A    between atoms: C_14  and  C_15
REMARK                            x       y       z     vdW  Elec       q    Type
REMARK                         _______ _______ _______ _____ _____    ______ ____
ROOT
ATOM      1  N   UNL     1       7.848   7.891  17.015  0.00  0.00    +0.000 N 
ATOM      2  H   UNL     1       7.845   8.110  16.019  0.00  0.00    +0.000 HD
ENDROOT
BRANCH   1   3
ATOM      3  C   UNL     1       6.976   6.824  17.284  0.00  0.00    +0.000 A 
ATOM      4  C   UNL     1       7.360   5.654  17.955  0.00  0.00    +0.000 A 
ATOM      5  C   UNL     1       6.456   4.617  18.195  0.00  0.00    +0.000 A 
ATOM      6  C   UNL     1       5.136   4.685  17.742  0.00  0.00    +0.000 A 
ATOM      7  C   UNL     1       4.774   5.818  17.003  0.00  0.00    +0.000 A 
ATOM      8  C   UNL     1       5.674   6.870  16.782  0.00  0.00    +0.000 A 
BRANCH   6   9
ATOM      9  C   UNL     1       4.188   3.547  18.091  0.00  0.00    +0.000 C 
ATOM     10  C   UNL     1       3.932   3.394  19.599  0.00  0.00    +0.000 C 
ATOM     11  C   UNL     1       2.923   4.387  20.167  0.00  0.00    +0.000 C 
ATOM     12  C   UNL     1       1.644   4.491  19.338  0.00  0.00    +0.000 C 
ATOM     13  C   UNL     1       1.856   4.570  17.827  0.00  0.00    +0.000 C 
ATOM     14  C   UNL     1       2.870   3.558  17.309  0.00  0.00    +0.000 C 
ENDBRANCH   6   9
ENDBRANCH   1   3
BRANCH   1  15
ATOM     15  C   UNL     1       7.747   9.071  17.877  0.00  0.00    +0.000 C 
BRANCH  15  16
ATOM     16  C   UNL     1       8.834   9.100  18.949  0.00  0.00    +0.000 C 
BRANCH  16  22
ATOM     17  C   UNL     1       9.638  11.122  20.276  0.00  0.00    +0.000 A 
ATOM     18  C   UNL     1      10.235  12.381  20.345  0.00  0.00    +0.000 A 
ATOM     19  C   UNL     1      10.628  13.026  19.172  0.00  0.00    +0.000 A 
ATOM     20  C   UNL     1      10.428  12.410  17.939  0.00  0.00    +0.000 A 
ATOM     21  C   UNL     1       9.827  11.153  17.875  0.00  0.00    +0.000 A 
ATOM     22  C   UNL     1       9.415  10.495  19.044  0.00  0.00    +0.000 A 
BRANCH  17  23
ATOM     23  O   UNL     1       9.281  10.469  21.422  0.00  0.00    +0.000 OA
ATOM     24  H   UNL     1      10.082  10.088  21.823  0.00  0.00    +0.000 HD
ENDBRANCH  17  23
ENDBRANCH  16  22
ENDBRANCH  15  16
ENDBRANCH   1  15
TORSDOF 6
ENDMDL
MODEL 5
REMARK VINA RESULT:      -7.2      1.207      1.567
REMARK  Name = 
REMARK  6 active torsions:
REMARK  status: ('A' for Active; 'I' for Inactive)
REMARK    1  A    between atoms: O_1  and  C_2
REMARK    2  A    between atoms: C_7  and  C_8
REMARK    3  A    between atoms: C_8  and  C_9
REMARK    4  A    between atoms: C_9  and  N_10
REMARK    5  A    between atoms: N_10  and  C_11
REMARK    6  A    between atoms: C_14  and  C_15
REMARK                            x       y       z     vdW  Elec       q    Type
REMARK                         _______ _______ _______ _____ _____    ______ ____
ROOT
ATOM      1  N   UNL     1       2.013   5.882  20.765  0.00  0.00    +0.000 N 
ATOM      2  H   UNL     1       1.820   6.779  21.211  0.00  0.00    +0.000 HD
ENDROOT
BRANCH   1   3
ATOM      3  C   UNL     1       2.943   6.042  19.726  0.00  0.00    +0.000 A 
ATOM      4  C   UNL     1       4.219   5.459  19.723  0.00  0.00    +0.000 A 
ATOM      5  C   UNL     1       5.111   5.651  18.667  0.00  0.00    +0.000 A 
ATOM      6  C   UNL     1       4.785   6.469  17.582  0.00  0.00    +0.000 A 
ATOM      7  C   UNL     1       3.544   7.115  17.621  0.00  0.00    +0.000 A 
ATOM      8  C   UNL     1       2.638   6.903  18.670  0.00  0.00    +0.000 A 
BRANCH   6   9
ATOM      9  C   UNL     1       5.780   6.586  16.436  0.00  0.00    +0.000 C 
ATOM     10  C   UNL     1       7.189   6.078  16.784  0.00  0.00    +0.000 C 
ATOM     11  C   UNL     1       7.337   4.560  16.735  0.00  0.00    +0.000 C 
ATOM     12  C   UNL     1       6.758   3.937  15.466  0.00  0.00    +0.000 C 
ATOM     13  C   UNL     1       5.390   4.471  15.048  0.00  0.00    +0.000 C 
ATOM     14  C   UNL     1       5.293   5.990  15.111  0.00  0.00    +0.000 C 
ENDBRANCH   6   9
ENDBRANCH   1   3
BRANCH   1  15
ATOM     15  C   UNL     1       0.810   5.101  20.471  0.00  0.00    +0.000 C 
BRANCH  15  16
ATOM     16  C   UNL     1       0.996   3.616  20.770  0.00  0.00    +0.000 C 
BRANCH  16  22
ATOM     17  C   UNL     1       3.134   2.360  20.178  0.00  0.00    +0.000 A 
ATOM     18  C   UNL     1       3.981   1.757  19.248  0.00  0.00    +0.000 A 
ATOM     19  C   UNL     1       3.657   1.795  17.892  0.00  0.00    +0.000 A 
ATOM     20  C   UNL     1       2.491   2.430  17.471  0.00  0.00    +0.000 A 
ATOM     21  C   UNL     1       1.649   3.035  18.406  0.00  0.00    +0.000 A 
ATOM     22  C   UNL     1       1.966   3.016  19.773  0.00  0.00    +0.000 A 
BRANCH  17  23
ATOM     23  O   UNL     1       3.426   2.297  21.512  0.00  0.00    +0.000 OA
ATOM     24  H   UNL     1       4.095   1.605  21.649  0.00  0.00    +0.000 HD
ENDBRANCH  17  23
ENDBRANCH  16  22
ENDBRANCH  15  16
ENDBRANCH   1  15
TORSDOF 6
ENDMDL
MODEL 6
REMARK VINA RESULT:      -7.2      4.777      7.111
REMARK  Name = 
REMARK  6 active torsions:
REMARK  status: ('A' for Active; 'I' for Inactive)
REMARK    1  A    between atoms: O_1  and  C_2
REMARK    2  A    between atoms: C_7  and  C_8
REMARK    3  A    between atoms: C_8  and  C_9
REMARK    4  A    between atoms: C_9  and  N_10
REMARK    5  A    between atoms: N_10  and  C_11
REMARK    6  A    between atoms: C_14  and  C_15
REMARK                            x       y       z     vdW  Elec       q    Type
REMARK                         _______ _______ _______ _____ _____    ______ ____
ROOT
ATOM      1  N   UNL     1       0.824  10.620  18.150  0.00  0.00    +0.000 N 
ATOM      2  H   UNL     1       0.507  10.555  17.183  0.00  0.00    +0.000 HD
ENDROOT
BRANCH   1   3
ATOM      3  C   UNL     1       1.355   9.391  18.575  0.00  0.00    +0.000 A 
ATOM      4  C   UNL     1       1.235   8.900  19.883  0.00  0.00    +0.000 A 
ATOM      5  C   UNL     1       1.786   7.673  20.259  0.00  0.00    +0.000 A 
ATOM      6  C   UNL     1       2.515   6.898  19.353  0.00  0.00    +0.000 A 
ATOM      7  C   UNL     1       2.702   7.424  18.069  0.00  0.00    +0.000 A 
ATOM      8  C   UNL     1       2.130   8.645  17.685  0.00  0.00    +0.000 A 
BRANCH   6   9
ATOM      9  C   UNL     1       3.035   5.543  19.812  0.00  0.00    +0.000 C 
ATOM     10  C   UNL     1       2.131   4.848  20.842  0.00  0.00    +0.000 C 
ATOM     11  C   UNL     1       0.911   4.157  20.240  0.00  0.00    +0.000 C 
ATOM     12  C   UNL     1       1.246   3.283  19.032  0.00  0.00    +0.000 C 
ATOM     13  C   UNL     1       2.202   3.913  18.021  0.00  0.00    +0.000 C 
ATOM     14  C   UNL     1       3.404   4.587  18.672  0.00  0.00    +0.000 C 
ENDBRANCH   6   9
ENDBRANCH   1   3
BRANCH   1  15
ATOM     15  C   UNL     1      -0.136  11.276  19.040  0.00  0.00    +0.000 C 
BRANCH  15  16
ATOM     16  C   UNL     1      -1.396  10.440  19.252  0.00  0.00    +0.000 C 
BRANCH  16  22
ATOM     17  C   UNL     1      -3.348  11.443  17.957  0.00  0.00    +0.000 A 
ATOM     18  C   UNL     1      -4.112  11.566  16.796  0.00  0.00    +0.000 A 
ATOM     19  C   UNL     1      -3.807  10.784  15.682  0.00  0.00    +0.000 A 
ATOM     20  C   UNL     1      -2.740   9.890  15.729  0.00  0.00    +0.000 A 
ATOM     21  C   UNL     1      -1.981   9.768  16.894  0.00  0.00    +0.000 A 
ATOM     22  C   UNL     1      -2.282  10.539  18.029  0.00  0.00    +0.000 A 
BRANCH  17  23
ATOM     23  O   UNL     1      -3.619  12.230  19.041  0.00  0.00    +0.000 OA
ATOM     24  H   UNL     1      -4.363  12.816  18.819  0.00  0.00    +0.000 HD
ENDBRANCH  17  23
ENDBRANCH  16  22
ENDBRANCH  15  16
ENDBRANCH   1  15
TORSDOF 6
ENDMDL
MODEL 7
REMARK VINA RESULT:      -7.1      4.978      7.266
REMARK  Name = 
REMARK  6 active torsions:
REMARK  status: ('A' for Active; 'I' for Inactive)
REMARK    1  A    between atoms: O_1  and  C_2
REMARK    2  A    between atoms: C_7  and  C_8
REMARK    3  A    between atoms: C_8  and  C_9
REMARK    4  A    between atoms: C_9  and  N_10
REMARK    5  A    between atoms: N_10  and  C_11
REMARK    6  A    between atoms: C_14  and  C_15
REMARK                            x       y       z     vdW  Elec       q    Type
REMARK                         _______ _______ _______ _____ _____    ______ ____
ROOT
ATOM      1  N   UNL     1       0.510  10.740  19.557  0.00  0.00    +0.000 N 
ATOM      2  H   UNL     1       0.700  11.230  18.683  0.00  0.00    +0.000 HD
ENDROOT
BRANCH   1   3
ATOM      3  C   UNL     1       1.110   9.470  19.547  0.00  0.00    +0.000 A 
ATOM      4  C   UNL     1       1.717   8.903  18.416  0.00  0.00    +0.000 A 
ATOM      5  C   UNL     1       2.296   7.634  18.454  0.00  0.00    +0.000 A 
ATOM      6  C   UNL     1       2.260   6.854  19.614  0.00  0.00    +0.000 A 
ATOM      7  C   UNL     1       1.584   7.387  20.719  0.00  0.00    +0.000 A 
ATOM      8  C   UNL     1       1.024   8.671  20.688  0.00  0.00    +0.000 A 
BRANCH   6   9
ATOM      9  C   UNL     1       2.963   5.504  19.604  0.00  0.00    +0.000 C 
ATOM     10  C   UNL     1       2.476   4.543  20.700  0.00  0.00    +0.000 C 
ATOM     11  C   UNL     1       1.160   3.841  20.377  0.00  0.00    +0.000 C 
ATOM     12  C   UNL     1       1.126   3.237  18.974  0.00  0.00    +0.000 C 
ATOM     13  C   UNL     1       1.671   4.137  17.867  0.00  0.00    +0.000 C 
ATOM     14  C   UNL     1       2.986   4.812  18.237  0.00  0.00    +0.000 C 
ENDBRANCH   6   9
ENDBRANCH   1   3
BRANCH   1  15
ATOM     15  C   UNL     1      -0.889  10.815  19.982  0.00  0.00    +0.000 C 
BRANCH  15  16
ATOM     16  C   UNL     1      -1.655  11.920  19.259  0.00  0.00    +0.000 C 
BRANCH  16  22
ATOM     17  C   UNL     1      -3.769  11.690  17.854  0.00  0.00    +0.000 A 
ATOM     18  C   UNL     1      -4.458  11.178  16.754  0.00  0.00    +0.000 A 
ATOM     19  C   UNL     1      -3.814  10.297  15.885  0.00  0.00    +0.000 A 
ATOM     20  C   UNL     1      -2.489   9.934  16.115  0.00  0.00    +0.000 A 
ATOM     21  C   UNL     1      -1.807  10.445  17.220  0.00  0.00    +0.000 A 
ATOM     22  C   UNL     1      -2.443  11.324  18.111  0.00  0.00    +0.000 A 
BRANCH  17  23
ATOM     23  O   UNL     1      -4.382  12.580  18.691  0.00  0.00    +0.000 OA
ATOM     24  H   UNL     1      -4.083  12.405  19.600  0.00  0.00    +0.000 HD
ENDBRANCH  17  23
ENDBRANCH  16  22
ENDBRANCH  15  16
ENDBRANCH   1  15
TORSDOF 6
ENDMDL
MODEL 8
REMARK VINA RESULT:      -7.1      1.079      1.799
REMARK  Name = 
REMARK  6 active torsions:
REMARK  status: ('A' for Active; 'I' for Inactive)
REMARK    1  A    between atoms: O_1  and  C_2
REMARK    2  A    between atoms: C_7  and  C_8
REMARK    3  A    between atoms: C_8  and  C_9
REMARK    4  A    between atoms: C_9  and  N_10
REMARK    5  A    between atoms: N_10  and  C_11
REMARK    6  A    between atoms: C_14  and  C_15
REMARK                            x       y       z     vdW  Elec       q    Type
REMARK                         _______ _______ _______ _____ _____    ______ ____
ROOT
ATOM      1  N   UNL     1       1.829   6.390  20.552  0.00  0.00    +0.000 N 
ATOM      2  H   UNL     1       0.949   6.802  20.241  0.00  0.00    +0.000 HD
ENDROOT
BRANCH   1   3
ATOM      3  C   UNL     1       2.788   6.453  19.528  0.00  0.00    +0.000 A 
ATOM      4  C   UNL     1       2.590   7.126  18.314  0.00  0.00    +0.000 A 
ATOM      5  C   UNL     1       3.573   7.156  17.323  0.00  0.00    +0.000 A 
ATOM      6  C   UNL     1       4.786   6.480  17.484  0.00  0.00    +0.000 A 
ATOM      7  C   UNL     1       4.953   5.742  18.663  0.00  0.00    +0.000 A 
ATOM      8  C   UNL     1       3.975   5.732  19.668  0.00  0.00    +0.000 A 
BRANCH   6   9
ATOM      9  C   UNL     1       5.837   6.605  16.391  0.00  0.00    +0.000 C 
ATOM     10  C   UNL     1       7.212   6.044  16.787  0.00  0.00    +0.000 C 
ATOM     11  C   UNL     1       7.320   4.525  16.694  0.00  0.00    +0.000 C 
ATOM     12  C   UNL     1       6.785   3.961  15.378  0.00  0.00    +0.000 C 
ATOM     13  C   UNL     1       5.454   4.548  14.915  0.00  0.00    +0.000 C 
ATOM     14  C   UNL     1       5.398   6.067  15.025  0.00  0.00    +0.000 C 
ENDBRANCH   6   9
ENDBRANCH   1   3
BRANCH   1  15
ATOM     15  C   UNL     1       1.666   5.107  21.238  0.00  0.00    +0.000 C 
BRANCH  15  16
ATOM     16  C   UNL     1       0.889   4.095  20.400  0.00  0.00    +0.000 C 
BRANCH  16  22
ATOM     17  C   UNL     1       2.820   2.507  19.905  0.00  0.00    +0.000 A 
ATOM     18  C   UNL     1       3.639   1.817  19.010  0.00  0.00    +0.000 A 
ATOM     19  C   UNL     1       3.469   1.999  17.638  0.00  0.00    +0.000 A 
ATOM     20  C   UNL     1       2.484   2.862  17.166  0.00  0.00    +0.000 A 
ATOM     21  C   UNL     1       1.670   3.553  18.066  0.00  0.00    +0.000 A 
ATOM     22  C   UNL     1       1.835   3.391  19.450  0.00  0.00    +0.000 A 
BRANCH  17  23
ATOM     23  O   UNL     1       2.957   2.308  21.251  0.00  0.00    +0.000 OA
ATOM     24  H   UNL     1       3.356   1.433  21.395  0.00  0.00    +0.000 HD
ENDBRANCH  17  23
ENDBRANCH  16  22
ENDBRANCH  15  16
ENDBRANCH   1  15
TORSDOF 6
ENDMDL
MODEL 9
REMARK VINA RESULT:      -7.0      5.042      8.204
REMARK  Name = 
REMARK  6 active torsions:
REMARK  status: ('A' for Active; 'I' for Inactive)
REMARK    1  A    between atoms: O_1  and  C_2
REMARK    2  A    between atoms: C_7  and  C_8
REMARK    3  A    between atoms: C_8  and  C_9
REMARK    4  A    between atoms: C_9  and  N_10
REMARK    5  A    between atoms: N_10  and  C_11
REMARK    6  A    between atoms: C_14  and  C_15
REMARK                            x       y       z     vdW  Elec       q    Type
REMARK                         _______ _______ _______ _____ _____    ______ ____
ROOT
ATOM      1  N   UNL     1       7.918   8.070  17.208  0.00  0.00    +0.000 N 
ATOM      2  H   UNL     1       7.537   8.493  16.362  0.00  0.00    +0.000 HD
ENDROOT
BRANCH   1   3
ATOM      3  C   UNL     1       7.063   7.061  17.679  0.00  0.00    +0.000 A 
ATOM      4  C   UNL     1       7.417   6.139  18.674  0.00  0.00    +0.000 A 
ATOM      5  C   UNL     1       6.532   5.150  19.107  0.00  0.00    +0.000 A 
ATOM      6  C   UNL     1       5.264   5.012  18.536  0.00  0.00    +0.000 A 
ATOM      7  C   UNL     1       4.938   5.881  17.488  0.00  0.00    +0.000 A 
ATOM      8  C   UNL     1       5.818   6.890  17.070  0.00  0.00    +0.000 A 
BRANCH   6   9
ATOM      9  C   UNL     1       4.327   3.951  19.097  0.00  0.00    +0.000 C 
ATOM     10  C   UNL     1       3.144   4.527  19.891  0.00  0.00    +0.000 C 
ATOM     11  C   UNL     1       2.004   5.053  19.024  0.00  0.00    +0.000 C 
ATOM     12  C   UNL     1       1.585   4.081  17.922  0.00  0.00    +0.000 C 
ATOM     13  C   UNL     1       2.737   3.432  17.158  0.00  0.00    +0.000 C 
ATOM     14  C   UNL     1       3.848   2.921  18.067  0.00  0.00    +0.000 C 
ENDBRANCH   6   9
ENDBRANCH   1   3
BRANCH   1  15
ATOM     15  C   UNL     1       8.404   9.046  18.186  0.00  0.00    +0.000 C 
BRANCH  15  16
ATOM     16  C   UNL     1       8.199  10.485  17.720  0.00  0.00    +0.000 C 
BRANCH  16  22
ATOM     17  C   UNL     1       9.337  12.740  18.061  0.00  0.00    +0.000 A 
ATOM     18  C   UNL     1      10.237  13.567  18.733  0.00  0.00    +0.000 A 
ATOM     19  C   UNL     1      11.026  13.042  19.756  0.00  0.00    +0.000 A 
ATOM     20  C   UNL     1      10.911  11.699  20.106  0.00  0.00    +0.000 A 
ATOM     21  C   UNL     1      10.012  10.875  19.427  0.00  0.00    +0.000 A 
ATOM     22  C   UNL     1       9.218  11.384  18.387  0.00  0.00    +0.000 A 
BRANCH  17  23
ATOM     23  O   UNL     1       8.536  13.254  17.080  0.00  0.00    +0.000 OA
ATOM     24  H   UNL     1       8.581  14.225  17.121  0.00  0.00    +0.000 HD
ENDBRANCH  17  23
ENDBRANCH  16  22
ENDBRANCH  15  16
ENDBRANCH   1  15
TORSDOF 6
ENDMDL
