MODEL 1
REMARK VINA RESULT:      -7.4      0.000      0.000
REMARK  Name = 
REMARK  4 active torsions:
REMARK  status: ('A' for Active; 'I' for Inactive)
REMARK    1  A    between atoms: C_8  and  O_9
REMARK    2  A    between atoms: O_9  and  C_10
REMARK    3  A    between atoms: N_18  and  C_19
REMARK    4  A    between atoms: C_19  and  C_20
REMARK                            x       y       z     vdW  Elec       q    Type
REMARK                         _______ _______ _______ _____ _____    ______ ____
ROOT
ATOM      1  O   UNL     1       4.801   3.400  16.199  0.00  0.00    +0.000 OA
ATOM      2  C   UNL     1       4.040   3.730  17.101  0.00  0.00    +0.000 A 
ATOM      3  C   UNL     1       3.238   2.635  17.755  0.00  0.00    +0.000 A 
ATOM      4  N   UNL     1       2.400   2.828  18.725  0.00  0.00    +0.000 NA
ATOM      5  C   UNL     1       2.264   4.150  19.181  0.00  0.00    +0.000 A 
ATOM      6  C   UNL     1       1.402   4.441  20.217  0.00  0.00    +0.000 A 
ATOM      7  N   UNL     1       1.237   5.670  20.732  0.00  0.00    +0.000 NA
ATOM      8  C   UNL     1       1.999   6.644  20.204  0.00  0.00    +0.000 A 
ATOM      9  N   UNL     1       2.827   6.496  19.155  0.00  0.00    +0.000 NA
ATOM     10  C   UNL     1       2.958   5.246  18.666  0.00  0.00    +0.000 A 
ATOM     11  N   UNL     1       3.841   5.013  17.581  0.00  0.00    +0.000 N 
ENDROOT
BRANCH   8  12
ATOM     12  O   UNL     1       1.968   7.909  20.780  0.00  0.00    +0.000 OA
BRANCH  12  13
ATOM     13  C   UNL     1       1.120   8.838  20.213  0.00  0.00    +0.000 A 
ATOM     14  C   UNL     1       0.099   9.482  20.921  0.00  0.00    +0.000 A 
ATOM     15  C   UNL     1      -0.738  10.394  20.278  0.00  0.00    +0.000 A 
ATOM     16  C   UNL     1      -0.528  10.703  18.935  0.00  0.00    +0.000 A 
ATOM     17  C   UNL     1       0.524  10.106  18.239  0.00  0.00    +0.000 A 
ATOM     18  C   UNL     1       1.350   9.177  18.877  0.00  0.00    +0.000 A 
ENDBRANCH  12  13
ENDBRANCH   8  12
BRANCH  11  19
ATOM     19  C   UNL     1       4.563   6.122  16.979  0.00  0.00    +0.000 C 
BRANCH  19  20
ATOM     20  C   UNL     1       5.898   6.308  17.642  0.00  0.00    +0.000 A 
ATOM     21  C   UNL     1       6.875   7.248  17.367  0.00  0.00    +0.000 A 
ATOM     22  C   UNL     1       8.022   7.100  18.200  0.00  0.00    +0.000 A 
ATOM     23  C   UNL     1       7.870   6.078  19.108  0.00  0.00    +0.000 A 
ATOM     24  S   UNL     1       6.355   5.301  18.953  0.00  0.00    +0.000 S 
ENDBRANCH  19  20
ENDBRANCH  11  19
TORSDOF 4
ENDMDL
MODEL 2
REMARK VINA RESULT:      -7.4      0.668      1.310
REMARK  Name = 
REMARK  4 active torsions:
REMARK  status: ('A' for Active; 'I' for Inactive)
REMARK    1  A    between atoms: C_8  and  O_9
REMARK    2  A    between atoms: O_9  and  C_10
REMARK    3  A    between atoms: N_18  and  C_19
REMARK    4  A    between atoms: C_19  and  C_20
REMARK                            x       y       z     vdW  Elec       q    Type
REMARK                         _______ _______ _______ _____ _____    ______ ____
ROOT
ATOM      1  O   UNL     1       4.851   3.183  16.330  0.00  0.00    +0.000 OA
ATOM      2  C   UNL     1       4.073   3.536  17.208  0.00  0.00    +0.000 A 
ATOM      3  C   UNL     1       3.222   2.464  17.840  0.00  0.00    +0.000 A 
ATOM      4  N   UNL     1       2.362   2.682  18.784  0.00  0.00    +0.000 NA
ATOM      5  C   UNL     1       2.248   4.008  19.233  0.00  0.00    +0.000 A 
ATOM      6  C   UNL     1       1.363   4.325  20.242  0.00  0.00    +0.000 A 
ATOM      7  N   UNL     1       1.216   5.559  20.750  0.00  0.00    +0.000 NA
ATOM      8  C   UNL     1       2.019   6.511  20.243  0.00  0.00    +0.000 A 
ATOM      9  N   UNL     1       2.874   6.339  19.219  0.00  0.00    +0.000 NA
ATOM     10  C   UNL     1       2.986   5.084  18.737  0.00  0.00    +0.000 A 
ATOM     11  N   UNL     1       3.894   4.825  17.679  0.00  0.00    +0.000 N 
ENDROOT
BRANCH   8  12
ATOM     12  O   UNL     1       2.005   7.778  20.815  0.00  0.00    +0.000 OA
BRANCH  12  13
ATOM     13  C   UNL     1       1.211   8.732  20.212  0.00  0.00    +0.000 A 
ATOM     14  C   UNL     1       1.353   9.119  18.874  0.00  0.00    +0.000 A 
ATOM     15  C   UNL     1       0.531  10.109  18.335  0.00  0.00    +0.000 A 
ATOM     16  C   UNL     1      -0.469  10.683  19.118  0.00  0.00    +0.000 A 
ATOM     17  C   UNL     1      -0.653  10.261  20.435  0.00  0.00    +0.000 A 
ATOM     18  C   UNL     1       0.184   9.283  20.982  0.00  0.00    +0.000 A 
ENDBRANCH  12  13
ENDBRANCH   8  12
BRANCH  11  19
ATOM     19  C   UNL     1       4.663   5.912  17.097  0.00  0.00    +0.000 C 
BRANCH  19  20
ATOM     20  C   UNL     1       5.962   6.095  17.829  0.00  0.00    +0.000 A 
ATOM     21  C   UNL     1       6.475   5.350  18.876  0.00  0.00    +0.000 A 
ATOM     22  C   UNL     1       7.736   5.838  19.325  0.00  0.00    +0.000 A 
ATOM     23  C   UNL     1       8.163   6.916  18.583  0.00  0.00    +0.000 A 
ATOM     24  S   UNL     1       7.049   7.335  17.358  0.00  0.00    +0.000 S 
ENDBRANCH  19  20
ENDBRANCH  11  19
TORSDOF 4
ENDMDL
MODEL 3
REMARK VINA RESULT:      -7.3      2.848      7.193
REMARK  Name = 
REMARK  4 active torsions:
REMARK  status: ('A' for Active; 'I' for Inactive)
REMARK    1  A    between atoms: C_8  and  O_9
REMARK    2  A    between atoms: O_9  and  C_10
REMARK    3  A    between atoms: N_18  and  C_19
REMARK    4  A    between atoms: C_19  and  C_20
REMARK                            x       y       z     vdW  Elec       q    Type
REMARK                         _______ _______ _______ _____ _____    ______ ____
ROOT
ATOM      1  O   UNL     1       1.794   6.772  20.828  0.00  0.00    +0.000 OA
ATOM      2  C   UNL     1       2.408   6.861  19.772  0.00  0.00    +0.000 A 
ATOM      3  C   UNL     1       2.185   8.105  18.951  0.00  0.00    +0.000 A 
ATOM      4  N   UNL     1       2.768   8.343  17.819  0.00  0.00    +0.000 NA
ATOM      5  C   UNL     1       3.670   7.368  17.362  0.00  0.00    +0.000 A 
ATOM      6  C   UNL     1       4.341   7.548  16.171  0.00  0.00    +0.000 A 
ATOM      7  N   UNL     1       5.241   6.681  15.679  0.00  0.00    +0.000 NA
ATOM      8  C   UNL     1       5.501   5.600  16.436  0.00  0.00    +0.000 A 
ATOM      9  N   UNL     1       4.869   5.285  17.580  0.00  0.00    +0.000 NA
ATOM     10  C   UNL     1       3.969   6.182  18.034  0.00  0.00    +0.000 A 
ATOM     11  N   UNL     1       3.289   5.928  19.252  0.00  0.00    +0.000 N 
ENDROOT
BRANCH   8  12
ATOM     12  O   UNL     1       6.515   4.733  16.044  0.00  0.00    +0.000 OA
BRANCH  12  13
ATOM     13  C   UNL     1       6.652   4.495  14.692  0.00  0.00    +0.000 A 
ATOM     14  C   UNL     1       5.820   3.626  13.975  0.00  0.00    +0.000 A 
ATOM     15  C   UNL     1       6.031   3.413  12.612  0.00  0.00    +0.000 A 
ATOM     16  C   UNL     1       7.043   4.105  11.949  0.00  0.00    +0.000 A 
ATOM     17  C   UNL     1       7.838   5.015  12.647  0.00  0.00    +0.000 A 
ATOM     18  C   UNL     1       7.641   5.213  14.017  0.00  0.00    +0.000 A 
ENDBRANCH  12  13
ENDBRANCH   8  12
BRANCH  11  19
ATOM     19  C   UNL     1       3.533   4.692  19.979  0.00  0.00    +0.000 C 
BRANCH  19  20
ATOM     20  C   UNL     1       2.591   3.614  19.522  0.00  0.00    +0.000 A 
ATOM     21  C   UNL     1       1.208   3.601  19.564  0.00  0.00    +0.000 A 
ATOM     22  C   UNL     1       0.659   2.389  19.054  0.00  0.00    +0.000 A 
ATOM     23  C   UNL     1       1.637   1.532  18.604  0.00  0.00    +0.000 A 
ATOM     24  S   UNL     1       3.205   2.185  18.801  0.00  0.00    +0.000 S 
ENDBRANCH  19  20
ENDBRANCH  11  19
TORSDOF 4
ENDMDL
MODEL 4
REMARK VINA RESULT:      -7.3      1.743      2.253
REMARK  Name = 
REMARK  4 active torsions:
REMARK  status: ('A' for Active; 'I' for Inactive)
REMARK    1  A    between atoms: C_8  and  O_9
REMARK    2  A    between atoms: O_9  and  C_10
REMARK    3  A    between atoms: N_18  and  C_19
REMARK    4  A    between atoms: C_19  and  C_20
REMARK                            x       y       z     vdW  Elec       q    Type
REMARK                         _______ _______ _______ _____ _____    ______ ____
ROOT
ATOM      1  O   UNL     1       3.709   2.185  19.077  0.00  0.00    +0.000 OA
ATOM      2  C   UNL     1       3.217   3.255  19.417  0.00  0.00    +0.000 A 
ATOM      3  C   UNL     1       2.595   3.317  20.789  0.00  0.00    +0.000 A 
ATOM      4  N   UNL     1       2.045   4.378  21.289  0.00  0.00    +0.000 NA
ATOM      5  C   UNL     1       2.057   5.529  20.484  0.00  0.00    +0.000 A 
ATOM      6  C   UNL     1       1.502   6.704  20.945  0.00  0.00    +0.000 A 
ATOM      7  N   UNL     1       1.500   7.855  20.252  0.00  0.00    +0.000 NA
ATOM      8  C   UNL     1       2.113   7.830  19.056  0.00  0.00    +0.000 A 
ATOM      9  N   UNL     1       2.634   6.735  18.475  0.00  0.00    +0.000 NA
ATOM     10  C   UNL     1       2.610   5.600  19.205  0.00  0.00    +0.000 A 
ATOM     11  N   UNL     1       3.173   4.416  18.666  0.00  0.00    +0.000 N 
ENDROOT
BRANCH   8  12
ATOM     12  O   UNL     1       2.257   9.019  18.350  0.00  0.00    +0.000 OA
BRANCH  12  13
ATOM     13  C   UNL     1       1.198   9.903  18.384  0.00  0.00    +0.000 A 
ATOM     14  C   UNL     1       1.295  11.200  18.903  0.00  0.00    +0.000 A 
ATOM     15  C   UNL     1       0.177  12.034  18.929  0.00  0.00    +0.000 A 
ATOM     16  C   UNL     1      -1.031  11.592  18.391  0.00  0.00    +0.000 A 
ATOM     17  C   UNL     1      -1.118  10.322  17.821  0.00  0.00    +0.000 A 
ATOM     18  C   UNL     1      -0.004   9.478  17.814  0.00  0.00    +0.000 A 
ENDBRANCH  12  13
ENDBRANCH   8  12
BRANCH  11  19
ATOM     19  C   UNL     1       3.732   4.420  17.323  0.00  0.00    +0.000 C 
BRANCH  19  20
ATOM     20  C   UNL     1       5.142   4.937  17.337  0.00  0.00    +0.000 A 
ATOM     21  C   UNL     1       6.247   4.415  17.987  0.00  0.00    +0.000 A 
ATOM     22  C   UNL     1       7.420   5.197  17.779  0.00  0.00    +0.000 A 
ATOM     23  C   UNL     1       7.184   6.268  16.948  0.00  0.00    +0.000 A 
ATOM     24  S   UNL     1       5.557   6.330  16.427  0.00  0.00    +0.000 S 
ENDBRANCH  19  20
ENDBRANCH  11  19
TORSDOF 4
ENDMDL
MODEL 5
REMARK VINA RESULT:      -7.3      1.109      1.307
REMARK  Name = 
REMARK  4 active torsions:
REMARK  status: ('A' for Active; 'I' for Inactive)
REMARK    1  A    between atoms: C_8  and  O_9
REMARK    2  A    between atoms: O_9  and  C_10
REMARK    3  A    between atoms: N_18  and  C_19
REMARK    4  A    between atoms: C_19  and  C_20
REMARK                            x       y       z     vdW  Elec       q    Type
REMARK                         _______ _______ _______ _____ _____    ______ ____
ROOT
ATOM      1  O   UNL     1       4.062   1.831  17.279  0.00  0.00    +0.000 OA
ATOM      2  C   UNL     1       3.474   2.614  18.016  0.00  0.00    +0.000 A 
ATOM      3  C   UNL     1       2.652   2.019  19.130  0.00  0.00    +0.000 A 
ATOM      4  N   UNL     1       1.983   2.717  19.992  0.00  0.00    +0.000 NA
ATOM      5  C   UNL     1       2.058   4.114  19.860  0.00  0.00    +0.000 A 
ATOM      6  C   UNL     1       1.384   4.931  20.742  0.00  0.00    +0.000 A 
ATOM      7  N   UNL     1       1.428   6.273  20.705  0.00  0.00    +0.000 NA
ATOM      8  C   UNL     1       2.213   6.816  19.758  0.00  0.00    +0.000 A 
ATOM      9  N   UNL     1       2.868   6.128  18.806  0.00  0.00    +0.000 NA
ATOM     10  C   UNL     1       2.791   4.783  18.879  0.00  0.00    +0.000 A 
ATOM     11  N   UNL     1       3.485   3.995  17.926  0.00  0.00    +0.000 N 
ENDROOT
BRANCH   8  12
ATOM     12  O   UNL     1       2.402   8.193  19.750  0.00  0.00    +0.000 OA
BRANCH  12  13
ATOM     13  C   UNL     1       1.288   8.980  19.538  0.00  0.00    +0.000 A 
ATOM     14  C   UNL     1       0.560   9.579  20.573  0.00  0.00    +0.000 A 
ATOM     15  C   UNL     1      -0.572  10.342  20.288  0.00  0.00    +0.000 A 
ATOM     16  C   UNL     1      -0.954  10.552  18.964  0.00  0.00    +0.000 A 
ATOM     17  C   UNL     1      -0.199  10.004  17.926  0.00  0.00    +0.000 A 
ATOM     18  C   UNL     1       0.924   9.222  18.211  0.00  0.00    +0.000 A 
ENDBRANCH  12  13
ENDBRANCH   8  12
BRANCH  11  19
ATOM     19  C   UNL     1       4.236   4.636  16.859  0.00  0.00    +0.000 C 
BRANCH  19  20
ATOM     20  C   UNL     1       5.526   5.200  17.383  0.00  0.00    +0.000 A 
ATOM     21  C   UNL     1       6.503   4.569  18.132  0.00  0.00    +0.000 A 
ATOM     22  C   UNL     1       7.584   5.438  18.460  0.00  0.00    +0.000 A 
ATOM     23  C   UNL     1       7.416   6.693  17.920  0.00  0.00    +0.000 A 
ATOM     24  S   UNL     1       5.964   6.819  17.027  0.00  0.00    +0.000 S 
ENDBRANCH  19  20
ENDBRANCH  11  19
TORSDOF 4
ENDMDL
MODEL 6
REMARK VINA RESULT:      -7.2      1.538      1.912
REMARK  Name = 
REMARK  4 active torsions:
REMARK  status: ('A' for Active; 'I' for Inactive)
REMARK    1  A    between atoms: C_8  and  O_9
REMARK    2  A    between atoms: O_9  and  C_10
REMARK    3  A    between atoms: N_18  and  C_19
REMARK    4  A    between atoms: C_19  and  C_20
REMARK                            x       y       z     vdW  Elec       q    Type
REMARK                         _______ _______ _______ _____ _____    ______ ____
ROOT
ATOM      1  O   UNL     1       4.312   2.606  19.017  0.00  0.00    +0.000 OA
ATOM      2  C   UNL     1       3.667   3.590  19.359  0.00  0.00    +0.000 A 
ATOM      3  C   UNL     1       2.887   3.486  20.644  0.00  0.00    +0.000 A 
ATOM      4  N   UNL     1       2.167   4.443  21.136  0.00  0.00    +0.000 NA
ATOM      5  C   UNL     1       2.143   5.645  20.411  0.00  0.00    +0.000 A 
ATOM      6  C   UNL     1       1.409   6.719  20.871  0.00  0.00    +0.000 A 
ATOM      7  N   UNL     1       1.358   7.911  20.255  0.00  0.00    +0.000 NA
ATOM      8  C   UNL     1       2.105   8.040  19.144  0.00  0.00    +0.000 A 
ATOM      9  N   UNL     1       2.810   7.051  18.566  0.00  0.00    +0.000 NA
ATOM     10  C   UNL     1       2.829   5.869  19.217  0.00  0.00    +0.000 A 
ATOM     11  N   UNL     1       3.581   4.793  18.679  0.00  0.00    +0.000 N 
ENDROOT
BRANCH   8  12
ATOM     12  O   UNL     1       2.196   9.286  18.535  0.00  0.00    +0.000 OA
BRANCH  12  13
ATOM     13  C   UNL     1       1.075  10.091  18.580  0.00  0.00    +0.000 A 
ATOM     14  C   UNL     1       1.034  11.318  19.252  0.00  0.00    +0.000 A 
ATOM     15  C   UNL     1      -0.141  12.069  19.277  0.00  0.00    +0.000 A 
ATOM     16  C   UNL     1      -1.267  11.621  18.588  0.00  0.00    +0.000 A 
ATOM     17  C   UNL     1      -1.214  10.427  17.869  0.00  0.00    +0.000 A 
ATOM     18  C   UNL     1      -0.044   9.663  17.861  0.00  0.00    +0.000 A 
ENDBRANCH  12  13
ENDBRANCH   8  12
BRANCH  11  19
ATOM     19  C   UNL     1       4.287   4.956  17.419  0.00  0.00    +0.000 C 
BRANCH  19  20
ATOM     20  C   UNL     1       5.557   5.732  17.620  0.00  0.00    +0.000 A 
ATOM     21  C   UNL     1       6.036   6.807  16.892  0.00  0.00    +0.000 A 
ATOM     22  C   UNL     1       7.295   7.273  17.372  0.00  0.00    +0.000 A 
ATOM     23  C   UNL     1       7.718   6.564  18.473  0.00  0.00    +0.000 A 
ATOM     24  S   UNL     1       6.606   5.345  18.920  0.00  0.00    +0.000 S 
ENDBRANCH  19  20
ENDBRANCH  11  19
TORSDOF 4
ENDMDL
MODEL 7
REMARK VINA RESULT:      -7.2      1.819      2.378
REMARK  Name = 
REMARK  4 active torsions:
REMARK  status: ('A' for Active; 'I' for Inactive)
REMARK    1  A    between atoms: C_8  and  O_9
REMARK    2  A    between atoms: O_9  and  C_10
REMARK    3  A    between atoms: N_18  and  C_19
REMARK    4  A    between atoms: C_19  and  C_20
REMARK                            x       y       z     vdW  Elec       q    Type
REMARK                         _______ _______ _______ _____ _____    ______ ____
ROOT
ATOM      1  O   UNL     1       3.610   2.476  18.889  0.00  0.00    +0.000 OA
ATOM      2  C   UNL     1       3.149   3.548  19.263  0.00  0.00    +0.000 A 
ATOM      3  C   UNL     1       2.630   3.615  20.676  0.00  0.00    +0.000 A 
ATOM      4  N   UNL     1       2.122   4.678  21.214  0.00  0.00    +0.000 NA
ATOM      5  C   UNL     1       2.079   5.828  20.408  0.00  0.00    +0.000 A 
ATOM      6  C   UNL     1       1.563   7.006  20.907  0.00  0.00    +0.000 A 
ATOM      7  N   UNL     1       1.514   8.155  20.215  0.00  0.00    +0.000 NA
ATOM      8  C   UNL     1       2.037   8.127  18.976  0.00  0.00    +0.000 A 
ATOM      9  N   UNL     1       2.510   7.029  18.360  0.00  0.00    +0.000 NA
ATOM     10  C   UNL     1       2.536   5.896  19.091  0.00  0.00    +0.000 A 
ATOM     11  N   UNL     1       3.053   4.708  18.514  0.00  0.00    +0.000 N 
ENDROOT
BRANCH   8  12
ATOM     12  O   UNL     1       2.133   9.314  18.259  0.00  0.00    +0.000 OA
BRANCH  12  13
ATOM     13  C   UNL     1       1.062  10.181  18.333  0.00  0.00    +0.000 A 
ATOM     14  C   UNL     1      -0.248   9.817  18.001  0.00  0.00    +0.000 A 
ATOM     15  C   UNL     1      -1.280  10.753  18.075  0.00  0.00    +0.000 A 
ATOM     16  C   UNL     1      -1.016  12.044  18.528  0.00  0.00    +0.000 A 
ATOM     17  C   UNL     1       0.278  12.396  18.914  0.00  0.00    +0.000 A 
ATOM     18  C   UNL     1       1.316  11.465  18.821  0.00  0.00    +0.000 A 
ENDBRANCH  12  13
ENDBRANCH   8  12
BRANCH  11  19
ATOM     19  C   UNL     1       3.511   4.709  17.134  0.00  0.00    +0.000 C 
BRANCH  19  20
ATOM     20  C   UNL     1       5.007   4.833  17.072  0.00  0.00    +0.000 A 
ATOM     21  C   UNL     1       5.845   5.587  17.874  0.00  0.00    +0.000 A 
ATOM     22  C   UNL     1       7.214   5.464  17.498  0.00  0.00    +0.000 A 
ATOM     23  C   UNL     1       7.382   4.593  16.446  0.00  0.00    +0.000 A 
ATOM     24  S   UNL     1       5.898   3.933  15.916  0.00  0.00    +0.000 S 
ENDBRANCH  19  20
ENDBRANCH  11  19
TORSDOF 4
ENDMDL
MODEL 8
REMARK VINA RESULT:      -7.2      0.604      1.160
REMARK  Name = 
REMARK  4 active torsions:
REMARK  status: ('A' for Active; 'I' for Inactive)
REMARK    1  A    between atoms: C_8  and  O_9
REMARK    2  A    between atoms: O_9  and  C_10
REMARK    3  A    between atoms: N_18  and  C_19
REMARK    4  A    between atoms: C_19  and  C_20
REMARK                            x       y       z     vdW  Elec       q    Type
REMARK                         _______ _______ _______ _____ _____    ______ ____
ROOT
ATOM      1  O   UNL     1       5.105   3.378  16.166  0.00  0.00    +0.000 OA
ATOM      2  C   UNL     1       4.300   3.570  17.069  0.00  0.00    +0.000 A 
ATOM      3  C   UNL     1       3.627   2.355  17.656  0.00  0.00    +0.000 A 
ATOM      4  N   UNL     1       2.762   2.399  18.618  0.00  0.00    +0.000 NA
ATOM      5  C   UNL     1       2.463   3.670  19.136  0.00  0.00    +0.000 A 
ATOM      6  C   UNL     1       1.560   3.804  20.169  0.00  0.00    +0.000 A 
ATOM      7  N   UNL     1       1.243   4.977  20.741  0.00  0.00    +0.000 NA
ATOM      8  C   UNL     1       1.889   6.060  20.273  0.00  0.00    +0.000 A 
ATOM      9  N   UNL     1       2.741   6.065  19.232  0.00  0.00    +0.000 NA
ATOM     10  C   UNL     1       3.026   4.865  18.686  0.00  0.00    +0.000 A 
ATOM     11  N   UNL     1       3.943   4.794  17.606  0.00  0.00    +0.000 N 
ENDROOT
BRANCH   8  12
ATOM     12  O   UNL     1       1.700   7.282  20.909  0.00  0.00    +0.000 OA
BRANCH  12  13
ATOM     13  C   UNL     1       1.453   8.377  20.106  0.00  0.00    +0.000 A 
ATOM     14  C   UNL     1       1.861   8.461  18.769  0.00  0.00    +0.000 A 
ATOM     15  C   UNL     1       1.598   9.609  18.023  0.00  0.00    +0.000 A 
ATOM     16  C   UNL     1       0.883  10.661  18.594  0.00  0.00    +0.000 A 
ATOM     17  C   UNL     1       0.425  10.560  19.908  0.00  0.00    +0.000 A 
ATOM     18  C   UNL     1       0.706   9.418  20.663  0.00  0.00    +0.000 A 
ENDBRANCH  12  13
ENDBRANCH   8  12
BRANCH  11  19
ATOM     19  C   UNL     1       4.534   6.010  17.071  0.00  0.00    +0.000 C 
BRANCH  19  20
ATOM     20  C   UNL     1       5.879   6.262  17.690  0.00  0.00    +0.000 A 
ATOM     21  C   UNL     1       6.823   7.214  17.345  0.00  0.00    +0.000 A 
ATOM     22  C   UNL     1       7.994   7.137  18.154  0.00  0.00    +0.000 A 
ATOM     23  C   UNL     1       7.892   6.155  19.113  0.00  0.00    +0.000 A 
ATOM     24  S   UNL     1       6.396   5.332  19.035  0.00  0.00    +0.000 S 
ENDBRANCH  19  20
ENDBRANCH  11  19
TORSDOF 4
ENDMDL
MODEL 9
REMARK VINA RESULT:      -7.2      5.066      7.817
REMARK  Name = 
REMARK  4 active torsions:
REMARK  status: ('A' for Active; 'I' for Inactive)
REMARK    1  A    between atoms: C_8  and  O_9
REMARK    2  A    between atoms: O_9  and  C_10
REMARK    3  A    between atoms: N_18  and  C_19
REMARK    4  A    between atoms: C_19  and  C_20
REMARK                            x       y       z     vdW  Elec       q    Type
REMARK                         _______ _______ _______ _____ _____    ______ ____
ROOT
ATOM      1  O   UNL     1       1.356   9.271  17.927  0.00  0.00    +0.000 OA
ATOM      2  C   UNL     1       0.962   9.437  19.075  0.00  0.00    +0.000 A 
ATOM      3  C   UNL     1       1.408   8.430  20.104  0.00  0.00    +0.000 A 
ATOM      4  N   UNL     1       1.079   8.478  21.356  0.00  0.00    +0.000 NA
ATOM      5  C   UNL     1       0.268   9.554  21.751  0.00  0.00    +0.000 A 
ATOM      6  C   UNL     1      -0.119   9.685  23.068  0.00  0.00    +0.000 A 
ATOM      7  N   UNL     1      -0.867  10.699  23.532  0.00  0.00    +0.000 NA
ATOM      8  C   UNL     1      -1.213  11.641  22.637  0.00  0.00    +0.000 A 
ATOM      9  N   UNL     1      -0.950  11.592  21.320  0.00  0.00    +0.000 NA
ATOM     10  C   UNL     1      -0.200  10.553  20.896  0.00  0.00    +0.000 A 
ATOM     11  N   UNL     1       0.143  10.458  19.524  0.00  0.00    +0.000 N 
ENDROOT
BRANCH   8  12
ATOM     12  O   UNL     1      -1.876  12.779  23.082  0.00  0.00    +0.000 OA
BRANCH  12  13
ATOM     13  C   UNL     1      -3.256  12.745  23.078  0.00  0.00    +0.000 A 
ATOM     14  C   UNL     1      -4.026  12.854  21.914  0.00  0.00    +0.000 A 
ATOM     15  C   UNL     1      -5.419  12.837  21.987  0.00  0.00    +0.000 A 
ATOM     16  C   UNL     1      -6.049  12.662  23.218  0.00  0.00    +0.000 A 
ATOM     17  C   UNL     1      -5.285  12.496  24.374  0.00  0.00    +0.000 A 
ATOM     18  C   UNL     1      -3.890  12.534  24.305  0.00  0.00    +0.000 A 
ENDBRANCH  12  13
ENDBRANCH   8  12
BRANCH  11  19
ATOM     19  C   UNL     1      -0.346  11.450  18.580  0.00  0.00    +0.000 C 
BRANCH  19  20
ATOM     20  C   UNL     1      -1.641  11.002  17.963  0.00  0.00    +0.000 A 
ATOM     21  C   UNL     1      -1.851  10.014  17.018  0.00  0.00    +0.000 A 
ATOM     22  C   UNL     1      -3.224   9.886  16.660  0.00  0.00    +0.000 A 
ATOM     23  C   UNL     1      -4.023  10.754  17.369  0.00  0.00    +0.000 A 
ATOM     24  S   UNL     1      -3.120  11.716  18.455  0.00  0.00    +0.000 S 
ENDBRANCH  19  20
ENDBRANCH  11  19
TORSDOF 4
ENDMDL
