MODEL 1
REMARK VINA RESULT:      -8.1      0.000      0.000
REMARK  Name = 
REMARK  6 active torsions:
REMARK  status: ('A' for Active; 'I' for Inactive)
REMARK    1  A    between atoms: C_1  and  N_2
REMARK    2  A    between atoms: C_6  and  C_7
REMARK    3  A    between atoms: C_14  and  S_15
REMARK    4  A    between atoms: S_15  and  C_16
REMARK    5  A    between atoms: C_16  and  C_17
REMARK    6  A    between atoms: N_19  and  C_20
REMARK                            x       y       z     vdW  Elec       q    Type
REMARK                         _______ _______ _______ _____ _____    ______ ____
ROOT
ATOM      1  C   UNL     1       2.989   2.130  19.411  0.00  0.00    +0.000 C 
ATOM      2  N   UNL     1       2.826   3.494  18.907  0.00  0.00    +0.000 N 
ATOM      3  C   UNL     1       1.588   3.816  18.391  0.00  0.00    +0.000 C 
ATOM      4  O   UNL     1       0.628   3.041  18.403  0.00  0.00    +0.000 OA
ATOM      5  C   UNL     1       1.441   5.137  17.703  0.00  0.00    +0.000 C 
ATOM      6  C   UNL     1       2.506   6.166  18.029  0.00  0.00    +0.000 C 
ATOM      7  N   UNL     1       3.755   5.638  18.571  0.00  0.00    +0.000 NA
ATOM      8  C   UNL     1       3.849   4.423  18.959  0.00  0.00    +0.000 C 
ENDROOT
BRANCH   6   9
ATOM      9  C   UNL     1       1.966   7.301  18.886  0.00  0.00    +0.000 A 
ATOM     10  C   UNL     1       1.688   8.564  18.342  0.00  0.00    +0.000 A 
ATOM     11  C   UNL     1       1.226   9.601  19.155  0.00  0.00    +0.000 A 
ATOM     12  C   UNL     1       1.027   9.389  20.519  0.00  0.00    +0.000 A 
ATOM     13  C   UNL     1       1.287   8.137  21.071  0.00  0.00    +0.000 A 
ATOM     14  C   UNL     1       1.753   7.100  20.261  0.00  0.00    +0.000 A 
ENDBRANCH   6   9
BRANCH   8  15
ATOM     15  S   UNL     1       5.379   3.870  19.628  0.00  0.00    +0.000 S 
BRANCH  15  16
ATOM     16  C   UNL     1       6.495   5.268  19.318  0.00  0.00    +0.000 C 
BRANCH  16  17
ATOM     17  C   UNL     1       6.792   5.387  17.857  0.00  0.00    +0.000 A 
ATOM     18  C   UNL     1       6.447   4.560  16.806  0.00  0.00    +0.000 A 
ATOM     19  N   UNL     1       6.982   5.150  15.682  0.00  0.00    +0.000 N 
ATOM     20  N   UNL     1       7.648   6.273  16.051  0.00  0.00    +0.000 NA
ATOM     21  N   UNL     1       7.530   6.428  17.363  0.00  0.00    +0.000 NA
BRANCH  19  22
ATOM     22  C   UNL     1       6.904   4.725  14.328  0.00  0.00    +0.000 A 
ATOM     23  C   UNL     1       7.772   5.253  13.358  0.00  0.00    +0.000 A 
ATOM     24  C   UNL     1       7.687   4.821  12.029  0.00  0.00    +0.000 A 
ATOM     25  C   UNL     1       6.738   3.870  11.660  0.00  0.00    +0.000 A 
ATOM     26  C   UNL     1       5.874   3.342  12.616  0.00  0.00    +0.000 A 
ATOM     27  C   UNL     1       5.955   3.763  13.948  0.00  0.00    +0.000 A 
ENDBRANCH  19  22
ENDBRANCH  16  17
ENDBRANCH  15  16
ENDBRANCH   8  15
TORSDOF 5
ENDMDL
MODEL 2
REMARK VINA RESULT:      -8.1      3.040      8.582
REMARK  Name = 
REMARK  6 active torsions:
REMARK  status: ('A' for Active; 'I' for Inactive)
REMARK    1  A    between atoms: C_1  and  N_2
REMARK    2  A    between atoms: C_6  and  C_7
REMARK    3  A    between atoms: C_14  and  S_15
REMARK    4  A    between atoms: S_15  and  C_16
REMARK    5  A    between atoms: C_16  and  C_17
REMARK    6  A    between atoms: N_19  and  C_20
REMARK                            x       y       z     vdW  Elec       q    Type
REMARK                         _______ _______ _______ _____ _____    ______ ____
ROOT
ATOM      1  C   UNL     1       0.866   3.927  20.063  0.00  0.00    +0.000 C 
ATOM      2  N   UNL     1       2.293   3.973  19.740  0.00  0.00    +0.000 N 
ATOM      3  C   UNL     1       2.869   2.789  19.328  0.00  0.00    +0.000 C 
ATOM      4  O   UNL     1       2.228   1.747  19.162  0.00  0.00    +0.000 OA
ATOM      5  C   UNL     1       4.356   2.756  19.165  0.00  0.00    +0.000 C 
ATOM      6  C   UNL     1       5.029   4.108  19.025  0.00  0.00    +0.000 C 
ATOM      7  N   UNL     1       4.265   5.251  19.516  0.00  0.00    +0.000 NA
ATOM      8  C   UNL     1       3.028   5.141  19.822  0.00  0.00    +0.000 C 
ENDROOT
BRANCH   6   9
ATOM      9  C   UNL     1       5.545   4.350  17.615  0.00  0.00    +0.000 A 
ATOM     10  C   UNL     1       4.713   4.211  16.495  0.00  0.00    +0.000 A 
ATOM     11  C   UNL     1       5.219   4.404  15.207  0.00  0.00    +0.000 A 
ATOM     12  C   UNL     1       6.558   4.747  15.023  0.00  0.00    +0.000 A 
ATOM     13  C   UNL     1       7.393   4.900  16.126  0.00  0.00    +0.000 A 
ATOM     14  C   UNL     1       6.891   4.703  17.414  0.00  0.00    +0.000 A 
ENDBRANCH   6   9
BRANCH   8  15
ATOM     15  S   UNL     1       2.169   6.572  20.377  0.00  0.00    +0.000 S 
BRANCH  15  16
ATOM     16  C   UNL     1       2.312   7.713  18.972  0.00  0.00    +0.000 C 
BRANCH  16  17
ATOM     17  C   UNL     1       1.433   8.906  19.175  0.00  0.00    +0.000 A 
ATOM     18  C   UNL     1       0.765   9.341  20.303  0.00  0.00    +0.000 A 
ATOM     19  N   UNL     1       0.105  10.489  19.921  0.00  0.00    +0.000 N 
ATOM     20  N   UNL     1       0.346  10.716  18.605  0.00  0.00    +0.000 NA
ATOM     21  N   UNL     1       1.154   9.767  18.149  0.00  0.00    +0.000 NA
BRANCH  19  22
ATOM     22  C   UNL     1      -0.712  11.350  20.701  0.00  0.00    +0.000 A 
ATOM     23  C   UNL     1      -1.529  12.315  20.090  0.00  0.00    +0.000 A 
ATOM     24  C   UNL     1      -2.332  13.153  20.871  0.00  0.00    +0.000 A 
ATOM     25  C   UNL     1      -2.323  13.040  22.260  0.00  0.00    +0.000 A 
ATOM     26  C   UNL     1      -1.515  12.086  22.874  0.00  0.00    +0.000 A 
ATOM     27  C   UNL     1      -0.713  11.239  22.101  0.00  0.00    +0.000 A 
ENDBRANCH  19  22
ENDBRANCH  16  17
ENDBRANCH  15  16
ENDBRANCH   8  15
TORSDOF 5
ENDMDL
MODEL 3
REMARK VINA RESULT:      -8.0      3.040      8.599
REMARK  Name = 
REMARK  6 active torsions:
REMARK  status: ('A' for Active; 'I' for Inactive)
REMARK    1  A    between atoms: C_1  and  N_2
REMARK    2  A    between atoms: C_6  and  C_7
REMARK    3  A    between atoms: C_14  and  S_15
REMARK    4  A    between atoms: S_15  and  C_16
REMARK    5  A    between atoms: C_16  and  C_17
REMARK    6  A    between atoms: N_19  and  C_20
REMARK                            x       y       z     vdW  Elec       q    Type
REMARK                         _______ _______ _______ _____ _____    ______ ____
ROOT
ATOM      1  C   UNL     1       0.805   3.678  20.058  0.00  0.00    +0.000 C 
ATOM      2  N   UNL     1       2.236   3.786  19.770  0.00  0.00    +0.000 N 
ATOM      3  C   UNL     1       2.870   2.632  19.360  0.00  0.00    +0.000 C 
ATOM      4  O   UNL     1       2.278   1.566  19.168  0.00  0.00    +0.000 OA
ATOM      5  C   UNL     1       4.361   2.662  19.233  0.00  0.00    +0.000 C 
ATOM      6  C   UNL     1       4.980   4.042  19.123  0.00  0.00    +0.000 C 
ATOM      7  N   UNL     1       4.157   5.147  19.607  0.00  0.00    +0.000 NA
ATOM      8  C   UNL     1       2.919   4.983  19.881  0.00  0.00    +0.000 C 
ENDROOT
BRANCH   6   9
ATOM      9  C   UNL     1       5.520   4.321  17.729  0.00  0.00    +0.000 A 
ATOM     10  C   UNL     1       6.878   4.592  17.508  0.00  0.00    +0.000 A 
ATOM     11  C   UNL     1       7.345   4.880  16.223  0.00  0.00    +0.000 A 
ATOM     12  C   UNL     1       6.464   4.893  15.143  0.00  0.00    +0.000 A 
ATOM     13  C   UNL     1       5.114   4.615  15.345  0.00  0.00    +0.000 A 
ATOM     14  C   UNL     1       4.645   4.331  16.629  0.00  0.00    +0.000 A 
ENDBRANCH   6   9
BRANCH   8  15
ATOM     15  S   UNL     1       1.988   6.370  20.430  0.00  0.00    +0.000 S 
BRANCH  15  16
ATOM     16  C   UNL     1       2.316   7.620  19.155  0.00  0.00    +0.000 C 
BRANCH  16  17
ATOM     17  C   UNL     1       1.427   8.808  19.345  0.00  0.00    +0.000 A 
ATOM     18  C   UNL     1       0.730   9.231  20.460  0.00  0.00    +0.000 A 
ATOM     19  N   UNL     1       0.076  10.380  20.072  0.00  0.00    +0.000 N 
ATOM     20  N   UNL     1       0.348  10.619  18.764  0.00  0.00    +0.000 NA
ATOM     21  N   UNL     1       1.171   9.678  18.321  0.00  0.00    +0.000 NA
BRANCH  19  22
ATOM     22  C   UNL     1      -0.763  11.232  20.839  0.00  0.00    +0.000 A 
ATOM     23  C   UNL     1      -0.706  11.224  22.242  0.00  0.00    +0.000 A 
ATOM     24  C   UNL     1      -1.535  12.073  22.984  0.00  0.00    +0.000 A 
ATOM     25  C   UNL     1      -2.425  12.927  22.337  0.00  0.00    +0.000 A 
ATOM     26  C   UNL     1      -2.488  12.941  20.946  0.00  0.00    +0.000 A 
ATOM     27  C   UNL     1      -1.659  12.100  20.195  0.00  0.00    +0.000 A 
ENDBRANCH  19  22
ENDBRANCH  16  17
ENDBRANCH  15  16
ENDBRANCH   8  15
TORSDOF 5
ENDMDL
MODEL 4
REMARK VINA RESULT:      -7.9      0.526      1.090
REMARK  Name = 
REMARK  6 active torsions:
REMARK  status: ('A' for Active; 'I' for Inactive)
REMARK    1  A    between atoms: C_1  and  N_2
REMARK    2  A    between atoms: C_6  and  C_7
REMARK    3  A    between atoms: C_14  and  S_15
REMARK    4  A    between atoms: S_15  and  C_16
REMARK    5  A    between atoms: C_16  and  C_17
REMARK    6  A    between atoms: N_19  and  C_20
REMARK                            x       y       z     vdW  Elec       q    Type
REMARK                         _______ _______ _______ _____ _____    ______ ____
ROOT
ATOM      1  C   UNL     1       3.522   2.295  19.477  0.00  0.00    +0.000 C 
ATOM      2  N   UNL     1       3.203   3.633  18.980  0.00  0.00    +0.000 N 
ATOM      3  C   UNL     1       1.905   3.842  18.561  0.00  0.00    +0.000 C 
ATOM      4  O   UNL     1       1.019   2.987  18.653  0.00  0.00    +0.000 OA
ATOM      5  C   UNL     1       1.591   5.137  17.879  0.00  0.00    +0.000 C 
ATOM      6  C   UNL     1       2.585   6.257  18.115  0.00  0.00    +0.000 C 
ATOM      7  N   UNL     1       3.913   5.845  18.561  0.00  0.00    +0.000 NA
ATOM      8  C   UNL     1       4.142   4.648  18.947  0.00  0.00    +0.000 C 
ENDROOT
BRANCH   6   9
ATOM      9  C   UNL     1       2.017   7.352  19.006  0.00  0.00    +0.000 A 
ATOM     10  C   UNL     1       1.743   7.126  20.363  0.00  0.00    +0.000 A 
ATOM     11  C   UNL     1       1.189   8.136  21.153  0.00  0.00    +0.000 A 
ATOM     12  C   UNL     1       0.910   9.386  20.600  0.00  0.00    +0.000 A 
ATOM     13  C   UNL     1       1.188   9.628  19.257  0.00  0.00    +0.000 A 
ATOM     14  C   UNL     1       1.738   8.619  18.465  0.00  0.00    +0.000 A 
ENDBRANCH   6   9
BRANCH   8  15
ATOM     15  S   UNL     1       5.761   4.236  19.497  0.00  0.00    +0.000 S 
BRANCH  15  16
ATOM     16  C   UNL     1       6.776   5.599  18.855  0.00  0.00    +0.000 C 
BRANCH  16  17
ATOM     17  C   UNL     1       6.904   5.500  17.368  0.00  0.00    +0.000 A 
ATOM     18  C   UNL     1       6.331   4.610  16.480  0.00  0.00    +0.000 A 
ATOM     19  N   UNL     1       6.795   4.980  15.236  0.00  0.00    +0.000 N 
ATOM     20  N   UNL     1       7.637   6.035  15.378  0.00  0.00    +0.000 NA
ATOM     21  N   UNL     1       7.701   6.360  16.663  0.00  0.00    +0.000 NA
BRANCH  19  22
ATOM     22  C   UNL     1       6.499   4.413  13.968  0.00  0.00    +0.000 A 
ATOM     23  C   UNL     1       7.447   4.435  12.931  0.00  0.00    +0.000 A 
ATOM     24  C   UNL     1       7.143   3.867  11.689  0.00  0.00    +0.000 A 
ATOM     25  C   UNL     1       5.898   3.281  11.471  0.00  0.00    +0.000 A 
ATOM     26  C   UNL     1       4.953   3.256  12.493  0.00  0.00    +0.000 A 
ATOM     27  C   UNL     1       5.249   3.815  13.740  0.00  0.00    +0.000 A 
ENDBRANCH  19  22
ENDBRANCH  16  17
ENDBRANCH  15  16
ENDBRANCH   8  15
TORSDOF 5
ENDMDL
MODEL 5
REMARK VINA RESULT:      -7.9      2.991      8.538
REMARK  Name = 
REMARK  6 active torsions:
REMARK  status: ('A' for Active; 'I' for Inactive)
REMARK    1  A    between atoms: C_1  and  N_2
REMARK    2  A    between atoms: C_6  and  C_7
REMARK    3  A    between atoms: C_14  and  S_15
REMARK    4  A    between atoms: S_15  and  C_16
REMARK    5  A    between atoms: C_16  and  C_17
REMARK    6  A    between atoms: N_19  and  C_20
REMARK                            x       y       z     vdW  Elec       q    Type
REMARK                         _______ _______ _______ _____ _____    ______ ____
ROOT
ATOM      1  C   UNL     1       0.839   3.826  20.013  0.00  0.00    +0.000 C 
ATOM      2  N   UNL     1       2.270   3.876  19.716  0.00  0.00    +0.000 N 
ATOM      3  C   UNL     1       2.851   2.702  19.281  0.00  0.00    +0.000 C 
ATOM      4  O   UNL     1       2.210   1.667  19.076  0.00  0.00    +0.000 OA
ATOM      5  C   UNL     1       4.340   2.669  19.142  0.00  0.00    +0.000 C 
ATOM      6  C   UNL     1       5.018   4.022  19.051  0.00  0.00    +0.000 C 
ATOM      7  N   UNL     1       4.249   5.154  19.559  0.00  0.00    +0.000 NA
ATOM      8  C   UNL     1       3.007   5.040  19.842  0.00  0.00    +0.000 C 
ENDROOT
BRANCH   6   9
ATOM      9  C   UNL     1       5.559   4.302  17.657  0.00  0.00    +0.000 A 
ATOM     10  C   UNL     1       6.871   4.756  17.456  0.00  0.00    +0.000 A 
ATOM     11  C   UNL     1       7.335   5.040  16.169  0.00  0.00    +0.000 A 
ATOM     12  C   UNL     1       6.498   4.865  15.067  0.00  0.00    +0.000 A 
ATOM     13  C   UNL     1       5.197   4.403  15.250  0.00  0.00    +0.000 A 
ATOM     14  C   UNL     1       4.731   4.123  16.536  0.00  0.00    +0.000 A 
ENDBRANCH   6   9
BRANCH   8  15
ATOM     15  S   UNL     1       2.142   6.457  20.422  0.00  0.00    +0.000 S 
BRANCH  15  16
ATOM     16  C   UNL     1       2.145   7.562  18.981  0.00  0.00    +0.000 C 
BRANCH  16  17
ATOM     17  C   UNL     1       1.583   8.899  19.347  0.00  0.00    +0.000 A 
ATOM     18  C   UNL     1       1.016   9.336  20.528  0.00  0.00    +0.000 A 
ATOM     19  N   UNL     1       0.670  10.652  20.307  0.00  0.00    +0.000 N 
ATOM     20  N   UNL     1       0.992  10.981  19.030  0.00  0.00    +0.000 NA
ATOM     21  N   UNL     1       1.552   9.929  18.446  0.00  0.00    +0.000 NA
BRANCH  19  22
ATOM     22  C   UNL     1       0.073  11.580  21.200  0.00  0.00    +0.000 A 
ATOM     23  C   UNL     1       0.433  12.938  21.174  0.00  0.00    +0.000 A 
ATOM     24  C   UNL     1      -0.168  13.842  22.058  0.00  0.00    +0.000 A 
ATOM     25  C   UNL     1      -1.123  13.401  22.971  0.00  0.00    +0.000 A 
ATOM     26  C   UNL     1      -1.485  12.056  23.004  0.00  0.00    +0.000 A 
ATOM     27  C   UNL     1      -0.895  11.146  22.121  0.00  0.00    +0.000 A 
ENDBRANCH  19  22
ENDBRANCH  16  17
ENDBRANCH  15  16
ENDBRANCH   8  15
TORSDOF 5
ENDMDL
MODEL 6
REMARK VINA RESULT:      -7.9      2.727      8.903
REMARK  Name = 
REMARK  6 active torsions:
REMARK  status: ('A' for Active; 'I' for Inactive)
REMARK    1  A    between atoms: C_1  and  N_2
REMARK    2  A    between atoms: C_6  and  C_7
REMARK    3  A    between atoms: C_14  and  S_15
REMARK    4  A    between atoms: S_15  and  C_16
REMARK    5  A    between atoms: C_16  and  C_17
REMARK    6  A    between atoms: N_19  and  C_20
REMARK                            x       y       z     vdW  Elec       q    Type
REMARK                         _______ _______ _______ _____ _____    ______ ____
ROOT
ATOM      1  C   UNL     1       5.362   4.621  19.459  0.00  0.00    +0.000 C 
ATOM      2  N   UNL     1       5.706   5.095  18.119  0.00  0.00    +0.000 N 
ATOM      3  C   UNL     1       7.019   4.936  17.726  0.00  0.00    +0.000 C 
ATOM      4  O   UNL     1       7.866   4.364  18.419  0.00  0.00    +0.000 OA
ATOM      5  C   UNL     1       7.445   5.570  16.440  0.00  0.00    +0.000 C 
ATOM      6  C   UNL     1       6.324   5.928  15.484  0.00  0.00    +0.000 C 
ATOM      7  N   UNL     1       4.996   6.052  16.080  0.00  0.00    +0.000 NA
ATOM      8  C   UNL     1       4.765   5.656  17.274  0.00  0.00    +0.000 C 
ENDROOT
BRANCH   6   9
ATOM      9  C   UNL     1       6.300   5.024  14.261  0.00  0.00    +0.000 A 
ATOM     10  C   UNL     1       5.229   4.152  14.014  0.00  0.00    +0.000 A 
ATOM     11  C   UNL     1       5.246   3.305  12.902  0.00  0.00    +0.000 A 
ATOM     12  C   UNL     1       6.326   3.326  12.021  0.00  0.00    +0.000 A 
ATOM     13  C   UNL     1       7.390   4.194  12.247  0.00  0.00    +0.000 A 
ATOM     14  C   UNL     1       7.378   5.038  13.359  0.00  0.00    +0.000 A 
ENDBRANCH   6   9
BRANCH   8  15
ATOM     15  S   UNL     1       3.133   5.812  17.910  0.00  0.00    +0.000 S 
BRANCH  15  16
ATOM     16  C   UNL     1       2.813   7.596  17.798  0.00  0.00    +0.000 C 
BRANCH  16  17
ATOM     17  C   UNL     1       2.057   8.069  18.999  0.00  0.00    +0.000 A 
ATOM     18  C   UNL     1       1.333   9.228  19.197  0.00  0.00    +0.000 A 
ATOM     19  N   UNL     1       0.851   9.145  20.486  0.00  0.00    +0.000 N 
ATOM     20  N   UNL     1       1.295   7.992  21.047  0.00  0.00    +0.000 NA
ATOM     21  N   UNL     1       2.018   7.332  20.151  0.00  0.00    +0.000 NA
BRANCH  19  22
ATOM     22  C   UNL     1       0.026  10.062  21.191  0.00  0.00    +0.000 A 
ATOM     23  C   UNL     1      -0.437  11.235  20.573  0.00  0.00    +0.000 A 
ATOM     24  C   UNL     1      -1.253  12.127  21.279  0.00  0.00    +0.000 A 
ATOM     25  C   UNL     1      -1.606  11.860  22.600  0.00  0.00    +0.000 A 
ATOM     26  C   UNL     1      -1.150  10.699  23.221  0.00  0.00    +0.000 A 
ATOM     27  C   UNL     1      -0.339   9.798  22.521  0.00  0.00    +0.000 A 
ENDBRANCH  19  22
ENDBRANCH  16  17
ENDBRANCH  15  16
ENDBRANCH   8  15
TORSDOF 5
ENDMDL
MODEL 7
REMARK VINA RESULT:      -7.8      3.067      8.642
REMARK  Name = 
REMARK  6 active torsions:
REMARK  status: ('A' for Active; 'I' for Inactive)
REMARK    1  A    between atoms: C_1  and  N_2
REMARK    2  A    between atoms: C_6  and  C_7
REMARK    3  A    between atoms: C_14  and  S_15
REMARK    4  A    between atoms: S_15  and  C_16
REMARK    5  A    between atoms: C_16  and  C_17
REMARK    6  A    between atoms: N_19  and  C_20
REMARK                            x       y       z     vdW  Elec       q    Type
REMARK                         _______ _______ _______ _____ _____    ______ ____
ROOT
ATOM      1  C   UNL     1       0.743   3.849  20.048  0.00  0.00    +0.000 C 
ATOM      2  N   UNL     1       2.177   3.906  19.763  0.00  0.00    +0.000 N 
ATOM      3  C   UNL     1       2.765   2.737  19.325  0.00  0.00    +0.000 C 
ATOM      4  O   UNL     1       2.129   1.701  19.107  0.00  0.00    +0.000 OA
ATOM      5  C   UNL     1       4.256   2.709  19.200  0.00  0.00    +0.000 C 
ATOM      6  C   UNL     1       4.930   4.065  19.124  0.00  0.00    +0.000 C 
ATOM      7  N   UNL     1       4.153   5.191  19.634  0.00  0.00    +0.000 NA
ATOM      8  C   UNL     1       2.909   5.071  19.904  0.00  0.00    +0.000 C 
ENDROOT
BRANCH   6   9
ATOM      9  C   UNL     1       5.483   4.357  17.737  0.00  0.00    +0.000 A 
ATOM     10  C   UNL     1       4.659   4.348  16.602  0.00  0.00    +0.000 A 
ATOM     11  C   UNL     1       5.195   4.583  15.334  0.00  0.00    +0.000 A 
ATOM     12  C   UNL     1       6.557   4.839  15.184  0.00  0.00    +0.000 A 
ATOM     13  C   UNL     1       7.386   4.863  16.304  0.00  0.00    +0.000 A 
ATOM     14  C   UNL     1       6.853   4.624  17.571  0.00  0.00    +0.000 A 
ENDBRANCH   6   9
BRANCH   8  15
ATOM     15  S   UNL     1       2.035   6.481  20.487  0.00  0.00    +0.000 S 
BRANCH  15  16
ATOM     16  C   UNL     1       2.161   7.648  19.102  0.00  0.00    +0.000 C 
BRANCH  16  17
ATOM     17  C   UNL     1       1.437   8.918  19.420  0.00  0.00    +0.000 A 
ATOM     18  C   UNL     1       1.171   9.512  20.638  0.00  0.00    +0.000 A 
ATOM     19  N   UNL     1       0.473  10.663  20.342  0.00  0.00    +0.000 N 
ATOM     20  N   UNL     1       0.302  10.739  18.998  0.00  0.00    +0.000 NA
ATOM     21  N   UNL     1       0.890   9.692  18.433  0.00  0.00    +0.000 NA
BRANCH  19  22
ATOM     22  C   UNL     1      -0.026  11.657  21.226  0.00  0.00    +0.000 A 
ATOM     23  C   UNL     1      -0.995  11.340  22.192  0.00  0.00    +0.000 A 
ATOM     24  C   UNL     1      -1.473  12.329  23.059  0.00  0.00    +0.000 A 
ATOM     25  C   UNL     1      -0.996  13.634  22.967  0.00  0.00    +0.000 A 
ATOM     26  C   UNL     1      -0.036  13.957  22.011  0.00  0.00    +0.000 A 
ATOM     27  C   UNL     1       0.453  12.974  21.144  0.00  0.00    +0.000 A 
ENDBRANCH  19  22
ENDBRANCH  16  17
ENDBRANCH  15  16
ENDBRANCH   8  15
TORSDOF 5
ENDMDL
MODEL 8
REMARK VINA RESULT:      -7.8      1.163      1.295
REMARK  Name = 
REMARK  6 active torsions:
REMARK  status: ('A' for Active; 'I' for Inactive)
REMARK    1  A    between atoms: C_1  and  N_2
REMARK    2  A    between atoms: C_6  and  C_7
REMARK    3  A    between atoms: C_14  and  S_15
REMARK    4  A    between atoms: S_15  and  C_16
REMARK    5  A    between atoms: C_16  and  C_17
REMARK    6  A    between atoms: N_19  and  C_20
REMARK                            x       y       z     vdW  Elec       q    Type
REMARK                         _______ _______ _______ _____ _____    ______ ____
ROOT
ATOM      1  C   UNL     1       4.533   2.777  19.823  0.00  0.00    +0.000 C 
ATOM      2  N   UNL     1       3.936   3.947  19.179  0.00  0.00    +0.000 N 
ATOM      3  C   UNL     1       2.582   3.885  18.921  0.00  0.00    +0.000 C 
ATOM      4  O   UNL     1       1.871   2.936  19.267  0.00  0.00    +0.000 OA
ATOM      5  C   UNL     1       1.976   4.981  18.102  0.00  0.00    +0.000 C 
ATOM      6  C   UNL     1       2.786   6.261  18.023  0.00  0.00    +0.000 C 
ATOM      7  N   UNL     1       4.207   6.134  18.333  0.00  0.00    +0.000 NA
ATOM      8  C   UNL     1       4.679   5.069  18.860  0.00  0.00    +0.000 C 
ENDROOT
BRANCH   6   9
ATOM      9  C   UNL     1       2.147   7.396  18.808  0.00  0.00    +0.000 A 
ATOM     10  C   UNL     1       1.808   8.612  18.196  0.00  0.00    +0.000 A 
ATOM     11  C   UNL     1       1.254   9.653  18.945  0.00  0.00    +0.000 A 
ATOM     12  C   UNL     1       1.023   9.490  20.310  0.00  0.00    +0.000 A 
ATOM     13  C   UNL     1       1.343   8.284  20.929  0.00  0.00    +0.000 A 
ATOM     14  C   UNL     1       1.901   7.244  20.183  0.00  0.00    +0.000 A 
ENDBRANCH   6   9
BRANCH   8  15
ATOM     15  S   UNL     1       6.397   5.004  19.231  0.00  0.00    +0.000 S 
BRANCH  15  16
ATOM     16  C   UNL     1       7.121   6.172  18.045  0.00  0.00    +0.000 C 
BRANCH  16  17
ATOM     17  C   UNL     1       6.656   5.866  16.657  0.00  0.00    +0.000 A 
ATOM     18  C   UNL     1       6.902   4.768  15.856  0.00  0.00    +0.000 A 
ATOM     19  N   UNL     1       6.228   5.012  14.679  0.00  0.00    +0.000 N 
ATOM     20  N   UNL     1       5.625   6.225  14.762  0.00  0.00    +0.000 NA
ATOM     21  N   UNL     1       5.872   6.743  15.959  0.00  0.00    +0.000 NA
BRANCH  19  22
ATOM     22  C   UNL     1       6.128   4.195  13.521  0.00  0.00    +0.000 A 
ATOM     23  C   UNL     1       7.279   3.774  12.836  0.00  0.00    +0.000 A 
ATOM     24  C   UNL     1       7.164   2.964  11.700  0.00  0.00    +0.000 A 
ATOM     25  C   UNL     1       5.909   2.575  11.239  0.00  0.00    +0.000 A 
ATOM     26  C   UNL     1       4.762   2.989  11.912  0.00  0.00    +0.000 A 
ATOM     27  C   UNL     1       4.866   3.793  13.053  0.00  0.00    +0.000 A 
ENDBRANCH  19  22
ENDBRANCH  16  17
ENDBRANCH  15  16
ENDBRANCH   8  15
TORSDOF 5
ENDMDL
MODEL 9
REMARK VINA RESULT:      -7.8      3.255      8.367
REMARK  Name = 
REMARK  6 active torsions:
REMARK  status: ('A' for Active; 'I' for Inactive)
REMARK    1  A    between atoms: C_1  and  N_2
REMARK    2  A    between atoms: C_6  and  C_7
REMARK    3  A    between atoms: C_14  and  S_15
REMARK    4  A    between atoms: S_15  and  C_16
REMARK    5  A    between atoms: C_16  and  C_17
REMARK    6  A    between atoms: N_19  and  C_20
REMARK                            x       y       z     vdW  Elec       q    Type
REMARK                         _______ _______ _______ _____ _____    ______ ____
ROOT
ATOM      1  C   UNL     1       6.535   7.006  17.753  0.00  0.00    +0.000 C 
ATOM      2  N   UNL     1       5.464   6.010  17.773  0.00  0.00    +0.000 N 
ATOM      3  C   UNL     1       5.849   4.693  17.913  0.00  0.00    +0.000 C 
ATOM      4  O   UNL     1       7.021   4.346  18.085  0.00  0.00    +0.000 OA
ATOM      5  C   UNL     1       4.800   3.638  17.754  0.00  0.00    +0.000 C 
ATOM      6  C   UNL     1       3.368   4.112  17.909  0.00  0.00    +0.000 C 
ATOM      7  N   UNL     1       3.149   5.545  17.729  0.00  0.00    +0.000 NA
ATOM      8  C   UNL     1       4.130   6.364  17.678  0.00  0.00    +0.000 C 
ENDROOT
BRANCH   6   9
ATOM      9  C   UNL     1       2.732   3.613  19.198  0.00  0.00    +0.000 A 
ATOM     10  C   UNL     1       3.496   3.007  20.206  0.00  0.00    +0.000 A 
ATOM     11  C   UNL     1       2.886   2.524  21.366  0.00  0.00    +0.000 A 
ATOM     12  C   UNL     1       1.508   2.649  21.538  0.00  0.00    +0.000 A 
ATOM     13  C   UNL     1       0.738   3.259  20.551  0.00  0.00    +0.000 A 
ATOM     14  C   UNL     1       1.345   3.738  19.389  0.00  0.00    +0.000 A 
ENDBRANCH   6   9
BRANCH   8  15
ATOM     15  S   UNL     1       3.785   8.078  17.488  0.00  0.00    +0.000 S 
BRANCH  15  16
ATOM     16  C   UNL     1       1.973   8.148  17.581  0.00  0.00    +0.000 C 
BRANCH  16  17
ATOM     17  C   UNL     1       1.537   8.721  18.892  0.00  0.00    +0.000 A 
ATOM     18  C   UNL     1       0.879   9.902  19.175  0.00  0.00    +0.000 A 
ATOM     19  N   UNL     1       0.734   9.924  20.546  0.00  0.00    +0.000 N 
ATOM     20  N   UNL     1       1.311   8.811  21.065  0.00  0.00    +0.000 NA
ATOM     21  N   UNL     1       1.791   8.075  20.071  0.00  0.00    +0.000 NA
BRANCH  19  22
ATOM     22  C   UNL     1       0.107  10.903  21.362  0.00  0.00    +0.000 A 
ATOM     23  C   UNL     1       0.342  12.272  21.153  0.00  0.00    +0.000 A 
ATOM     24  C   UNL     1      -0.287  13.225  21.962  0.00  0.00    +0.000 A 
ATOM     25  C   UNL     1      -1.147  12.822  22.981  0.00  0.00    +0.000 A 
ATOM     26  C   UNL     1      -1.386  11.467  23.195  0.00  0.00    +0.000 A 
ATOM     27  C   UNL     1      -0.766  10.507  22.388  0.00  0.00    +0.000 A 
ENDBRANCH  19  22
ENDBRANCH  16  17
ENDBRANCH  15  16
ENDBRANCH   8  15
TORSDOF 5
ENDMDL
