MODEL 1
REMARK VINA RESULT:      -8.0      0.000      0.000
REMARK  Name = 
REMARK  9 active torsions:
REMARK  status: ('A' for Active; 'I' for Inactive)
REMARK    1  A    between atoms: C_1  and  O_2
REMARK    2  A    between atoms: O_2  and  C_3
REMARK    3  A    between atoms: C_5  and  C_6
REMARK    4  A    between atoms: C_12  and  C_13
REMARK    5  A    between atoms: C_13  and  C_15
REMARK    6  A    between atoms: C_18  and  N_19
REMARK    7  A    between atoms: N_19  and  C_20
REMARK    8  A    between atoms: C_20  and  C_21
REMARK    9  A    between atoms: C_32  and  O_33
REMARK                            x       y       z     vdW  Elec       q    Type
REMARK                         _______ _______ _______ _____ _____    ______ ____
ROOT
ATOM      1  C   UNL     1       1.621   8.155  20.251  0.00  0.00    +0.000 A 
ATOM      2  C   UNL     1       1.490   8.080  21.631  0.00  0.00    +0.000 A 
ATOM      3  C   UNL     1       0.940   9.154  22.343  0.00  0.00    +0.000 A 
ATOM      4  C   UNL     1       0.484  10.312  21.726  0.00  0.00    +0.000 A 
ATOM      5  N   UNL     1       0.008  11.284  22.516  0.00  0.00    +0.000 NA
ATOM      6  C   UNL     1      -0.438  12.417  21.940  0.00  0.00    +0.000 A 
ATOM      7  C   UNL     1      -0.485  12.626  20.569  0.00  0.00    +0.000 A 
ATOM      8  C   UNL     1       0.014  11.624  19.699  0.00  0.00    +0.000 A 
ATOM      9  C   UNL     1       0.543  10.427  20.315  0.00  0.00    +0.000 A 
ATOM     10  C   UNL     1       1.162   9.336  19.648  0.00  0.00    +0.000 A 
ENDROOT
BRANCH   1  13
ATOM     11  C   UNL     1       2.581   4.711  18.898  0.00  0.00    +0.000 A 
ATOM     12  C   UNL     1       1.982   5.725  19.666  0.00  0.00    +0.000 A 
ATOM     13  C   UNL     1       2.217   7.087  19.415  0.00  0.00    +0.000 A 
ATOM     14  C   UNL     1       3.085   7.404  18.353  0.00  0.00    +0.000 A 
ATOM     15  C   UNL     1       3.683   6.408  17.584  0.00  0.00    +0.000 A 
ATOM     16 CL   UNL     1       4.752   6.869  16.307  0.00  0.00    +0.000 Cl
ATOM     17  C   UNL     1       3.424   5.061  17.839  0.00  0.00    +0.000 A 
BRANCH  11  19
ATOM     18  C   UNL     1       1.055   3.347  20.095  0.00  0.00    +0.000 C 
ATOM     19  O   UNL     1       2.216   3.446  19.278  0.00  0.00    +0.000 OA
ENDBRANCH  11  19
BRANCH  17  20
ATOM     20  O   UNL     1       3.977   4.106  17.028  0.00  0.00    +0.000 OA
ATOM     21  H   UNL     1       4.786   3.781  17.465  0.00  0.00    +0.000 HD
ENDBRANCH  17  20
ENDBRANCH   1  13
BRANCH   7  22
ATOM     22  C   UNL     1      -1.027  13.916  20.062  0.00  0.00    +0.000 C 
ATOM     23  O   UNL     1      -2.213  14.188  20.216  0.00  0.00    +0.000 OA
BRANCH  22  24
ATOM     24  C   UNL     1      -0.115  14.884  19.361  0.00  0.00    +0.000 C 
ATOM     25  C   UNL     1      -0.442  16.361  19.313  0.00  0.00    +0.000 C 
ATOM     26  C   UNL     1       0.682  15.879  20.182  0.00  0.00    +0.000 C 
ENDBRANCH  22  24
ENDBRANCH   7  22
BRANCH   8  27
ATOM     27  N   UNL     1      -0.187  11.812  18.312  0.00  0.00    +0.000 N 
ATOM     28  H   UNL     1       0.555  11.360  17.762  0.00  0.00    +0.000 HD
BRANCH  27  29
ATOM     29  C   UNL     1      -1.471  11.903  17.630  0.00  0.00    +0.000 C 
BRANCH  29  30
ATOM     30  C   UNL     1      -2.298  10.611  17.668  0.00  0.00    +0.000 C 
ATOM     31  C   UNL     1      -2.212   9.789  16.375  0.00  0.00    +0.000 C 
ATOM     32  C   UNL     1      -3.058  10.356  15.233  0.00  0.00    +0.000 C 
ATOM     33  N   UNL     1      -4.445  10.602  15.631  0.00  0.00    +0.000 NA
ATOM     34  C   UNL     1      -4.512  11.526  16.759  0.00  0.00    +0.000 C 
ATOM     35  C   UNL     1      -3.775  10.956  17.973  0.00  0.00    +0.000 C 
ATOM     36  H   UNL     1      -4.875   9.716  15.902  0.00  0.00    +0.000 HD
ENDBRANCH  29  30
ENDBRANCH  27  29
ENDBRANCH   8  27
TORSDOF 8
ENDMDL
MODEL 2
REMARK VINA RESULT:      -7.9      0.863      1.278
REMARK  Name = 
REMARK  9 active torsions:
REMARK  status: ('A' for Active; 'I' for Inactive)
REMARK    1  A    between atoms: C_1  and  O_2
REMARK    2  A    between atoms: O_2  and  C_3
REMARK    3  A    between atoms: C_5  and  C_6
REMARK    4  A    between atoms: C_12  and  C_13
REMARK    5  A    between atoms: C_13  and  C_15
REMARK    6  A    between atoms: C_18  and  N_19
REMARK    7  A    between atoms: N_19  and  C_20
REMARK    8  A    between atoms: C_20  and  C_21
REMARK    9  A    between atoms: C_32  and  O_33
REMARK                            x       y       z     vdW  Elec       q    Type
REMARK                         _______ _______ _______ _____ _____    ______ ____
ROOT
ATOM      1  C   UNL     1       1.643   8.123  20.210  0.00  0.00    +0.000 A 
ATOM      2  C   UNL     1       1.473   7.978  21.580  0.00  0.00    +0.000 A 
ATOM      3  C   UNL     1       0.894   9.011  22.328  0.00  0.00    +0.000 A 
ATOM      4  C   UNL     1       0.447  10.196  21.756  0.00  0.00    +0.000 A 
ATOM      5  N   UNL     1      -0.059  11.124  22.580  0.00  0.00    +0.000 NA
ATOM      6  C   UNL     1      -0.497  12.282  22.048  0.00  0.00    +0.000 A 
ATOM      7  C   UNL     1      -0.506  12.559  20.688  0.00  0.00    +0.000 A 
ATOM      8  C   UNL     1       0.026  11.605  19.785  0.00  0.00    +0.000 A 
ATOM      9  C   UNL     1       0.546  10.381  20.356  0.00  0.00    +0.000 A 
ATOM     10  C   UNL     1       1.193   9.329  19.653  0.00  0.00    +0.000 A 
ENDROOT
BRANCH   1  13
ATOM     11  C   UNL     1       2.730   4.757  18.758  0.00  0.00    +0.000 A 
ATOM     12  C   UNL     1       2.099   5.726  19.560  0.00  0.00    +0.000 A 
ATOM     13  C   UNL     1       2.272   7.102  19.339  0.00  0.00    +0.000 A 
ATOM     14  C   UNL     1       3.110   7.482  18.274  0.00  0.00    +0.000 A 
ATOM     15  C   UNL     1       3.738   6.531  17.471  0.00  0.00    +0.000 A 
ATOM     16 CL   UNL     1       4.767   7.068  16.192  0.00  0.00    +0.000 Cl
ATOM     17  C   UNL     1       3.540   5.168  17.697  0.00  0.00    +0.000 A 
BRANCH  11  19
ATOM     18  C   UNL     1       1.191   2.958  18.620  0.00  0.00    +0.000 C 
ATOM     19  O   UNL     1       2.425   3.469  19.113  0.00  0.00    +0.000 OA
ENDBRANCH  11  19
BRANCH  17  20
ATOM     20  O   UNL     1       4.122   4.258  16.854  0.00  0.00    +0.000 OA
ATOM     21  H   UNL     1       3.449   3.992  16.199  0.00  0.00    +0.000 HD
ENDBRANCH  17  20
ENDBRANCH   1  13
BRANCH   7  22
ATOM     22  C   UNL     1      -1.043  13.869  20.231  0.00  0.00    +0.000 C 
ATOM     23  O   UNL     1      -0.286  14.718  19.772  0.00  0.00    +0.000 OA
BRANCH  22  24
ATOM     24  C   UNL     1      -2.516  14.148  20.335  0.00  0.00    +0.000 C 
ATOM     25  C   UNL     1      -3.401  13.321  21.243  0.00  0.00    +0.000 C 
ATOM     26  C   UNL     1      -3.071  14.735  21.618  0.00  0.00    +0.000 C 
ENDBRANCH  22  24
ENDBRANCH   7  22
BRANCH   8  27
ATOM     27  N   UNL     1      -0.136  11.861  18.403  0.00  0.00    +0.000 N 
ATOM     28  H   UNL     1       0.635  11.457  17.856  0.00  0.00    +0.000 HD
BRANCH  27  29
ATOM     29  C   UNL     1      -1.399  11.957  17.685  0.00  0.00    +0.000 C 
BRANCH  29  30
ATOM     30  C   UNL     1      -2.262  10.689  17.755  0.00  0.00    +0.000 C 
ATOM     31  C   UNL     1      -2.294   9.895  16.442  0.00  0.00    +0.000 C 
ATOM     32  C   UNL     1      -3.201  10.514  15.377  0.00  0.00    +0.000 C 
ATOM     33  N   UNL     1      -4.548  10.792  15.878  0.00  0.00    +0.000 NA
ATOM     34  C   UNL     1      -4.505  11.691  17.027  0.00  0.00    +0.000 C 
ATOM     35  C   UNL     1      -3.702  11.071  18.172  0.00  0.00    +0.000 C 
ATOM     36  H   UNL     1      -4.985   9.913  16.160  0.00  0.00    +0.000 HD
ENDBRANCH  29  30
ENDBRANCH  27  29
ENDBRANCH   8  27
TORSDOF 8
ENDMDL
MODEL 3
REMARK VINA RESULT:      -7.8      1.451      2.343
REMARK  Name = 
REMARK  9 active torsions:
REMARK  status: ('A' for Active; 'I' for Inactive)
REMARK    1  A    between atoms: C_1  and  O_2
REMARK    2  A    between atoms: O_2  and  C_3
REMARK    3  A    between atoms: C_5  and  C_6
REMARK    4  A    between atoms: C_12  and  C_13
REMARK    5  A    between atoms: C_13  and  C_15
REMARK    6  A    between atoms: C_18  and  N_19
REMARK    7  A    between atoms: N_19  and  C_20
REMARK    8  A    between atoms: C_20  and  C_21
REMARK    9  A    between atoms: C_32  and  O_33
REMARK                            x       y       z     vdW  Elec       q    Type
REMARK                         _______ _______ _______ _____ _____    ______ ____
ROOT
ATOM      1  C   UNL     1       1.717   8.016  20.113  0.00  0.00    +0.000 A 
ATOM      2  C   UNL     1       1.579   7.848  21.484  0.00  0.00    +0.000 A 
ATOM      3  C   UNL     1       0.992   8.858  22.259  0.00  0.00    +0.000 A 
ATOM      4  C   UNL     1       0.505  10.039  21.713  0.00  0.00    +0.000 A 
ATOM      5  N   UNL     1      -0.005  10.943  22.560  0.00  0.00    +0.000 NA
ATOM      6  C   UNL     1      -0.481  12.098  22.053  0.00  0.00    +0.000 A 
ATOM      7  C   UNL     1      -0.525  12.393  20.698  0.00  0.00    +0.000 A 
ATOM      8  C   UNL     1       0.010  11.464  19.771  0.00  0.00    +0.000 A 
ATOM      9  C   UNL     1       0.570  10.246  20.314  0.00  0.00    +0.000 A 
ATOM     10  C   UNL     1       1.226   9.219  19.583  0.00  0.00    +0.000 A 
ENDROOT
BRANCH   1  13
ATOM     11  C   UNL     1       3.932   6.440  17.425  0.00  0.00    +0.000 A 
ATOM     12  C   UNL     1       3.361   7.376  18.306  0.00  0.00    +0.000 A 
ATOM     13  C   UNL     1       2.351   7.022  19.216  0.00  0.00    +0.000 A 
ATOM     14  C   UNL     1       1.928   5.680  19.216  0.00  0.00    +0.000 A 
ATOM     15  C   UNL     1       2.489   4.743  18.350  0.00  0.00    +0.000 A 
ATOM     16 CL   UNL     1       1.908   3.116  18.391  0.00  0.00    +0.000 Cl
ATOM     17  C   UNL     1       3.502   5.111  17.464  0.00  0.00    +0.000 A 
BRANCH  11  19
ATOM     18  C   UNL     1       6.237   6.929  17.154  0.00  0.00    +0.000 C 
ATOM     19  O   UNL     1       4.915   6.967  16.628  0.00  0.00    +0.000 OA
ENDBRANCH  11  19
BRANCH  17  20
ATOM     20  O   UNL     1       4.077   4.156  16.668  0.00  0.00    +0.000 OA
ATOM     21  H   UNL     1       4.175   3.346  17.204  0.00  0.00    +0.000 HD
ENDBRANCH  17  20
ENDBRANCH   1  13
BRANCH   7  22
ATOM     22  C   UNL     1      -1.102  13.696  20.271  0.00  0.00    +0.000 C 
ATOM     23  O   UNL     1      -0.369  14.587  19.857  0.00  0.00    +0.000 OA
BRANCH  22  24
ATOM     24  C   UNL     1      -2.587  13.916  20.349  0.00  0.00    +0.000 C 
ATOM     25  C   UNL     1      -3.466  12.992  21.165  0.00  0.00    +0.000 C 
ATOM     26  C   UNL     1      -3.200  14.385  21.654  0.00  0.00    +0.000 C 
ENDBRANCH  22  24
ENDBRANCH   7  22
BRANCH   8  27
ATOM     27  N   UNL     1      -0.187  11.735  18.397  0.00  0.00    +0.000 N 
ATOM     28  H   UNL     1       0.556  11.315  17.823  0.00  0.00    +0.000 HD
BRANCH  27  29
ATOM     29  C   UNL     1      -1.469  11.869  17.718  0.00  0.00    +0.000 C 
BRANCH  29  30
ATOM     30  C   UNL     1      -2.315  10.588  17.709  0.00  0.00    +0.000 C 
ATOM     31  C   UNL     1      -2.213   9.796  16.398  0.00  0.00    +0.000 C 
ATOM     32  C   UNL     1      -3.028  10.402  15.254  0.00  0.00    +0.000 C 
ATOM     33  N   UNL     1      -4.420  10.657  15.629  0.00  0.00    +0.000 NA
ATOM     34  C   UNL     1      -4.496  11.556  16.777  0.00  0.00    +0.000 C 
ATOM     35  C   UNL     1      -3.793  10.947  17.992  0.00  0.00    +0.000 C 
ATOM     36  H   UNL     1      -4.866   9.771  15.870  0.00  0.00    +0.000 HD
ENDBRANCH  29  30
ENDBRANCH  27  29
ENDBRANCH   8  27
TORSDOF 8
ENDMDL
MODEL 4
REMARK VINA RESULT:      -7.8      0.886      1.016
REMARK  Name = 
REMARK  9 active torsions:
REMARK  status: ('A' for Active; 'I' for Inactive)
REMARK    1  A    between atoms: C_1  and  O_2
REMARK    2  A    between atoms: O_2  and  C_3
REMARK    3  A    between atoms: C_5  and  C_6
REMARK    4  A    between atoms: C_12  and  C_13
REMARK    5  A    between atoms: C_13  and  C_15
REMARK    6  A    between atoms: C_18  and  N_19
REMARK    7  A    between atoms: N_19  and  C_20
REMARK    8  A    between atoms: C_20  and  C_21
REMARK    9  A    between atoms: C_32  and  O_33
REMARK                            x       y       z     vdW  Elec       q    Type
REMARK                         _______ _______ _______ _____ _____    ______ ____
ROOT
ATOM      1  C   UNL     1       0.886   8.611  21.082  0.00  0.00    +0.000 A 
ATOM      2  C   UNL     1       0.495   8.533  22.411  0.00  0.00    +0.000 A 
ATOM      3  C   UNL     1      -0.141   9.624  23.020  0.00  0.00    +0.000 A 
ATOM      4  C   UNL     1      -0.432  10.801  22.342  0.00  0.00    +0.000 A 
ATOM      5  N   UNL     1      -1.012  11.786  23.040  0.00  0.00    +0.000 NA
ATOM      6  C   UNL     1      -1.301  12.938  22.404  0.00  0.00    +0.000 A 
ATOM      7  C   UNL     1      -1.082  13.155  21.051  0.00  0.00    +0.000 A 
ATOM      8  C   UNL     1      -0.464  12.140  20.279  0.00  0.00    +0.000 A 
ATOM      9  C   UNL     1      -0.104  10.921  20.969  0.00  0.00    +0.000 A 
ATOM     10  C   UNL     1       0.590   9.811  20.417  0.00  0.00    +0.000 A 
ENDROOT
BRANCH   1  13
ATOM     11  C   UNL     1       2.315   5.184  20.173  0.00  0.00    +0.000 A 
ATOM     12  C   UNL     1       1.611   6.205  20.836  0.00  0.00    +0.000 A 
ATOM     13  C   UNL     1       1.590   7.526  20.360  0.00  0.00    +0.000 A 
ATOM     14  C   UNL     1       2.308   7.794  19.179  0.00  0.00    +0.000 A 
ATOM     15  C   UNL     1       3.007   6.790  18.511  0.00  0.00    +0.000 A 
ATOM     16 CL   UNL     1       3.880   7.195  17.077  0.00  0.00    +0.000 Cl
ATOM     17  C   UNL     1       3.002   5.480  18.992  0.00  0.00    +0.000 A 
BRANCH  11  19
ATOM     18  C   UNL     1       1.065   3.183  20.413  0.00  0.00    +0.000 C 
ATOM     19  O   UNL     1       2.202   3.959  20.776  0.00  0.00    +0.000 OA
ENDBRANCH  11  19
BRANCH  17  20
ATOM     20  O   UNL     1       3.646   4.503  18.282  0.00  0.00    +0.000 OA
ATOM     21  H   UNL     1       4.512   4.352  18.708  0.00  0.00    +0.000 HD
ENDBRANCH  17  20
ENDBRANCH   1  13
BRANCH   7  22
ATOM     22  C   UNL     1      -1.472  14.467  20.468  0.00  0.00    +0.000 C 
ATOM     23  O   UNL     1      -2.645  14.825  20.487  0.00  0.00    +0.000 OA
BRANCH  22  24
ATOM     24  C   UNL     1      -0.424  15.353  19.854  0.00  0.00    +0.000 C 
ATOM     25  C   UNL     1      -0.780  16.726  19.327  0.00  0.00    +0.000 C 
ATOM     26  C   UNL     1       0.016  16.601  20.592  0.00  0.00    +0.000 C 
ENDBRANCH  22  24
ENDBRANCH   7  22
BRANCH   8  27
ATOM     27  N   UNL     1      -0.393  12.342  18.881  0.00  0.00    +0.000 N 
ATOM     28  H   UNL     1       0.521  12.057  18.508  0.00  0.00    +0.000 HD
BRANCH  27  29
ATOM     29  C   UNL     1      -1.494  12.222  17.935  0.00  0.00    +0.000 C 
BRANCH  29  30
ATOM     30  C   UNL     1      -2.287  10.913  18.052  0.00  0.00    +0.000 C 
ATOM     31  C   UNL     1      -2.058   9.951  16.878  0.00  0.00    +0.000 C 
ATOM     32  C   UNL     1      -2.809  10.350  15.606  0.00  0.00    +0.000 C 
ATOM     33  N   UNL     1      -4.234  10.588  15.847  0.00  0.00    +0.000 NA
ATOM     34  C   UNL     1      -4.429  11.633  16.846  0.00  0.00    +0.000 C 
ATOM     35  C   UNL     1      -3.794  11.235  18.180  0.00  0.00    +0.000 C 
ATOM     36  H   UNL     1      -4.662   9.723  16.181  0.00  0.00    +0.000 HD
ENDBRANCH  29  30
ENDBRANCH  27  29
ENDBRANCH   8  27
TORSDOF 8
ENDMDL
MODEL 5
REMARK VINA RESULT:      -7.8      1.152      1.930
REMARK  Name = 
REMARK  9 active torsions:
REMARK  status: ('A' for Active; 'I' for Inactive)
REMARK    1  A    between atoms: C_1  and  O_2
REMARK    2  A    between atoms: O_2  and  C_3
REMARK    3  A    between atoms: C_5  and  C_6
REMARK    4  A    between atoms: C_12  and  C_13
REMARK    5  A    between atoms: C_13  and  C_15
REMARK    6  A    between atoms: C_18  and  N_19
REMARK    7  A    between atoms: N_19  and  C_20
REMARK    8  A    between atoms: C_20  and  C_21
REMARK    9  A    between atoms: C_32  and  O_33
REMARK                            x       y       z     vdW  Elec       q    Type
REMARK                         _______ _______ _______ _____ _____    ______ ____
ROOT
ATOM      1  C   UNL     1       1.595   8.171  20.285  0.00  0.00    +0.000 A 
ATOM      2  C   UNL     1       1.458   8.087  21.664  0.00  0.00    +0.000 A 
ATOM      3  C   UNL     1       0.899   9.154  22.380  0.00  0.00    +0.000 A 
ATOM      4  C   UNL     1       0.439  10.313  21.766  0.00  0.00    +0.000 A 
ATOM      5  N   UNL     1      -0.045  11.278  22.560  0.00  0.00    +0.000 NA
ATOM      6  C   UNL     1      -0.494  12.412  21.988  0.00  0.00    +0.000 A 
ATOM      7  C   UNL     1      -0.536  12.629  20.618  0.00  0.00    +0.000 A 
ATOM      8  C   UNL     1      -0.028  11.634  19.745  0.00  0.00    +0.000 A 
ATOM      9  C   UNL     1       0.504  10.436  20.357  0.00  0.00    +0.000 A 
ATOM     10  C   UNL     1       1.132   9.352  19.687  0.00  0.00    +0.000 A 
ENDROOT
BRANCH   1  13
ATOM     11  C   UNL     1       3.642   6.400  17.585  0.00  0.00    +0.000 A 
ATOM     12  C   UNL     1       3.100   7.404  18.408  0.00  0.00    +0.000 A 
ATOM     13  C   UNL     1       2.200   7.110  19.446  0.00  0.00    +0.000 A 
ATOM     14  C   UNL     1       1.857   5.758  19.636  0.00  0.00    +0.000 A 
ATOM     15  C   UNL     1       2.390   4.755  18.829  0.00  0.00    +0.000 A 
ATOM     16 CL   UNL     1       1.912   3.118  19.107  0.00  0.00    +0.000 Cl
ATOM     17  C   UNL     1       3.295   5.066  17.813  0.00  0.00    +0.000 A 
BRANCH  11  19
ATOM     18  C   UNL     1       5.884   6.931  17.025  0.00  0.00    +0.000 C 
ATOM     19  O   UNL     1       4.515   6.876  16.642  0.00  0.00    +0.000 OA
ENDBRANCH  11  19
BRANCH  17  20
ATOM     20  O   UNL     1       3.849   4.053  17.076  0.00  0.00    +0.000 OA
ATOM     21  H   UNL     1       4.044   4.408  16.187  0.00  0.00    +0.000 HD
ENDBRANCH  17  20
ENDBRANCH   1  13
BRANCH   7  22
ATOM     22  C   UNL     1      -1.082  13.918  20.116  0.00  0.00    +0.000 C 
ATOM     23  O   UNL     1      -2.274  14.175  20.249  0.00  0.00    +0.000 OA
BRANCH  22  24
ATOM     24  C   UNL     1      -0.168  14.906  19.446  0.00  0.00    +0.000 C 
ATOM     25  C   UNL     1      -0.509  16.380  19.412  0.00  0.00    +0.000 C 
ATOM     26  C   UNL     1       0.604  15.896  20.294  0.00  0.00    +0.000 C 
ENDBRANCH  22  24
ENDBRANCH   7  22
BRANCH   8  27
ATOM     27  N   UNL     1      -0.224  11.829  18.358  0.00  0.00    +0.000 N 
ATOM     28  H   UNL     1       0.515  11.370  17.809  0.00  0.00    +0.000 HD
BRANCH  27  29
ATOM     29  C   UNL     1      -1.505  11.937  17.674  0.00  0.00    +0.000 C 
BRANCH  29  30
ATOM     30  C   UNL     1      -2.367  10.669  17.745  0.00  0.00    +0.000 C 
ATOM     31  C   UNL     1      -2.244   9.772  16.506  0.00  0.00    +0.000 C 
ATOM     32  C   UNL     1      -3.021  10.293  15.296  0.00  0.00    +0.000 C 
ATOM     33  N   UNL     1      -4.419  10.594  15.613  0.00  0.00    +0.000 NA
ATOM     34  C   UNL     1      -4.512  11.583  16.683  0.00  0.00    +0.000 C 
ATOM     35  C   UNL     1      -3.847  11.066  17.960  0.00  0.00    +0.000 C 
ATOM     36  H   UNL     1      -4.883   9.736  15.913  0.00  0.00    +0.000 HD
ENDBRANCH  29  30
ENDBRANCH  27  29
ENDBRANCH   8  27
TORSDOF 8
ENDMDL
MODEL 6
REMARK VINA RESULT:      -7.8      1.326      1.604
REMARK  Name = 
REMARK  9 active torsions:
REMARK  status: ('A' for Active; 'I' for Inactive)
REMARK    1  A    between atoms: C_1  and  O_2
REMARK    2  A    between atoms: O_2  and  C_3
REMARK    3  A    between atoms: C_5  and  C_6
REMARK    4  A    between atoms: C_12  and  C_13
REMARK    5  A    between atoms: C_13  and  C_15
REMARK    6  A    between atoms: C_18  and  N_19
REMARK    7  A    between atoms: N_19  and  C_20
REMARK    8  A    between atoms: C_20  and  C_21
REMARK    9  A    between atoms: C_32  and  O_33
REMARK                            x       y       z     vdW  Elec       q    Type
REMARK                         _______ _______ _______ _____ _____    ______ ____
ROOT
ATOM      1  C   UNL     1       0.760   8.679  21.119  0.00  0.00    +0.000 A 
ATOM      2  C   UNL     1       0.320   8.553  22.430  0.00  0.00    +0.000 A 
ATOM      3  C   UNL     1      -0.319   9.629  23.062  0.00  0.00    +0.000 A 
ATOM      4  C   UNL     1      -0.564  10.839  22.424  0.00  0.00    +0.000 A 
ATOM      5  N   UNL     1      -1.152  11.804  23.142  0.00  0.00    +0.000 NA
ATOM      6  C   UNL     1      -1.398  12.987  22.546  0.00  0.00    +0.000 A 
ATOM      7  C   UNL     1      -1.126  13.257  21.212  0.00  0.00    +0.000 A 
ATOM      8  C   UNL     1      -0.499  12.263  20.420  0.00  0.00    +0.000 A 
ATOM      9  C   UNL     1      -0.185  11.009  21.070  0.00  0.00    +0.000 A 
ATOM     10  C   UNL     1       0.510   9.911  20.496  0.00  0.00    +0.000 A 
ENDROOT
BRANCH   1  13
ATOM     11  C   UNL     1       2.209   5.278  20.146  0.00  0.00    +0.000 A 
ATOM     12  C   UNL     1       1.499   6.282  20.828  0.00  0.00    +0.000 A 
ATOM     13  C   UNL     1       1.472   7.611  20.377  0.00  0.00    +0.000 A 
ATOM     14  C   UNL     1       2.189   7.907  19.203  0.00  0.00    +0.000 A 
ATOM     15  C   UNL     1       2.894   6.920  18.517  0.00  0.00    +0.000 A 
ATOM     16 CL   UNL     1       3.768   7.357  17.091  0.00  0.00    +0.000 Cl
ATOM     17  C   UNL     1       2.896   5.601  18.972  0.00  0.00    +0.000 A 
BRANCH  11  19
ATOM     18  C   UNL     1       1.030   3.223  20.266  0.00  0.00    +0.000 C 
ATOM     19  O   UNL     1       2.102   4.040  20.724  0.00  0.00    +0.000 OA
ENDBRANCH  11  19
BRANCH  17  20
ATOM     20  O   UNL     1       3.547   4.641  18.244  0.00  0.00    +0.000 OA
ATOM     21  H   UNL     1       3.027   3.817  18.312  0.00  0.00    +0.000 HD
ENDBRANCH  17  20
ENDBRANCH   1  13
BRANCH   7  22
ATOM     22  C   UNL     1      -1.473  14.599  20.671  0.00  0.00    +0.000 C 
ATOM     23  O   UNL     1      -0.845  15.062  19.724  0.00  0.00    +0.000 OA
BRANCH  22  24
ATOM     24  C   UNL     1      -2.595  15.386  21.290  0.00  0.00    +0.000 C 
ATOM     25  C   UNL     1      -3.343  16.430  20.489  0.00  0.00    +0.000 C 
ATOM     26  C   UNL     1      -4.017  15.134  20.831  0.00  0.00    +0.000 C 
ENDBRANCH  22  24
ENDBRANCH   7  22
BRANCH   8  27
ATOM     27  N   UNL     1      -0.374  12.522  19.035  0.00  0.00    +0.000 N 
ATOM     28  H   UNL     1       0.592  12.378  18.714  0.00  0.00    +0.000 HD
BRANCH  27  29
ATOM     29  C   UNL     1      -1.389  12.286  18.018  0.00  0.00    +0.000 C 
BRANCH  29  30
ATOM     30  C   UNL     1      -2.196  10.996  18.220  0.00  0.00    +0.000 C 
ATOM     31  C   UNL     1      -1.992   9.963  17.103  0.00  0.00    +0.000 C 
ATOM     32  C   UNL     1      -2.752  10.296  15.818  0.00  0.00    +0.000 C 
ATOM     33  N   UNL     1      -4.171  10.566  16.058  0.00  0.00    +0.000 NA
ATOM     34  C   UNL     1      -4.343  11.671  16.996  0.00  0.00    +0.000 C 
ATOM     35  C   UNL     1      -3.698  11.344  18.345  0.00  0.00    +0.000 C 
ATOM     36  H   UNL     1      -4.607   9.728  16.448  0.00  0.00    +0.000 HD
ENDBRANCH  29  30
ENDBRANCH  27  29
ENDBRANCH   8  27
TORSDOF 8
ENDMDL
MODEL 7
REMARK VINA RESULT:      -7.7      1.494      1.960
REMARK  Name = 
REMARK  9 active torsions:
REMARK  status: ('A' for Active; 'I' for Inactive)
REMARK    1  A    between atoms: C_1  and  O_2
REMARK    2  A    between atoms: O_2  and  C_3
REMARK    3  A    between atoms: C_5  and  C_6
REMARK    4  A    between atoms: C_12  and  C_13
REMARK    5  A    between atoms: C_13  and  C_15
REMARK    6  A    between atoms: C_18  and  N_19
REMARK    7  A    between atoms: N_19  and  C_20
REMARK    8  A    between atoms: C_20  and  C_21
REMARK    9  A    between atoms: C_32  and  O_33
REMARK                            x       y       z     vdW  Elec       q    Type
REMARK                         _______ _______ _______ _____ _____    ______ ____
ROOT
ATOM      1  C   UNL     1       0.983   8.537  20.982  0.00  0.00    +0.000 A 
ATOM      2  C   UNL     1       1.044   8.586  22.368  0.00  0.00    +0.000 A 
ATOM      3  C   UNL     1       0.420   9.633  23.060  0.00  0.00    +0.000 A 
ATOM      4  C   UNL     1      -0.295  10.638  22.421  0.00  0.00    +0.000 A 
ATOM      5  N   UNL     1      -0.819  11.603  23.188  0.00  0.00    +0.000 NA
ATOM      6  C   UNL     1      -1.515  12.590  22.590  0.00  0.00    +0.000 A 
ATOM      7  C   UNL     1      -1.770  12.645  21.227  0.00  0.00    +0.000 A 
ATOM      8  C   UNL     1      -1.229  11.646  20.381  0.00  0.00    +0.000 A 
ATOM      9  C   UNL     1      -0.437  10.613  21.012  0.00  0.00    +0.000 A 
ATOM     10  C   UNL     1       0.263   9.565  20.355  0.00  0.00    +0.000 A 
ENDROOT
BRANCH   1  13
ATOM     11  C   UNL     1       2.270   5.147  19.769  0.00  0.00    +0.000 A 
ATOM     12  C   UNL     1       1.615   6.134  20.527  0.00  0.00    +0.000 A 
ATOM     13  C   UNL     1       1.635   7.490  20.160  0.00  0.00    +0.000 A 
ATOM     14  C   UNL     1       2.342   7.829  18.991  0.00  0.00    +0.000 A 
ATOM     15  C   UNL     1       2.992   6.859  18.230  0.00  0.00    +0.000 A 
ATOM     16 CL   UNL     1       3.856   7.349  16.816  0.00  0.00    +0.000 Cl
ATOM     17  C   UNL     1       2.947   5.515  18.603  0.00  0.00    +0.000 A 
BRANCH  11  19
ATOM     18  C   UNL     1       0.980   3.158  19.825  0.00  0.00    +0.000 C 
ATOM     19  O   UNL     1       2.121   3.881  20.272  0.00  0.00    +0.000 OA
ENDBRANCH  11  19
BRANCH  17  20
ATOM     20  O   UNL     1       3.543   4.577  17.803  0.00  0.00    +0.000 OA
ATOM     21  H   UNL     1       4.508   4.655  17.927  0.00  0.00    +0.000 HD
ENDBRANCH  17  20
ENDBRANCH   1  13
BRANCH   7  22
ATOM     22  C   UNL     1      -2.577  13.778  20.699  0.00  0.00    +0.000 C 
ATOM     23  O   UNL     1      -2.023  14.810  20.333  0.00  0.00    +0.000 OA
BRANCH  22  24
ATOM     24  C   UNL     1      -4.073  13.654  20.615  0.00  0.00    +0.000 C 
ATOM     25  C   UNL     1      -4.828  12.728  21.545  0.00  0.00    +0.000 C 
ATOM     26  C   UNL     1      -4.927  14.213  21.735  0.00  0.00    +0.000 C 
ENDBRANCH  22  24
ENDBRANCH   7  22
BRANCH   8  27
ATOM     27  N   UNL     1      -1.633  11.655  19.026  0.00  0.00    +0.000 N 
ATOM     28  H   UNL     1      -1.700  12.615  18.662  0.00  0.00    +0.000 HD
BRANCH  27  29
ATOM     29  C   UNL     1      -1.310  10.652  18.021  0.00  0.00    +0.000 C 
BRANCH  29  30
ATOM     30  C   UNL     1      -2.499   9.781  17.594  0.00  0.00    +0.000 C 
ATOM     31  C   UNL     1      -2.571   9.542  16.079  0.00  0.00    +0.000 C 
ATOM     32  C   UNL     1      -3.106  10.743  15.297  0.00  0.00    +0.000 C 
ATOM     33  N   UNL     1      -4.375  11.241  15.831  0.00  0.00    +0.000 NA
ATOM     34  C   UNL     1      -4.239  11.626  17.233  0.00  0.00    +0.000 C 
ATOM     35  C   UNL     1      -3.814  10.429  18.086  0.00  0.00    +0.000 C 
ATOM     36  H   UNL     1      -5.079  10.505  15.756  0.00  0.00    +0.000 HD
ENDBRANCH  29  30
ENDBRANCH  27  29
ENDBRANCH   8  27
TORSDOF 8
ENDMDL
MODEL 8
REMARK VINA RESULT:      -7.6      3.923      8.241
REMARK  Name = 
REMARK  9 active torsions:
REMARK  status: ('A' for Active; 'I' for Inactive)
REMARK    1  A    between atoms: C_1  and  O_2
REMARK    2  A    between atoms: O_2  and  C_3
REMARK    3  A    between atoms: C_5  and  C_6
REMARK    4  A    between atoms: C_12  and  C_13
REMARK    5  A    between atoms: C_13  and  C_15
REMARK    6  A    between atoms: C_18  and  N_19
REMARK    7  A    between atoms: N_19  and  C_20
REMARK    8  A    between atoms: C_20  and  C_21
REMARK    9  A    between atoms: C_32  and  O_33
REMARK                            x       y       z     vdW  Elec       q    Type
REMARK                         _______ _______ _______ _____ _____    ______ ____
ROOT
ATOM      1  C   UNL     1      -2.630  12.327  22.228  0.00  0.00    +0.000 A 
ATOM      2  C   UNL     1      -2.119  11.671  23.340  0.00  0.00    +0.000 A 
ATOM      3  C   UNL     1      -1.041  10.786  23.198  0.00  0.00    +0.000 A 
ATOM      4  C   UNL     1      -0.423  10.542  21.978  0.00  0.00    +0.000 A 
ATOM      5  N   UNL     1       0.577   9.651  21.962  0.00  0.00    +0.000 NA
ATOM      6  C   UNL     1       1.190   9.395  20.790  0.00  0.00    +0.000 A 
ATOM      7  C   UNL     1       0.885  10.037  19.598  0.00  0.00    +0.000 A 
ATOM      8  C   UNL     1      -0.170  10.982  19.571  0.00  0.00    +0.000 A 
ATOM      9  C   UNL     1      -0.866  11.221  20.817  0.00  0.00    +0.000 A 
ATOM     10  C   UNL     1      -1.997  12.060  21.005  0.00  0.00    +0.000 A 
ENDROOT
BRANCH   1  13
ATOM     11  C   UNL     1      -4.818  15.371  22.975  0.00  0.00    +0.000 A 
ATOM     12  C   UNL     1      -3.710  14.509  22.898  0.00  0.00    +0.000 A 
ATOM     13  C   UNL     1      -3.785  13.255  22.272  0.00  0.00    +0.000 A 
ATOM     14  C   UNL     1      -5.024  12.887  21.716  0.00  0.00    +0.000 A 
ATOM     15  C   UNL     1      -6.129  13.734  21.784  0.00  0.00    +0.000 A 
ATOM     16 CL   UNL     1      -7.625  13.211  21.096  0.00  0.00    +0.000 Cl
ATOM     17  C   UNL     1      -6.030  14.984  22.397  0.00  0.00    +0.000 A 
BRANCH  11  19
ATOM     18  C   UNL     1      -3.646  16.494  24.705  0.00  0.00    +0.000 C 
ATOM     19  O   UNL     1      -4.547  16.558  23.605  0.00  0.00    +0.000 OA
ENDBRANCH  11  19
BRANCH  17  20
ATOM     20  O   UNL     1      -7.114  15.820  22.394  0.00  0.00    +0.000 OA
ATOM     21  H   UNL     1      -7.757  15.470  23.040  0.00  0.00    +0.000 HD
ENDBRANCH  17  20
ENDBRANCH   1  13
BRANCH   7  22
ATOM     22  C   UNL     1       1.658   9.679  18.378  0.00  0.00    +0.000 C 
ATOM     23  O   UNL     1       2.206  10.555  17.717  0.00  0.00    +0.000 OA
BRANCH  22  24
ATOM     24  C   UNL     1       1.765   8.239  17.958  0.00  0.00    +0.000 C 
ATOM     25  C   UNL     1       3.079   7.671  17.465  0.00  0.00    +0.000 C 
ATOM     26  C   UNL     1       2.560   7.274  18.816  0.00  0.00    +0.000 C 
ENDBRANCH  22  24
ENDBRANCH   7  22
BRANCH   8  27
ATOM     27  N   UNL     1      -0.351  11.718  18.377  0.00  0.00    +0.000 N 
ATOM     28  H   UNL     1       0.502  11.713  17.802  0.00  0.00    +0.000 HD
BRANCH  27  29
ATOM     29  C   UNL     1      -1.588  11.843  17.619  0.00  0.00    +0.000 C 
BRANCH  29  30
ATOM     30  C   UNL     1      -2.384  10.537  17.490  0.00  0.00    +0.000 C 
ATOM     31  C   UNL     1      -2.315   9.912  16.090  0.00  0.00    +0.000 C 
ATOM     32  C   UNL     1      -3.206  10.615  15.064  0.00  0.00    +0.000 C 
ATOM     33  N   UNL     1      -4.587  10.763  15.527  0.00  0.00    +0.000 NA
ATOM     34  C   UNL     1      -4.643  11.513  16.778  0.00  0.00    +0.000 C 
ATOM     35  C   UNL     1      -3.859  10.795  17.878  0.00  0.00    +0.000 C 
ATOM     36  H   UNL     1      -4.988   9.836  15.678  0.00  0.00    +0.000 HD
ENDBRANCH  29  30
ENDBRANCH  27  29
ENDBRANCH   8  27
TORSDOF 8
ENDMDL
MODEL 9
REMARK VINA RESULT:      -7.5      1.859      2.682
REMARK  Name = 
REMARK  9 active torsions:
REMARK  status: ('A' for Active; 'I' for Inactive)
REMARK    1  A    between atoms: C_1  and  O_2
REMARK    2  A    between atoms: O_2  and  C_3
REMARK    3  A    between atoms: C_5  and  C_6
REMARK    4  A    between atoms: C_12  and  C_13
REMARK    5  A    between atoms: C_13  and  C_15
REMARK    6  A    between atoms: C_18  and  N_19
REMARK    7  A    between atoms: N_19  and  C_20
REMARK    8  A    between atoms: C_20  and  C_21
REMARK    9  A    between atoms: C_32  and  O_33
REMARK                            x       y       z     vdW  Elec       q    Type
REMARK                         _______ _______ _______ _____ _____    ______ ____
ROOT
ATOM      1  C   UNL     1       1.033   8.455  20.960  0.00  0.00    +0.000 A 
ATOM      2  C   UNL     1       1.072   8.497  22.347  0.00  0.00    +0.000 A 
ATOM      3  C   UNL     1       0.446   9.546  23.034  0.00  0.00    +0.000 A 
ATOM      4  C   UNL     1      -0.251  10.559  22.388  0.00  0.00    +0.000 A 
ATOM      5  N   UNL     1      -0.779  11.525  23.152  0.00  0.00    +0.000 NA
ATOM      6  C   UNL     1      -1.458  12.521  22.547  0.00  0.00    +0.000 A 
ATOM      7  C   UNL     1      -1.691  12.585  21.181  0.00  0.00    +0.000 A 
ATOM      8  C   UNL     1      -1.144  11.585  20.339  0.00  0.00    +0.000 A 
ATOM      9  C   UNL     1      -0.370  10.542  20.977  0.00  0.00    +0.000 A 
ATOM     10  C   UNL     1       0.331   9.492  20.327  0.00  0.00    +0.000 A 
ENDROOT
BRANCH   1  13
ATOM     11  C   UNL     1       3.008   6.714  18.187  0.00  0.00    +0.000 A 
ATOM     12  C   UNL     1       2.420   7.713  18.984  0.00  0.00    +0.000 A 
ATOM     13  C   UNL     1       1.690   7.407  20.143  0.00  0.00    +0.000 A 
ATOM     14  C   UNL     1       1.566   6.047  20.484  0.00  0.00    +0.000 A 
ATOM     15  C   UNL     1       2.146   5.048  19.704  0.00  0.00    +0.000 A 
ATOM     16 CL   UNL     1       1.938   3.398  20.171  0.00  0.00    +0.000 Cl
ATOM     17  C   UNL     1       2.881   5.375  18.564  0.00  0.00    +0.000 A 
BRANCH  11  19
ATOM     18  C   UNL     1       5.108   7.028  17.132  0.00  0.00    +0.000 C 
ATOM     19  O   UNL     1       3.697   7.207  17.110  0.00  0.00    +0.000 OA
ENDBRANCH  11  19
BRANCH  17  20
ATOM     20  O   UNL     1       3.491   4.377  17.851  0.00  0.00    +0.000 OA
ATOM     21  H   UNL     1       4.263   4.767  17.399  0.00  0.00    +0.000 HD
ENDBRANCH  17  20
ENDBRANCH   1  13
BRANCH   7  22
ATOM     22  C   UNL     1      -2.480  13.727  20.645  0.00  0.00    +0.000 C 
ATOM     23  O   UNL     1      -1.909  14.737  20.248  0.00  0.00    +0.000 OA
BRANCH  22  24
ATOM     24  C   UNL     1      -3.980  13.638  20.592  0.00  0.00    +0.000 C 
ATOM     25  C   UNL     1      -4.723  12.592  21.395  0.00  0.00    +0.000 C 
ATOM     26  C   UNL     1      -4.789  14.031  21.812  0.00  0.00    +0.000 C 
ENDBRANCH  22  24
ENDBRANCH   7  22
BRANCH   8  27
ATOM     27  N   UNL     1      -1.527  11.604  18.977  0.00  0.00    +0.000 N 
ATOM     28  H   UNL     1      -1.495  12.557  18.593  0.00  0.00    +0.000 HD
BRANCH  27  29
ATOM     29  C   UNL     1      -1.288  10.552  17.999  0.00  0.00    +0.000 C 
BRANCH  29  30
ATOM     30  C   UNL     1      -2.548   9.779  17.583  0.00  0.00    +0.000 C 
ATOM     31  C   UNL     1      -2.682   9.597  16.065  0.00  0.00    +0.000 C 
ATOM     32  C   UNL     1      -3.156  10.857  15.339  0.00  0.00    +0.000 C 
ATOM     33  N   UNL     1      -4.370  11.424  15.929  0.00  0.00    +0.000 NA
ATOM     34  C   UNL     1      -4.165  11.751  17.337  0.00  0.00    +0.000 C 
ATOM     35  C   UNL     1      -3.799  10.500  18.138  0.00  0.00    +0.000 C 
ATOM     36  H   UNL     1      -5.125  10.740  15.854  0.00  0.00    +0.000 HD
ENDBRANCH  29  30
ENDBRANCH  27  29
ENDBRANCH   8  27
TORSDOF 8
ENDMDL
