MODEL 1
REMARK VINA RESULT:      -6.9      0.000      0.000
REMARK  Name = 
REMARK  6 active torsions:
REMARK  status: ('A' for Active; 'I' for Inactive)
REMARK    1  A    between atoms: C_1  and  C_2
REMARK    2  A    between atoms: C_6  and  C_7
REMARK    3  A    between atoms: N_8  and  N_9
REMARK    4  A    between atoms: C_10  and  C_11
REMARK    5  A    between atoms: C_13  and  C_14
REMARK    6  A    between atoms: C_15  and  C_16
REMARK                            x       y       z     vdW  Elec       q    Type
REMARK                         _______ _______ _______ _____ _____    ______ ____
ROOT
ATOM      1  N   UNL     1       3.559   3.855  17.816  0.00  0.00    +0.000 N 
ATOM      2  C   UNL     1       3.452   2.638  18.488  0.00  0.00    +0.000 A 
ATOM      3  C   UNL     1       3.947   1.361  17.864  0.00  0.00    +0.000 C 
ATOM      4  C   UNL     1       2.916   2.591  19.720  0.00  0.00    +0.000 A 
ATOM      5  C   UNL     1       2.427   3.785  20.367  0.00  0.00    +0.000 A 
ATOM      6  C   UNL     1       1.892   3.645  21.769  0.00  0.00    +0.000 C 
ATOM      7  C   UNL     1       2.466   4.957  19.703  0.00  0.00    +0.000 A 
ATOM      8  C   UNL     1       3.023   5.058  18.333  0.00  0.00    +0.000 A 
ATOM      9  O   UNL     1       2.988   6.144  17.752  0.00  0.00    +0.000 OA
ENDROOT
BRANCH   1  11
ATOM     10  C   UNL     1       5.285   4.244  16.354  0.00  0.00    +0.000 C 
ATOM     11  N   UNL     1       4.086   3.790  16.547  0.00  0.00    +0.000 NA
BRANCH  10  17
ATOM     12  C   UNL     1       5.237   2.800  11.572  0.00  0.00    +0.000 C 
ATOM     13  C   UNL     1       5.879   3.573  12.686  0.00  0.00    +0.000 A 
ATOM     14  C   UNL     1       7.052   4.309  12.480  0.00  0.00    +0.000 A 
ATOM     15  C   UNL     1       7.638   5.019  13.531  0.00  0.00    +0.000 A 
ATOM     16  C   UNL     1       7.058   5.000  14.800  0.00  0.00    +0.000 A 
ATOM     17  C   UNL     1       5.889   4.266  15.010  0.00  0.00    +0.000 A 
ATOM     18  C   UNL     1       5.299   3.559  13.959  0.00  0.00    +0.000 A 
ENDBRANCH  10  17
ENDBRANCH   1  11
BRANCH   7  19
ATOM     19  C   UNL     1       1.941   6.212  20.383  0.00  0.00    +0.000 C 
ATOM     20  N   UNL     1       1.506   7.253  20.946  0.00  0.00    +0.000 NA
ENDBRANCH   7  19
TORSDOF 3
ENDMDL
MODEL 2
REMARK VINA RESULT:      -6.7      1.814      2.365
REMARK  Name = 
REMARK  6 active torsions:
REMARK  status: ('A' for Active; 'I' for Inactive)
REMARK    1  A    between atoms: C_1  and  C_2
REMARK    2  A    between atoms: C_6  and  C_7
REMARK    3  A    between atoms: N_8  and  N_9
REMARK    4  A    between atoms: C_10  and  C_11
REMARK    5  A    between atoms: C_13  and  C_14
REMARK    6  A    between atoms: C_15  and  C_16
REMARK                            x       y       z     vdW  Elec       q    Type
REMARK                         _______ _______ _______ _____ _____    ______ ____
ROOT
ATOM      1  N   UNL     1       4.529   4.125  17.591  0.00  0.00    +0.000 N 
ATOM      2  C   UNL     1       5.014   4.958  18.598  0.00  0.00    +0.000 A 
ATOM      3  C   UNL     1       6.342   5.653  18.459  0.00  0.00    +0.000 C 
ATOM      4  C   UNL     1       4.288   5.166  19.710  0.00  0.00    +0.000 A 
ATOM      5  C   UNL     1       3.007   4.528  19.896  0.00  0.00    +0.000 A 
ATOM      6  C   UNL     1       2.239   4.862  21.149  0.00  0.00    +0.000 C 
ATOM      7  C   UNL     1       2.556   3.670  18.959  0.00  0.00    +0.000 A 
ATOM      8  C   UNL     1       3.330   3.386  17.727  0.00  0.00    +0.000 A 
ATOM      9  O   UNL     1       2.896   2.556  16.926  0.00  0.00    +0.000 OA
ENDROOT
BRANCH   1  11
ATOM     10  C   UNL     1       5.102   4.588  15.417  0.00  0.00    +0.000 C 
ATOM     11  N   UNL     1       5.364   3.946  16.512  0.00  0.00    +0.000 NA
BRANCH  10  17
ATOM     12  C   UNL     1       5.992   2.139  11.156  0.00  0.00    +0.000 C 
ATOM     13  C   UNL     1       6.359   3.218  12.132  0.00  0.00    +0.000 A 
ATOM     14  C   UNL     1       7.471   4.043  11.921  0.00  0.00    +0.000 A 
ATOM     15  C   UNL     1       7.800   5.039  12.844  0.00  0.00    +0.000 A 
ATOM     16  C   UNL     1       7.023   5.220  13.988  0.00  0.00    +0.000 A 
ATOM     17  C   UNL     1       5.915   4.397  14.203  0.00  0.00    +0.000 A 
ATOM     18  C   UNL     1       5.581   3.403  13.279  0.00  0.00    +0.000 A 
ENDBRANCH  10  17
ENDBRANCH   1  11
BRANCH   7  19
ATOM     19  C   UNL     1       1.211   2.991  19.161  0.00  0.00    +0.000 C 
ATOM     20  N   UNL     1       0.096   2.427  19.328  0.00  0.00    +0.000 NA
ENDBRANCH   7  19
TORSDOF 3
ENDMDL
MODEL 3
REMARK VINA RESULT:      -6.6      2.749      4.210
REMARK  Name = 
REMARK  6 active torsions:
REMARK  status: ('A' for Active; 'I' for Inactive)
REMARK    1  A    between atoms: C_1  and  C_2
REMARK    2  A    between atoms: C_6  and  C_7
REMARK    3  A    between atoms: N_8  and  N_9
REMARK    4  A    between atoms: C_10  and  C_11
REMARK    5  A    between atoms: C_13  and  C_14
REMARK    6  A    between atoms: C_15  and  C_16
REMARK                            x       y       z     vdW  Elec       q    Type
REMARK                         _______ _______ _______ _____ _____    ______ ____
ROOT
ATOM      1  N   UNL     1       2.407   7.373  18.966  0.00  0.00    +0.000 N 
ATOM      2  C   UNL     1       1.934   6.854  20.172  0.00  0.00    +0.000 A 
ATOM      3  C   UNL     1       2.317   5.472  20.626  0.00  0.00    +0.000 C 
ATOM      4  C   UNL     1       1.137   7.597  20.959  0.00  0.00    +0.000 A 
ATOM      5  C   UNL     1       0.739   8.930  20.574  0.00  0.00    +0.000 A 
ATOM      6  C   UNL     1      -0.113   9.709  21.544  0.00  0.00    +0.000 C 
ATOM      7  C   UNL     1       1.137   9.419  19.383  0.00  0.00    +0.000 A 
ATOM      8  C   UNL     1       1.996   8.631  18.466  0.00  0.00    +0.000 A 
ATOM      9  O   UNL     1       2.290   9.103  17.367  0.00  0.00    +0.000 OA
ENDROOT
BRANCH   1  11
ATOM     10  C   UNL     1       4.473   6.654  18.269  0.00  0.00    +0.000 C 
ATOM     11  N   UNL     1       3.184   6.520  18.216  0.00  0.00    +0.000 NA
BRANCH  10  17
ATOM     12  C   UNL     1       5.430   4.296  13.971  0.00  0.00    +0.000 C 
ATOM     13  C   UNL     1       5.843   4.670  15.364  0.00  0.00    +0.000 A 
ATOM     14  C   UNL     1       7.057   4.231  15.906  0.00  0.00    +0.000 A 
ATOM     15  C   UNL     1       7.422   4.585  17.208  0.00  0.00    +0.000 A 
ATOM     16  C   UNL     1       6.577   5.381  17.981  0.00  0.00    +0.000 A 
ATOM     17  C   UNL     1       5.364   5.820  17.445  0.00  0.00    +0.000 A 
ATOM     18  C   UNL     1       4.999   5.470  16.142  0.00  0.00    +0.000 A 
ENDBRANCH  10  17
ENDBRANCH   1  11
BRANCH   7  19
ATOM     19  C   UNL     1       0.710  10.819  18.974  0.00  0.00    +0.000 C 
ATOM     20  N   UNL     1       0.355  11.981  18.635  0.00  0.00    +0.000 NA
ENDBRANCH   7  19
TORSDOF 3
ENDMDL
MODEL 4
REMARK VINA RESULT:      -6.6      1.820      2.820
REMARK  Name = 
REMARK  6 active torsions:
REMARK  status: ('A' for Active; 'I' for Inactive)
REMARK    1  A    between atoms: C_1  and  C_2
REMARK    2  A    between atoms: C_6  and  C_7
REMARK    3  A    between atoms: N_8  and  N_9
REMARK    4  A    between atoms: C_10  and  C_11
REMARK    5  A    between atoms: C_13  and  C_14
REMARK    6  A    between atoms: C_15  and  C_16
REMARK                            x       y       z     vdW  Elec       q    Type
REMARK                         _______ _______ _______ _____ _____    ______ ____
ROOT
ATOM      1  N   UNL     1       4.035   4.786  17.296  0.00  0.00    +0.000 N 
ATOM      2  C   UNL     1       4.679   5.384  18.379  0.00  0.00    +0.000 A 
ATOM      3  C   UNL     1       5.923   6.209  18.183  0.00  0.00    +0.000 C 
ATOM      4  C   UNL     1       4.183   5.245  19.621  0.00  0.00    +0.000 A 
ATOM      5  C   UNL     1       2.992   4.468  19.866  0.00  0.00    +0.000 A 
ATOM      6  C   UNL     1       2.479   4.412  21.282  0.00  0.00    +0.000 C 
ATOM      7  C   UNL     1       2.397   3.832  18.838  0.00  0.00    +0.000 A 
ATOM      8  C   UNL     1       2.918   3.932  17.454  0.00  0.00    +0.000 A 
ATOM      9  O   UNL     1       2.366   3.290  16.559  0.00  0.00    +0.000 OA
ENDROOT
BRANCH   1  11
ATOM     10  C   UNL     1       5.273   3.949  15.554  0.00  0.00    +0.000 C 
ATOM     11  N   UNL     1       4.643   4.956  16.074  0.00  0.00    +0.000 NA
BRANCH  10  17
ATOM     12  C   UNL     1       8.891   6.067  12.839  0.00  0.00    +0.000 C 
ATOM     13  C   UNL     1       7.753   5.094  12.949  0.00  0.00    +0.000 A 
ATOM     14  C   UNL     1       7.358   4.310  11.859  0.00  0.00    +0.000 A 
ATOM     15  C   UNL     1       6.292   3.414  11.979  0.00  0.00    +0.000 A 
ATOM     16  C   UNL     1       5.610   3.293  13.191  0.00  0.00    +0.000 A 
ATOM     17  C   UNL     1       6.001   4.075  14.280  0.00  0.00    +0.000 A 
ATOM     18  C   UNL     1       7.069   4.969  14.162  0.00  0.00    +0.000 A 
ENDBRANCH  10  17
ENDBRANCH   1  11
BRANCH   7  19
ATOM     19  C   UNL     1       1.148   3.005  19.100  0.00  0.00    +0.000 C 
ATOM     20  N   UNL     1       0.112   2.320  19.318  0.00  0.00    +0.000 NA
ENDBRANCH   7  19
TORSDOF 3
ENDMDL
MODEL 5
REMARK VINA RESULT:      -6.5      1.731      2.591
REMARK  Name = 
REMARK  6 active torsions:
REMARK  status: ('A' for Active; 'I' for Inactive)
REMARK    1  A    between atoms: C_1  and  C_2
REMARK    2  A    between atoms: C_6  and  C_7
REMARK    3  A    between atoms: N_8  and  N_9
REMARK    4  A    between atoms: C_10  and  C_11
REMARK    5  A    between atoms: C_13  and  C_14
REMARK    6  A    between atoms: C_15  and  C_16
REMARK                            x       y       z     vdW  Elec       q    Type
REMARK                         _______ _______ _______ _____ _____    ______ ____
ROOT
ATOM      1  N   UNL     1       4.232   5.011  17.924  0.00  0.00    +0.000 N 
ATOM      2  C   UNL     1       3.737   6.308  18.058  0.00  0.00    +0.000 A 
ATOM      3  C   UNL     1       4.128   7.392  17.089  0.00  0.00    +0.000 C 
ATOM      4  C   UNL     1       2.883   6.606  19.053  0.00  0.00    +0.000 A 
ATOM      5  C   UNL     1       2.473   5.606  20.009  0.00  0.00    +0.000 A 
ATOM      6  C   UNL     1       1.472   6.017  21.058  0.00  0.00    +0.000 C 
ATOM      7  C   UNL     1       2.993   4.365  19.929  0.00  0.00    +0.000 A 
ATOM      8  C   UNL     1       3.958   3.992  18.867  0.00  0.00    +0.000 A 
ATOM      9  O   UNL     1       4.442   2.859  18.869  0.00  0.00    +0.000 OA
ENDROOT
BRANCH   1  11
ATOM     10  C   UNL     1       4.672   4.757  15.686  0.00  0.00    +0.000 C 
ATOM     11  N   UNL     1       5.128   4.818  16.898  0.00  0.00    +0.000 NA
BRANCH  10  17
ATOM     12  C   UNL     1       5.634   2.317  11.435  0.00  0.00    +0.000 C 
ATOM     13  C   UNL     1       6.045   3.313  12.479  0.00  0.00    +0.000 A 
ATOM     14  C   UNL     1       7.270   3.987  12.401  0.00  0.00    +0.000 A 
ATOM     15  C   UNL     1       7.638   4.907  13.387  0.00  0.00    +0.000 A 
ATOM     16  C   UNL     1       6.786   5.161  14.462  0.00  0.00    +0.000 A 
ATOM     17  C   UNL     1       5.564   4.489  14.545  0.00  0.00    +0.000 A 
ATOM     18  C   UNL     1       5.193   3.572  13.557  0.00  0.00    +0.000 A 
ENDBRANCH  10  17
ENDBRANCH   1  11
BRANCH   7  19
ATOM     19  C   UNL     1       2.568   3.315  20.943  0.00  0.00    +0.000 C 
ATOM     20  N   UNL     1       2.214   2.445  21.784  0.00  0.00    +0.000 NA
ENDBRANCH   7  19
TORSDOF 3
ENDMDL
MODEL 6
REMARK VINA RESULT:      -6.4      0.572      1.598
REMARK  Name = 
REMARK  6 active torsions:
REMARK  status: ('A' for Active; 'I' for Inactive)
REMARK    1  A    between atoms: C_1  and  C_2
REMARK    2  A    between atoms: C_6  and  C_7
REMARK    3  A    between atoms: N_8  and  N_9
REMARK    4  A    between atoms: C_10  and  C_11
REMARK    5  A    between atoms: C_13  and  C_14
REMARK    6  A    between atoms: C_15  and  C_16
REMARK                            x       y       z     vdW  Elec       q    Type
REMARK                         _______ _______ _______ _____ _____    ______ ____
ROOT
ATOM      1  N   UNL     1       3.660   4.116  17.567  0.00  0.00    +0.000 N 
ATOM      2  C   UNL     1       3.484   2.937  18.292  0.00  0.00    +0.000 A 
ATOM      3  C   UNL     1       3.898   1.607  17.723  0.00  0.00    +0.000 C 
ATOM      4  C   UNL     1       2.954   2.977  19.527  0.00  0.00    +0.000 A 
ATOM      5  C   UNL     1       2.541   4.225  20.122  0.00  0.00    +0.000 A 
ATOM      6  C   UNL     1       2.006   4.180  21.530  0.00  0.00    +0.000 C 
ATOM      7  C   UNL     1       2.647   5.363  19.408  0.00  0.00    +0.000 A 
ATOM      8  C   UNL     1       3.201   5.370  18.033  0.00  0.00    +0.000 A 
ATOM      9  O   UNL     1       3.229   6.430  17.404  0.00  0.00    +0.000 OA
ENDROOT
BRANCH   1  11
ATOM     10  C   UNL     1       5.365   4.419  16.060  0.00  0.00    +0.000 C 
ATOM     11  N   UNL     1       4.175   3.964  16.300  0.00  0.00    +0.000 NA
BRANCH  10  17
ATOM     12  C   UNL     1       8.808   5.922  12.768  0.00  0.00    +0.000 C 
ATOM     13  C   UNL     1       7.620   5.069  13.103  0.00  0.00    +0.000 A 
ATOM     14  C   UNL     1       7.048   4.213  12.154  0.00  0.00    +0.000 A 
ATOM     15  C   UNL     1       5.938   3.430  12.483  0.00  0.00    +0.000 A 
ATOM     16  C   UNL     1       5.388   3.495  13.763  0.00  0.00    +0.000 A 
ATOM     17  C   UNL     1       5.955   4.349  14.712  0.00  0.00    +0.000 A 
ATOM     18  C   UNL     1       7.067   5.130  14.386  0.00  0.00    +0.000 A 
ENDBRANCH  10  17
ENDBRANCH   1  11
BRANCH   7  19
ATOM     19  C   UNL     1       2.203   6.675  20.033  0.00  0.00    +0.000 C 
ATOM     20  N   UNL     1       1.834   7.764  20.551  0.00  0.00    +0.000 NA
ENDBRANCH   7  19
TORSDOF 3
ENDMDL
MODEL 7
REMARK VINA RESULT:      -6.4      3.525      8.392
REMARK  Name = 
REMARK  6 active torsions:
REMARK  status: ('A' for Active; 'I' for Inactive)
REMARK    1  A    between atoms: C_1  and  C_2
REMARK    2  A    between atoms: C_6  and  C_7
REMARK    3  A    between atoms: N_8  and  N_9
REMARK    4  A    between atoms: C_10  and  C_11
REMARK    5  A    between atoms: C_13  and  C_14
REMARK    6  A    between atoms: C_15  and  C_16
REMARK                            x       y       z     vdW  Elec       q    Type
REMARK                         _______ _______ _______ _____ _____    ______ ____
ROOT
ATOM      1  N   UNL     1       2.415   6.482  19.560  0.00  0.00    +0.000 N 
ATOM      2  C   UNL     1       2.875   6.956  18.331  0.00  0.00    +0.000 A 
ATOM      3  C   UNL     1       2.379   8.260  17.767  0.00  0.00    +0.000 C 
ATOM      4  C   UNL     1       3.788   6.256  17.637  0.00  0.00    +0.000 A 
ATOM      5  C   UNL     1       4.300   5.000  18.131  0.00  0.00    +0.000 A 
ATOM      6  C   UNL     1       5.361   4.311  17.311  0.00  0.00    +0.000 C 
ATOM      7  C   UNL     1       3.817   4.500  19.285  0.00  0.00    +0.000 A 
ATOM      8  C   UNL     1       2.791   5.220  20.076  0.00  0.00    +0.000 A 
ATOM      9  O   UNL     1       2.346   4.694  21.099  0.00  0.00    +0.000 OA
ENDROOT
BRANCH   1  11
ATOM     10  C   UNL     1       1.778   8.443  20.569  0.00  0.00    +0.000 C 
ATOM     11  N   UNL     1       1.454   7.252  20.173  0.00  0.00    +0.000 NA
BRANCH  10  17
ATOM     12  C   UNL     1      -1.317  12.363  20.626  0.00  0.00    +0.000 C 
ATOM     13  C   UNL     1      -0.687  11.199  21.332  0.00  0.00    +0.000 A 
ATOM     14  C   UNL     1      -0.980  10.914  22.671  0.00  0.00    +0.000 A 
ATOM     15  C   UNL     1      -0.379   9.828  23.313  0.00  0.00    +0.000 A 
ATOM     16  C   UNL     1       0.523   9.017  22.624  0.00  0.00    +0.000 A 
ATOM     17  C   UNL     1       0.820   9.299  21.289  0.00  0.00    +0.000 A 
ATOM     18  C   UNL     1       0.216  10.382  20.644  0.00  0.00    +0.000 A 
ENDBRANCH  10  17
ENDBRANCH   1  11
BRANCH   7  19
ATOM     19  C   UNL     1       4.350   3.172  19.799  0.00  0.00    +0.000 C 
ATOM     20  N   UNL     1       4.792   2.071  20.226  0.00  0.00    +0.000 NA
ENDBRANCH   7  19
TORSDOF 3
ENDMDL
MODEL 8
REMARK VINA RESULT:      -6.3      3.193      7.222
REMARK  Name = 
REMARK  6 active torsions:
REMARK  status: ('A' for Active; 'I' for Inactive)
REMARK    1  A    between atoms: C_1  and  C_2
REMARK    2  A    between atoms: C_6  and  C_7
REMARK    3  A    between atoms: N_8  and  N_9
REMARK    4  A    between atoms: C_10  and  C_11
REMARK    5  A    between atoms: C_13  and  C_14
REMARK    6  A    between atoms: C_15  and  C_16
REMARK                            x       y       z     vdW  Elec       q    Type
REMARK                         _______ _______ _______ _____ _____    ______ ____
ROOT
ATOM      1  N   UNL     1       2.918   5.931  18.843  0.00  0.00    +0.000 N 
ATOM      2  C   UNL     1       2.310   4.886  19.537  0.00  0.00    +0.000 A 
ATOM      3  C   UNL     1       1.335   5.157  20.651  0.00  0.00    +0.000 C 
ATOM      4  C   UNL     1       2.576   3.610  19.205  0.00  0.00    +0.000 A 
ATOM      5  C   UNL     1       3.501   3.292  18.145  0.00  0.00    +0.000 A 
ATOM      6  C   UNL     1       3.697   1.836  17.807  0.00  0.00    +0.000 C 
ATOM      7  C   UNL     1       4.144   4.292  17.509  0.00  0.00    +0.000 A 
ATOM      8  C   UNL     1       3.906   5.714  17.853  0.00  0.00    +0.000 A 
ATOM      9  O   UNL     1       4.557   6.587  17.276  0.00  0.00    +0.000 OA
ENDROOT
BRANCH   1  11
ATOM     10  C   UNL     1       1.882   7.954  18.523  0.00  0.00    +0.000 C 
ATOM     11  N   UNL     1       2.609   7.197  19.284  0.00  0.00    +0.000 NA
BRANCH  10  17
ATOM     12  C   UNL     1      -0.313  11.192  21.629  0.00  0.00    +0.000 C 
ATOM     13  C   UNL     1       0.506  10.927  20.400  0.00  0.00    +0.000 A 
ATOM     14  C   UNL     1       0.967  11.973  19.592  0.00  0.00    +0.000 A 
ATOM     15  C   UNL     1       1.723  11.706  18.448  0.00  0.00    +0.000 A 
ATOM     16  C   UNL     1       2.025  10.389  18.099  0.00  0.00    +0.000 A 
ATOM     17  C   UNL     1       1.566   9.343  18.901  0.00  0.00    +0.000 A 
ATOM     18  C   UNL     1       0.813   9.609  20.048  0.00  0.00    +0.000 A 
ENDBRANCH  10  17
ENDBRANCH   1  11
BRANCH   7  19
ATOM     19  C   UNL     1       5.126   3.954  16.398  0.00  0.00    +0.000 C 
ATOM     20  N   UNL     1       5.940   3.675  15.477  0.00  0.00    +0.000 NA
ENDBRANCH   7  19
TORSDOF 3
ENDMDL
MODEL 9
REMARK VINA RESULT:      -6.3      3.673      7.191
REMARK  Name = 
REMARK  6 active torsions:
REMARK  status: ('A' for Active; 'I' for Inactive)
REMARK    1  A    between atoms: C_1  and  C_2
REMARK    2  A    between atoms: C_6  and  C_7
REMARK    3  A    between atoms: N_8  and  N_9
REMARK    4  A    between atoms: C_10  and  C_11
REMARK    5  A    between atoms: C_13  and  C_14
REMARK    6  A    between atoms: C_15  and  C_16
REMARK                            x       y       z     vdW  Elec       q    Type
REMARK                         _______ _______ _______ _____ _____    ______ ____
ROOT
ATOM      1  N   UNL     1       2.918   6.438  18.481  0.00  0.00    +0.000 N 
ATOM      2  C   UNL     1       2.393   5.464  19.331  0.00  0.00    +0.000 A 
ATOM      3  C   UNL     1       1.470   5.836  20.460  0.00  0.00    +0.000 C 
ATOM      4  C   UNL     1       2.695   4.168  19.141  0.00  0.00    +0.000 A 
ATOM      5  C   UNL     1       3.574   3.755  18.074  0.00  0.00    +0.000 A 
ATOM      6  C   UNL     1       3.813   2.277  17.903  0.00  0.00    +0.000 C 
ATOM      7  C   UNL     1       4.139   4.691  17.285  0.00  0.00    +0.000 A 
ATOM      8  C   UNL     1       3.859   6.135  17.469  0.00  0.00    +0.000 A 
ATOM      9  O   UNL     1       4.440   6.953  16.753  0.00  0.00    +0.000 OA
ENDROOT
BRANCH   1  11
ATOM     10  C   UNL     1       1.735   8.348  18.014  0.00  0.00    +0.000 C 
ATOM     11  N   UNL     1       2.580   7.737  18.783  0.00  0.00    +0.000 NA
BRANCH  10  17
ATOM     12  C   UNL     1      -1.700  11.813  19.084  0.00  0.00    +0.000 C 
ATOM     13  C   UNL     1      -0.281  11.452  18.758  0.00  0.00    +0.000 A 
ATOM     14  C   UNL     1       0.713  12.433  18.648  0.00  0.00    +0.000 A 
ATOM     15  C   UNL     1       2.028  12.078  18.337  0.00  0.00    +0.000 A 
ATOM     16  C   UNL     1       2.364  10.740  18.132  0.00  0.00    +0.000 A 
ATOM     17  C   UNL     1       1.375   9.759  18.239  0.00  0.00    +0.000 A 
ATOM     18  C   UNL     1       0.060  10.112  18.553  0.00  0.00    +0.000 A 
ENDBRANCH  10  17
ENDBRANCH   1  11
BRANCH   7  19
ATOM     19  C   UNL     1       5.072   4.254  16.167  0.00  0.00    +0.000 C 
ATOM     20  N   UNL     1       5.846   3.893  15.240  0.00  0.00    +0.000 NA
ENDBRANCH   7  19
TORSDOF 3
ENDMDL
