MODEL 1
REMARK VINA RESULT:      -8.6      0.000      0.000
REMARK  Name = 
REMARK  2 active torsions:
REMARK  status: ('A' for Active; 'I' for Inactive)
REMARK    1  A    between atoms: C_5  and  C_6
REMARK    2  A    between atoms: C_14  and  C_15
REMARK                            x       y       z     vdW  Elec       q    Type
REMARK                         _______ _______ _______ _____ _____    ______ ____
ROOT
ATOM      1  N   UNL     1       3.898   1.032  18.466  0.00  0.00    +0.000 N 
ATOM      2  C   UNL     1       3.590   2.364  18.653  0.00  0.00    +0.000 A 
ATOM      3  N   UNL     1       2.318   2.667  18.862  0.00  0.00    +0.000 NA
ATOM      4  C   UNL     1       2.029   3.977  18.980  0.00  0.00    +0.000 A 
ATOM      5  C   UNL     1       2.946   5.019  18.905  0.00  0.00    +0.000 A 
ATOM      6  C   UNL     1       4.262   4.576  18.689  0.00  0.00    +0.000 A 
ATOM      7  N   UNL     1       4.575   3.258  18.546  0.00  0.00    +0.000 NA
ATOM      8  H   UNL     1       3.075   0.536  18.159  0.00  0.00    +0.000 HD
ATOM      9  H   UNL     1       4.728   0.949  17.901  0.00  0.00    +0.000 HD
ENDROOT
BRANCH   5  10
ATOM     10  C   UNL     1       2.486   6.424  19.034  0.00  0.00    +0.000 A 
ATOM     11  C   UNL     1       2.342   7.241  17.897  0.00  0.00    +0.000 A 
ATOM     12  C   UNL     1       1.836   8.546  17.989  0.00  0.00    +0.000 A 
ATOM     13  C   UNL     1       1.423   9.053  19.221  0.00  0.00    +0.000 A 
ATOM     14 CL   UNL     1       0.737  10.636  19.253  0.00  0.00    +0.000 Cl
ATOM     15  C   UNL     1       1.569   8.271  20.366  0.00  0.00    +0.000 A 
ATOM     16 CL   UNL     1       1.014   8.790  21.918  0.00  0.00    +0.000 Cl
ATOM     17  C   UNL     1       2.143   6.995  20.275  0.00  0.00    +0.000 A 
ENDBRANCH   5  10
BRANCH   6  18
ATOM     18  C   UNL     1       5.442   5.472  18.532  0.00  0.00    +0.000 A 
ATOM     19  C   UNL     1       5.540   6.418  17.498  0.00  0.00    +0.000 A 
ATOM     20  C   UNL     1       6.747   7.072  17.227  0.00  0.00    +0.000 A 
ATOM     21  C   UNL     1       7.855   6.857  18.042  0.00  0.00    +0.000 A 
ATOM     22  C   UNL     1       7.745   6.018  19.146  0.00  0.00    +0.000 A 
ATOM     23  C   UNL     1       6.550   5.332  19.386  0.00  0.00    +0.000 A 
ENDBRANCH   6  18
TORSDOF 2
ENDMDL
MODEL 2
REMARK VINA RESULT:      -8.5      1.992      3.931
REMARK  Name = 
REMARK  2 active torsions:
REMARK  status: ('A' for Active; 'I' for Inactive)
REMARK    1  A    between atoms: C_5  and  C_6
REMARK    2  A    between atoms: C_14  and  C_15
REMARK                            x       y       z     vdW  Elec       q    Type
REMARK                         _______ _______ _______ _____ _____    ______ ____
ROOT
ATOM      1  N   UNL     1       6.037   3.574  15.997  0.00  0.00    +0.000 N 
ATOM      2  C   UNL     1       5.171   4.495  16.549  0.00  0.00    +0.000 A 
ATOM      3  N   UNL     1       5.298   5.754  16.159  0.00  0.00    +0.000 NA
ATOM      4  C   UNL     1       4.487   6.648  16.756  0.00  0.00    +0.000 A 
ATOM      5  C   UNL     1       3.539   6.358  17.730  0.00  0.00    +0.000 A 
ATOM      6  C   UNL     1       3.491   4.992  18.058  0.00  0.00    +0.000 A 
ATOM      7  N   UNL     1       4.316   4.073  17.484  0.00  0.00    +0.000 NA
ATOM      8  H   UNL     1       6.861   4.047  15.658  0.00  0.00    +0.000 HD
ATOM      9  H   UNL     1       6.172   2.806  16.636  0.00  0.00    +0.000 HD
ENDROOT
BRANCH   5  10
ATOM     10  C   UNL     1       2.722   7.448  18.319  0.00  0.00    +0.000 A 
ATOM     11  C   UNL     1       2.236   8.497  17.517  0.00  0.00    +0.000 A 
ATOM     12  C   UNL     1       1.399   9.494  18.038  0.00  0.00    +0.000 A 
ATOM     13  C   UNL     1       0.994   9.443  19.372  0.00  0.00    +0.000 A 
ATOM     14 CL   UNL     1      -0.099  10.656  19.931  0.00  0.00    +0.000 Cl
ATOM     15  C   UNL     1       1.472   8.423  20.193  0.00  0.00    +0.000 A 
ATOM     16 CL   UNL     1       0.962   8.240  21.834  0.00  0.00    +0.000 Cl
ATOM     17  C   UNL     1       2.366   7.472  19.682  0.00  0.00    +0.000 A 
ENDBRANCH   5  10
BRANCH   6  18
ATOM     18  C   UNL     1       2.597   4.401  19.093  0.00  0.00    +0.000 A 
ATOM     19  C   UNL     1       2.946   4.349  20.453  0.00  0.00    +0.000 A 
ATOM     20  C   UNL     1       2.209   3.580  21.360  0.00  0.00    +0.000 A 
ATOM     21  C   UNL     1       1.057   2.920  20.942  0.00  0.00    +0.000 A 
ATOM     22  C   UNL     1       0.624   3.058  19.627  0.00  0.00    +0.000 A 
ATOM     23  C   UNL     1       1.389   3.790  18.712  0.00  0.00    +0.000 A 
ENDBRANCH   6  18
TORSDOF 2
ENDMDL
MODEL 3
REMARK VINA RESULT:      -8.4      2.073      4.114
REMARK  Name = 
REMARK  2 active torsions:
REMARK  status: ('A' for Active; 'I' for Inactive)
REMARK    1  A    between atoms: C_5  and  C_6
REMARK    2  A    between atoms: C_14  and  C_15
REMARK                            x       y       z     vdW  Elec       q    Type
REMARK                         _______ _______ _______ _____ _____    ______ ____
ROOT
ATOM      1  N   UNL     1       6.685   4.235  15.107  0.00  0.00    +0.000 N 
ATOM      2  C   UNL     1       5.731   4.875  15.872  0.00  0.00    +0.000 A 
ATOM      3  N   UNL     1       5.732   6.199  15.856  0.00  0.00    +0.000 NA
ATOM      4  C   UNL     1       4.835   6.804  16.657  0.00  0.00    +0.000 A 
ATOM      5  C   UNL     1       3.921   6.161  17.484  0.00  0.00    +0.000 A 
ATOM      6  C   UNL     1       4.010   4.761  17.411  0.00  0.00    +0.000 A 
ATOM      7  N   UNL     1       4.922   4.125  16.625  0.00  0.00    +0.000 NA
ATOM      8  H   UNL     1       7.457   4.861  14.938  0.00  0.00    +0.000 HD
ATOM      9  H   UNL     1       6.895   3.334  15.507  0.00  0.00    +0.000 HD
ENDROOT
BRANCH   5  10
ATOM     10  C   UNL     1       2.999   6.956  18.332  0.00  0.00    +0.000 A 
ATOM     11  C   UNL     1       2.639   6.509  19.618  0.00  0.00    +0.000 A 
ATOM     12  C   UNL     1       1.832   7.282  20.465  0.00  0.00    +0.000 A 
ATOM     13  C   UNL     1       1.394   8.543  20.059  0.00  0.00    +0.000 A 
ATOM     14 CL   UNL     1       0.469   9.475  21.179  0.00  0.00    +0.000 Cl
ATOM     15  C   UNL     1       1.723   9.003  18.785  0.00  0.00    +0.000 A 
ATOM     16 CL   UNL     1       1.289  10.582  18.232  0.00  0.00    +0.000 Cl
ATOM     17  C   UNL     1       2.471   8.194  17.918  0.00  0.00    +0.000 A 
ENDBRANCH   5  10
BRANCH   6  18
ATOM     18  C   UNL     1       3.179   3.818  18.212  0.00  0.00    +0.000 A 
ATOM     19  C   UNL     1       1.854   3.500  17.870  0.00  0.00    +0.000 A 
ATOM     20  C   UNL     1       1.022   2.812  18.760  0.00  0.00    +0.000 A 
ATOM     21  C   UNL     1       1.526   2.351  19.973  0.00  0.00    +0.000 A 
ATOM     22  C   UNL     1       2.868   2.548  20.279  0.00  0.00    +0.000 A 
ATOM     23  C   UNL     1       3.685   3.276  19.407  0.00  0.00    +0.000 A 
ENDBRANCH   6  18
TORSDOF 2
ENDMDL
MODEL 4
REMARK VINA RESULT:      -8.3      1.973      3.774
REMARK  Name = 
REMARK  2 active torsions:
REMARK  status: ('A' for Active; 'I' for Inactive)
REMARK    1  A    between atoms: C_5  and  C_6
REMARK    2  A    between atoms: C_14  and  C_15
REMARK                            x       y       z     vdW  Elec       q    Type
REMARK                         _______ _______ _______ _____ _____    ______ ____
ROOT
ATOM      1  N   UNL     1       6.284   3.291  15.556  0.00  0.00    +0.000 N 
ATOM      2  C   UNL     1       5.438   4.195  16.166  0.00  0.00    +0.000 A 
ATOM      3  N   UNL     1       5.579   5.470  15.839  0.00  0.00    +0.000 NA
ATOM      4  C   UNL     1       4.788   6.343  16.491  0.00  0.00    +0.000 A 
ATOM      5  C   UNL     1       3.847   6.018  17.461  0.00  0.00    +0.000 A 
ATOM      6  C   UNL     1       3.783   4.638  17.718  0.00  0.00    +0.000 A 
ATOM      7  N   UNL     1       4.587   3.737  17.088  0.00  0.00    +0.000 NA
ATOM      8  H   UNL     1       7.111   3.769  15.232  0.00  0.00    +0.000 HD
ATOM      9  H   UNL     1       6.414   2.489  16.153  0.00  0.00    +0.000 HD
ENDROOT
BRANCH   5  10
ATOM     10  C   UNL     1       3.053   7.087  18.115  0.00  0.00    +0.000 A 
ATOM     11  C   UNL     1       2.659   8.232  17.397  0.00  0.00    +0.000 A 
ATOM     12  C   UNL     1       1.844   9.216  17.974  0.00  0.00    +0.000 A 
ATOM     13  C   UNL     1       1.370   9.060  19.276  0.00  0.00    +0.000 A 
ATOM     14 CL   UNL     1       0.308  10.268  19.900  0.00  0.00    +0.000 Cl
ATOM     15  C   UNL     1       1.757   7.943  20.015  0.00  0.00    +0.000 A 
ATOM     16 CL   UNL     1       1.155   7.631  21.605  0.00  0.00    +0.000 Cl
ATOM     17  C   UNL     1       2.630   7.000  19.455  0.00  0.00    +0.000 A 
ENDBRANCH   5  10
BRANCH   6  18
ATOM     18  C   UNL     1       2.892   4.007  18.732  0.00  0.00    +0.000 A 
ATOM     19  C   UNL     1       1.529   3.763  18.494  0.00  0.00    +0.000 A 
ATOM     20  C   UNL     1       0.665   3.400  19.534  0.00  0.00    +0.000 A 
ATOM     21  C   UNL     1       1.167   3.186  20.815  0.00  0.00    +0.000 A 
ATOM     22  C   UNL     1       2.533   3.302  21.047  0.00  0.00    +0.000 A 
ATOM     23  C   UNL     1       3.386   3.711  20.016  0.00  0.00    +0.000 A 
ENDBRANCH   6  18
TORSDOF 2
ENDMDL
MODEL 5
REMARK VINA RESULT:      -8.3      0.331      1.094
REMARK  Name = 
REMARK  2 active torsions:
REMARK  status: ('A' for Active; 'I' for Inactive)
REMARK    1  A    between atoms: C_5  and  C_6
REMARK    2  A    between atoms: C_14  and  C_15
REMARK                            x       y       z     vdW  Elec       q    Type
REMARK                         _______ _______ _______ _____ _____    ______ ____
ROOT
ATOM      1  N   UNL     1       3.765   0.850  18.249  0.00  0.00    +0.000 N 
ATOM      2  C   UNL     1       3.519   2.193  18.447  0.00  0.00    +0.000 A 
ATOM      3  N   UNL     1       2.278   2.543  18.747  0.00  0.00    +0.000 NA
ATOM      4  C   UNL     1       2.045   3.863  18.874  0.00  0.00    +0.000 A 
ATOM      5  C   UNL     1       2.989   4.871  18.723  0.00  0.00    +0.000 A 
ATOM      6  C   UNL     1       4.269   4.380  18.415  0.00  0.00    +0.000 A 
ATOM      7  N   UNL     1       4.525   3.052  18.259  0.00  0.00    +0.000 NA
ATOM      8  H   UNL     1       2.905   0.382  18.008  0.00  0.00    +0.000 HD
ATOM      9  H   UNL     1       4.548   0.735  17.625  0.00  0.00    +0.000 HD
ENDROOT
BRANCH   5  10
ATOM     10  C   UNL     1       2.590   6.292  18.873  0.00  0.00    +0.000 A 
ATOM     11  C   UNL     1       2.492   7.135  17.750  0.00  0.00    +0.000 A 
ATOM     12  C   UNL     1       2.042   8.458  17.861  0.00  0.00    +0.000 A 
ATOM     13  C   UNL     1       1.640   8.962  19.099  0.00  0.00    +0.000 A 
ATOM     14 CL   UNL     1       1.023  10.572  19.154  0.00  0.00    +0.000 Cl
ATOM     15  C   UNL     1       1.742   8.154  20.230  0.00  0.00    +0.000 A 
ATOM     16 CL   UNL     1       1.195   8.669  21.787  0.00  0.00    +0.000 Cl
ATOM     17  C   UNL     1       2.260   6.856  20.121  0.00  0.00    +0.000 A 
ENDBRANCH   5  10
BRANCH   6  18
ATOM     18  C   UNL     1       5.465   5.233  18.163  0.00  0.00    +0.000 A 
ATOM     19  C   UNL     1       6.540   5.312  19.064  0.00  0.00    +0.000 A 
ATOM     20  C   UNL     1       7.528   6.293  18.928  0.00  0.00    +0.000 A 
ATOM     21  C   UNL     1       7.508   7.158  17.837  0.00  0.00    +0.000 A 
ATOM     22  C   UNL     1       6.521   7.018  16.867  0.00  0.00    +0.000 A 
ATOM     23  C   UNL     1       5.509   6.066  17.031  0.00  0.00    +0.000 A 
ENDBRANCH   6  18
TORSDOF 2
ENDMDL
MODEL 6
REMARK VINA RESULT:      -8.2      3.426      4.654
REMARK  Name = 
REMARK  2 active torsions:
REMARK  status: ('A' for Active; 'I' for Inactive)
REMARK    1  A    between atoms: C_5  and  C_6
REMARK    2  A    between atoms: C_14  and  C_15
REMARK                            x       y       z     vdW  Elec       q    Type
REMARK                         _______ _______ _______ _____ _____    ______ ____
ROOT
ATOM      1  N   UNL     1       7.829   4.821  12.563  0.00  0.00    +0.000 N 
ATOM      2  C   UNL     1       7.027   4.735  13.682  0.00  0.00    +0.000 A 
ATOM      3  N   UNL     1       5.897   4.054  13.566  0.00  0.00    +0.000 NA
ATOM      4  C   UNL     1       5.099   4.036  14.650  0.00  0.00    +0.000 A 
ATOM      5  C   UNL     1       5.364   4.660  15.863  0.00  0.00    +0.000 A 
ATOM      6  C   UNL     1       6.592   5.344  15.870  0.00  0.00    +0.000 A 
ATOM      7  N   UNL     1       7.406   5.395  14.779  0.00  0.00    +0.000 NA
ATOM      8  H   UNL     1       7.273   4.663  11.736  0.00  0.00    +0.000 HD
ATOM      9  H   UNL     1       8.378   5.665  12.599  0.00  0.00    +0.000 HD
ENDROOT
BRANCH   5  10
ATOM     10  C   UNL     1       4.383   4.573  16.973  0.00  0.00    +0.000 A 
ATOM     11  C   UNL     1       3.749   5.729  17.465  0.00  0.00    +0.000 A 
ATOM     12  C   UNL     1       2.764   5.660  18.460  0.00  0.00    +0.000 A 
ATOM     13  C   UNL     1       2.359   4.423  18.962  0.00  0.00    +0.000 A 
ATOM     14 CL   UNL     1       1.088   4.402  20.128  0.00  0.00    +0.000 Cl
ATOM     15  C   UNL     1       2.982   3.263  18.504  0.00  0.00    +0.000 A 
ATOM     16 CL   UNL     1       2.491   1.686  19.014  0.00  0.00    +0.000 Cl
ATOM     17  C   UNL     1       4.016   3.348  17.561  0.00  0.00    +0.000 A 
ENDBRANCH   5  10
BRANCH   6  18
ATOM     18  C   UNL     1       7.116   6.131  17.021  0.00  0.00    +0.000 A 
ATOM     19  C   UNL     1       7.320   7.520  16.957  0.00  0.00    +0.000 A 
ATOM     20  C   UNL     1       8.033   8.194  17.954  0.00  0.00    +0.000 A 
ATOM     21  C   UNL     1       8.480   7.505  19.079  0.00  0.00    +0.000 A 
ATOM     22  C   UNL     1       8.182   6.154  19.221  0.00  0.00    +0.000 A 
ATOM     23  C   UNL     1       7.509   5.474  18.201  0.00  0.00    +0.000 A 
ENDBRANCH   6  18
TORSDOF 2
ENDMDL
MODEL 7
REMARK VINA RESULT:      -8.2      0.785      1.556
REMARK  Name = 
REMARK  2 active torsions:
REMARK  status: ('A' for Active; 'I' for Inactive)
REMARK    1  A    between atoms: C_5  and  C_6
REMARK    2  A    between atoms: C_14  and  C_15
REMARK                            x       y       z     vdW  Elec       q    Type
REMARK                         _______ _______ _______ _____ _____    ______ ____
ROOT
ATOM      1  N   UNL     1       3.950   0.784  18.227  0.00  0.00    +0.000 N 
ATOM      2  C   UNL     1       3.588   2.073  18.562  0.00  0.00    +0.000 A 
ATOM      3  N   UNL     1       2.341   2.266  18.960  0.00  0.00    +0.000 NA
ATOM      4  C   UNL     1       1.989   3.540  19.221  0.00  0.00    +0.000 A 
ATOM      5  C   UNL     1       2.820   4.649  19.112  0.00  0.00    +0.000 A 
ATOM      6  C   UNL     1       4.119   4.320  18.688  0.00  0.00    +0.000 A 
ATOM      7  N   UNL     1       4.492   3.042  18.398  0.00  0.00    +0.000 NA
ATOM      8  H   UNL     1       3.126   0.252  17.992  0.00  0.00    +0.000 HD
ATOM      9  H   UNL     1       4.699   0.803  17.553  0.00  0.00    +0.000 HD
ENDROOT
BRANCH   5  10
ATOM     10  C   UNL     1       2.295   6.003  19.414  0.00  0.00    +0.000 A 
ATOM     11  C   UNL     1       1.819   6.320  20.700  0.00  0.00    +0.000 A 
ATOM     12  C   UNL     1       1.391   7.615  21.027  0.00  0.00    +0.000 A 
ATOM     13  C   UNL     1       1.465   8.638  20.082  0.00  0.00    +0.000 A 
ATOM     14 CL   UNL     1       0.997  10.225  20.572  0.00  0.00    +0.000 Cl
ATOM     15  C   UNL     1       1.917   8.348  18.796  0.00  0.00    +0.000 A 
ATOM     16 CL   UNL     1       2.114   9.569  17.588  0.00  0.00    +0.000 Cl
ATOM     17  C   UNL     1       2.276   7.036  18.457  0.00  0.00    +0.000 A 
ENDBRANCH   5  10
BRANCH   6  18
ATOM     18  C   UNL     1       5.207   5.309  18.451  0.00  0.00    +0.000 A 
ATOM     19  C   UNL     1       5.202   6.190  17.356  0.00  0.00    +0.000 A 
ATOM     20  C   UNL     1       6.339   6.933  17.019  0.00  0.00    +0.000 A 
ATOM     21  C   UNL     1       7.474   6.875  17.824  0.00  0.00    +0.000 A 
ATOM     22  C   UNL     1       7.459   6.104  18.981  0.00  0.00    +0.000 A 
ATOM     23  C   UNL     1       6.337   5.327  19.289  0.00  0.00    +0.000 A 
ENDBRANCH   6  18
TORSDOF 2
ENDMDL
MODEL 8
REMARK VINA RESULT:      -8.1      3.445      4.698
REMARK  Name = 
REMARK  2 active torsions:
REMARK  status: ('A' for Active; 'I' for Inactive)
REMARK    1  A    between atoms: C_5  and  C_6
REMARK    2  A    between atoms: C_14  and  C_15
REMARK                            x       y       z     vdW  Elec       q    Type
REMARK                         _______ _______ _______ _____ _____    ______ ____
ROOT
ATOM      1  N   UNL     1       7.481   4.493  12.298  0.00  0.00    +0.000 N 
ATOM      2  C   UNL     1       6.752   4.464  13.470  0.00  0.00    +0.000 A 
ATOM      3  N   UNL     1       5.538   3.938  13.414  0.00  0.00    +0.000 NA
ATOM      4  C   UNL     1       4.820   3.977  14.553  0.00  0.00    +0.000 A 
ATOM      5  C   UNL     1       5.245   4.513  15.762  0.00  0.00    +0.000 A 
ATOM      6  C   UNL     1       6.549   5.035  15.701  0.00  0.00    +0.000 A 
ATOM      7  N   UNL     1       7.287   5.026  14.557  0.00  0.00    +0.000 NA
ATOM      8  H   UNL     1       6.854   4.440  11.510  0.00  0.00    +0.000 HD
ATOM      9  H   UNL     1       8.135   5.258  12.321  0.00  0.00    +0.000 HD
ENDROOT
BRANCH   5  10
ATOM     10  C   UNL     1       4.339   4.507  16.937  0.00  0.00    +0.000 A 
ATOM     11  C   UNL     1       3.884   5.713  17.501  0.00  0.00    +0.000 A 
ATOM     12  C   UNL     1       2.967   5.729  18.562  0.00  0.00    +0.000 A 
ATOM     13  C   UNL     1       2.452   4.533  19.062  0.00  0.00    +0.000 A 
ATOM     14 CL   UNL     1       1.270   4.624  20.315  0.00  0.00    +0.000 Cl
ATOM     15  C   UNL     1       2.898   3.323  18.533  0.00  0.00    +0.000 A 
ATOM     16 CL   UNL     1       2.257   1.799  19.039  0.00  0.00    +0.000 Cl
ATOM     17  C   UNL     1       3.868   3.315  17.521  0.00  0.00    +0.000 A 
ENDBRANCH   5  10
BRANCH   6  18
ATOM     18  C   UNL     1       7.247   5.702  16.835  0.00  0.00    +0.000 A 
ATOM     19  C   UNL     1       7.671   5.003  17.979  0.00  0.00    +0.000 A 
ATOM     20  C   UNL     1       8.100   5.682  19.125  0.00  0.00    +0.000 A 
ATOM     21  C   UNL     1       8.198   7.071  19.118  0.00  0.00    +0.000 A 
ATOM     22  C   UNL     1       7.901   7.775  17.956  0.00  0.00    +0.000 A 
ATOM     23  C   UNL     1       7.428   7.097  16.827  0.00  0.00    +0.000 A 
ENDBRANCH   6  18
TORSDOF 2
ENDMDL
MODEL 9
REMARK VINA RESULT:      -8.1      3.080      4.463
REMARK  Name = 
REMARK  2 active torsions:
REMARK  status: ('A' for Active; 'I' for Inactive)
REMARK    1  A    between atoms: C_5  and  C_6
REMARK    2  A    between atoms: C_14  and  C_15
REMARK                            x       y       z     vdW  Elec       q    Type
REMARK                         _______ _______ _______ _____ _____    ______ ____
ROOT
ATOM      1  N   UNL     1       7.847   4.887  12.553  0.00  0.00    +0.000 N 
ATOM      2  C   UNL     1       7.033   4.780  13.662  0.00  0.00    +0.000 A 
ATOM      3  N   UNL     1       5.893   4.124  13.514  0.00  0.00    +0.000 NA
ATOM      4  C   UNL     1       5.084   4.085  14.590  0.00  0.00    +0.000 A 
ATOM      5  C   UNL     1       5.348   4.665  15.825  0.00  0.00    +0.000 A 
ATOM      6  C   UNL     1       6.588   5.326  15.864  0.00  0.00    +0.000 A 
ATOM      7  N   UNL     1       7.413   5.398  14.783  0.00  0.00    +0.000 NA
ATOM      8  H   UNL     1       7.296   4.766  11.717  0.00  0.00    +0.000 HD
ATOM      9  H   UNL     1       8.411   5.720  12.622  0.00  0.00    +0.000 HD
ENDROOT
BRANCH   5  10
ATOM     10  C   UNL     1       4.356   4.561  16.923  0.00  0.00    +0.000 A 
ATOM     11  C   UNL     1       4.007   3.308  17.461  0.00  0.00    +0.000 A 
ATOM     12  C   UNL     1       3.130   3.193  18.549  0.00  0.00    +0.000 A 
ATOM     13  C   UNL     1       2.609   4.338  19.153  0.00  0.00    +0.000 A 
ATOM     14 CL   UNL     1       1.599   4.131  20.537  0.00  0.00    +0.000 Cl
ATOM     15  C   UNL     1       2.926   5.591  18.631  0.00  0.00    +0.000 A 
ATOM     16 CL   UNL     1       2.387   7.061  19.364  0.00  0.00    +0.000 Cl
ATOM     17  C   UNL     1       3.746   5.692  17.499  0.00  0.00    +0.000 A 
ENDBRANCH   5  10
BRANCH   6  18
ATOM     18  C   UNL     1       7.115   6.066  17.045  0.00  0.00    +0.000 A 
ATOM     19  C   UNL     1       7.378   7.446  17.017  0.00  0.00    +0.000 A 
ATOM     20  C   UNL     1       8.094   8.068  18.045  0.00  0.00    +0.000 A 
ATOM     21  C   UNL     1       8.483   7.338  19.165  0.00  0.00    +0.000 A 
ATOM     22  C   UNL     1       8.125   5.999  19.271  0.00  0.00    +0.000 A 
ATOM     23  C   UNL     1       7.450   5.369  18.220  0.00  0.00    +0.000 A 
ENDBRANCH   6  18
TORSDOF 2
ENDMDL
