MODEL 1
REMARK VINA RESULT:      -6.7      0.000      0.000
REMARK  Name = 
REMARK  13 active torsions:
REMARK  status: ('A' for Active; 'I' for Inactive)
REMARK    1  A    between atoms: C_1  and  C_2
REMARK    2  A    between atoms: N_4  and  C_5
REMARK    3  A    between atoms: C_6  and  N_7
REMARK    4  A    between atoms: C_10  and  C_12
REMARK    5  A    between atoms: C_12  and  O_14
REMARK    6  A    between atoms: O_14  and  C_15
REMARK    7  A    between atoms: C_15  and  C_16
REMARK    8  A    between atoms: C_22  and  C_23
REMARK    9  A    between atoms: C_23  and  O_24
REMARK   10  A    between atoms: C_23  and  C_25
REMARK   11  A    between atoms: C_25  and  O_26
REMARK   12  A    between atoms: C_25  and  C_27
REMARK   13  A    between atoms: C_27  and  O_28
REMARK                            x       y       z     vdW  Elec       q    Type
REMARK                         _______ _______ _______ _____ _____    ______ ____
ROOT
ATOM      1  C   UNL     1       4.225   5.643  18.810  0.00  0.00    +0.000 C 
ATOM      2  C   UNL     1       5.749   5.972  18.828  0.00  0.00    +0.000 C 
ATOM      3  C   UNL     1       6.267   6.151  17.378  0.00  0.00    +0.000 C 
ATOM      4  F   UNL     1       7.629   6.233  17.392  0.00  0.00    +0.000 F 
ATOM      5  C   UNL     1       5.831   5.006  16.476  0.00  0.00    +0.000 C 
ATOM      6  F   UNL     1       6.495   3.870  16.833  0.00  0.00    +0.000 F 
ATOM      7  O   UNL     1       4.430   4.713  16.575  0.00  0.00    +0.000 OA
ATOM      8  C   UNL     1       3.945   4.428  17.882  0.00  0.00    +0.000 C 
ENDROOT
BRANCH   1  12
ATOM      9  C   UNL     1       1.839   8.651  18.492  0.00  0.00    +0.000 C 
ATOM     10  C   UNL     1       2.431   7.401  19.096  0.00  0.00    +0.000 C 
ATOM     11  O   UNL     1       2.020   6.936  20.156  0.00  0.00    +0.000 OA
ATOM     12  N   UNL     1       3.459   6.844  18.363  0.00  0.00    +0.000 N 
ATOM     13  H   UNL     1       3.826   7.409  17.607  0.00  0.00    +0.000 HD
ENDBRANCH   1  12
BRANCH   2  14
ATOM     14  N   UNL     1       6.555   5.027  19.623  0.00  0.00    +0.000 NA
ATOM     15  H   UNL     1       6.141   4.101  19.646  0.00  0.00    +0.000 HD
ATOM     16  H   UNL     1       6.670   5.338  20.591  0.00  0.00    +0.000 HD
ENDBRANCH   2  14
BRANCH   5  17
ATOM     17  C   UNL     1       6.063   5.365  15.010  0.00  0.00    +0.000 C 
ATOM     18  O   UNL     1       5.520   6.303  14.437  0.00  0.00    +0.000 OA
BRANCH  17  19
ATOM     19  O   UNL     1       6.904   4.478  14.421  0.00  0.00    +0.000 OA
BRANCH  19  20
ATOM     20  C   UNL     1       7.219   4.725  13.050  0.00  0.00    +0.000 C 
BRANCH  20  21
ATOM     21  C   UNL     1       6.727   3.546  12.279  0.00  0.00    +0.000 A 
ATOM     22  C   UNL     1       7.464   2.583  11.618  0.00  0.00    +0.000 A 
ATOM     23  C   UNL     1       6.636   1.603  10.996  0.00  0.00    +0.000 A 
ATOM     24  C   UNL     1       5.299   1.856  11.201  0.00  0.00    +0.000 A 
ATOM     25  S   UNL     1       5.043   3.263  12.133  0.00  0.00    +0.000 S 
ENDBRANCH  20  21
ENDBRANCH  19  20
ENDBRANCH  17  19
ENDBRANCH   5  17
BRANCH   8  26
ATOM     26  C   UNL     1       4.393   3.025  18.389  0.00  0.00    +0.000 C 
BRANCH  26  27
ATOM     27  O   UNL     1       4.457   3.039  19.822  0.00  0.00    +0.000 OA
ATOM     28  H   UNL     1       3.573   2.773  20.144  0.00  0.00    +0.000 HD
ENDBRANCH  26  27
BRANCH  26  29
ATOM     29  C   UNL     1       3.463   1.869  17.926  0.00  0.00    +0.000 C 
BRANCH  29  30
ATOM     30  O   UNL     1       3.931   0.622  18.479  0.00  0.00    +0.000 OA
ATOM     31  H   UNL     1       4.082  -0.003  17.746  0.00  0.00    +0.000 HD
ENDBRANCH  29  30
BRANCH  29  32
ATOM     32  C   UNL     1       1.973   2.054  18.258  0.00  0.00    +0.000 C 
BRANCH  32  33
ATOM     33  O   UNL     1       1.777   2.111  19.670  0.00  0.00    +0.000 OA
ATOM     34  H   UNL     1       2.012   3.017  19.943  0.00  0.00    +0.000 HD
ENDBRANCH  32  33
ENDBRANCH  29  32
ENDBRANCH  26  29
ENDBRANCH   8  26
TORSDOF 12
ENDMDL
MODEL 2
REMARK VINA RESULT:      -6.6      3.963      6.686
REMARK  Name = 
REMARK  13 active torsions:
REMARK  status: ('A' for Active; 'I' for Inactive)
REMARK    1  A    between atoms: C_1  and  C_2
REMARK    2  A    between atoms: N_4  and  C_5
REMARK    3  A    between atoms: C_6  and  N_7
REMARK    4  A    between atoms: C_10  and  C_12
REMARK    5  A    between atoms: C_12  and  O_14
REMARK    6  A    between atoms: O_14  and  C_15
REMARK    7  A    between atoms: C_15  and  C_16
REMARK    8  A    between atoms: C_22  and  C_23
REMARK    9  A    between atoms: C_23  and  O_24
REMARK   10  A    between atoms: C_23  and  C_25
REMARK   11  A    between atoms: C_25  and  O_26
REMARK   12  A    between atoms: C_25  and  C_27
REMARK   13  A    between atoms: C_27  and  O_28
REMARK                            x       y       z     vdW  Elec       q    Type
REMARK                         _______ _______ _______ _____ _____    ______ ____
ROOT
ATOM      1  C   UNL     1       5.370   4.164  18.347  0.00  0.00    +0.000 C 
ATOM      2  C   UNL     1       5.102   5.003  17.060  0.00  0.00    +0.000 C 
ATOM      3  C   UNL     1       4.265   6.258  17.413  0.00  0.00    +0.000 C 
ATOM      4  F   UNL     1       3.862   6.871  16.262  0.00  0.00    +0.000 F 
ATOM      5  C   UNL     1       3.050   5.908  18.259  0.00  0.00    +0.000 C 
ATOM      6  F   UNL     1       2.150   5.221  17.498  0.00  0.00    +0.000 F 
ATOM      7  O   UNL     1       3.366   5.071  19.379  0.00  0.00    +0.000 OA
ATOM      8  C   UNL     1       4.033   3.851  19.076  0.00  0.00    +0.000 C 
ENDROOT
BRANCH   1  12
ATOM      9  C   UNL     1       8.404   5.882  19.986  0.00  0.00    +0.000 C 
ATOM     10  C   UNL     1       7.656   5.031  18.988  0.00  0.00    +0.000 C 
ATOM     11  O   UNL     1       8.221   4.503  18.034  0.00  0.00    +0.000 OA
ATOM     12  N   UNL     1       6.305   4.908  19.242  0.00  0.00    +0.000 N 
ATOM     13  H   UNL     1       5.924   5.527  19.948  0.00  0.00    +0.000 HD
ENDBRANCH   1  12
BRANCH   2  14
ATOM     14  N   UNL     1       4.538   4.221  15.943  0.00  0.00    +0.000 NA
ATOM     15  H   UNL     1       5.196   4.123  15.178  0.00  0.00    +0.000 HD
ATOM     16  H   UNL     1       3.688   4.647  15.565  0.00  0.00    +0.000 HD
ENDBRANCH   2  14
BRANCH   5  17
ATOM     17  C   UNL     1       2.439   7.171  18.862  0.00  0.00    +0.000 C 
ATOM     18  O   UNL     1       2.373   7.397  20.066  0.00  0.00    +0.000 OA
BRANCH  17  19
ATOM     19  O   UNL     1       1.936   7.977  17.893  0.00  0.00    +0.000 OA
BRANCH  19  20
ATOM     20  C   UNL     1       2.269   9.363  17.991  0.00  0.00    +0.000 C 
BRANCH  20  21
ATOM     21  C   UNL     1       0.996  10.089  18.270  0.00  0.00    +0.000 A 
ATOM     22  C   UNL     1      -0.300   9.680  18.019  0.00  0.00    +0.000 A 
ATOM     23  C   UNL     1      -1.260  10.649  18.432  0.00  0.00    +0.000 A 
ATOM     24  C   UNL     1      -0.664  11.762  18.977  0.00  0.00    +0.000 A 
ATOM     25  S   UNL     1       1.038  11.643  18.991  0.00  0.00    +0.000 S 
ENDBRANCH  20  21
ENDBRANCH  19  20
ENDBRANCH  17  19
ENDBRANCH   5  17
BRANCH   8  26
ATOM     26  C   UNL     1       3.087   2.806  18.412  0.00  0.00    +0.000 C 
BRANCH  26  27
ATOM     27  O   UNL     1       3.873   1.738  17.865  0.00  0.00    +0.000 OA
ATOM     28  H   UNL     1       4.480   2.143  17.214  0.00  0.00    +0.000 HD
ENDBRANCH  26  27
BRANCH  26  29
ATOM     29  C   UNL     1       2.027   2.219  19.386  0.00  0.00    +0.000 C 
BRANCH  29  30
ATOM     30  O   UNL     1       2.510   2.319  20.742  0.00  0.00    +0.000 OA
ATOM     31  H   UNL     1       3.457   2.546  20.716  0.00  0.00    +0.000 HD
ENDBRANCH  29  30
BRANCH  29  32
ATOM     32  C   UNL     1       0.628   2.847  19.288  0.00  0.00    +0.000 C 
BRANCH  32  33
ATOM     33  O   UNL     1       0.515   3.962  20.170  0.00  0.00    +0.000 OA
ATOM     34  H   UNL     1       1.426   4.243  20.375  0.00  0.00    +0.000 HD
ENDBRANCH  32  33
ENDBRANCH  29  32
ENDBRANCH  26  29
ENDBRANCH   8  26
TORSDOF 12
ENDMDL
MODEL 3
REMARK VINA RESULT:      -6.5      3.993      6.743
REMARK  Name = 
REMARK  13 active torsions:
REMARK  status: ('A' for Active; 'I' for Inactive)
REMARK    1  A    between atoms: C_1  and  C_2
REMARK    2  A    between atoms: N_4  and  C_5
REMARK    3  A    between atoms: C_6  and  N_7
REMARK    4  A    between atoms: C_10  and  C_12
REMARK    5  A    between atoms: C_12  and  O_14
REMARK    6  A    between atoms: O_14  and  C_15
REMARK    7  A    between atoms: C_15  and  C_16
REMARK    8  A    between atoms: C_22  and  C_23
REMARK    9  A    between atoms: C_23  and  O_24
REMARK   10  A    between atoms: C_23  and  C_25
REMARK   11  A    between atoms: C_25  and  O_26
REMARK   12  A    between atoms: C_25  and  C_27
REMARK   13  A    between atoms: C_27  and  O_28
REMARK                            x       y       z     vdW  Elec       q    Type
REMARK                         _______ _______ _______ _____ _____    ______ ____
ROOT
ATOM      1  C   UNL     1       5.372   4.195  18.374  0.00  0.00    +0.000 C 
ATOM      2  C   UNL     1       5.075   5.069  17.117  0.00  0.00    +0.000 C 
ATOM      3  C   UNL     1       4.274   6.330  17.528  0.00  0.00    +0.000 C 
ATOM      4  F   UNL     1       3.844   6.977  16.406  0.00  0.00    +0.000 F 
ATOM      5  C   UNL     1       3.083   5.982  18.408  0.00  0.00    +0.000 C 
ATOM      6  F   UNL     1       2.145   5.329  17.663  0.00  0.00    +0.000 F 
ATOM      7  O   UNL     1       3.422   5.113  19.496  0.00  0.00    +0.000 OA
ATOM      8  C   UNL     1       4.055   3.889  19.142  0.00  0.00    +0.000 C 
ENDROOT
BRANCH   1  12
ATOM      9  C   UNL     1       8.496   5.802  19.956  0.00  0.00    +0.000 C 
ATOM     10  C   UNL     1       7.698   4.984  18.969  0.00  0.00    +0.000 C 
ATOM     11  O   UNL     1       8.225   4.448  17.997  0.00  0.00    +0.000 OA
ATOM     12  N   UNL     1       6.351   4.901  19.254  0.00  0.00    +0.000 N 
ATOM     13  H   UNL     1       6.006   5.525  19.973  0.00  0.00    +0.000 HD
ENDBRANCH   1  12
BRANCH   2  14
ATOM     14  N   UNL     1       4.459   4.323  16.003  0.00  0.00    +0.000 NA
ATOM     15  H   UNL     1       3.447   4.328  16.058  0.00  0.00    +0.000 HD
ATOM     16  H   UNL     1       4.762   3.346  15.980  0.00  0.00    +0.000 HD
ENDBRANCH   2  14
BRANCH   5  17
ATOM     17  C   UNL     1       2.517   7.241  19.060  0.00  0.00    +0.000 C 
ATOM     18  O   UNL     1       1.935   7.255  20.139  0.00  0.00    +0.000 OA
BRANCH  17  19
ATOM     19  O   UNL     1       2.697   8.324  18.262  0.00  0.00    +0.000 OA
BRANCH  19  20
ATOM     20  C   UNL     1       1.509   8.970  17.801  0.00  0.00    +0.000 C 
BRANCH  20  21
ATOM     21  C   UNL     1       1.482  10.318  18.439  0.00  0.00    +0.000 A 
ATOM     22  C   UNL     1       2.228  11.436  18.119  0.00  0.00    +0.000 A 
ATOM     23  C   UNL     1       1.918  12.548  18.954  0.00  0.00    +0.000 A 
ATOM     24  C   UNL     1       0.951  12.239  19.883  0.00  0.00    +0.000 A 
ATOM     25  S   UNL     1       0.422  10.622  19.751  0.00  0.00    +0.000 S 
ENDBRANCH  20  21
ENDBRANCH  19  20
ENDBRANCH  17  19
ENDBRANCH   5  17
BRANCH   8  26
ATOM     26  C   UNL     1       3.068   2.877  18.488  0.00  0.00    +0.000 C 
BRANCH  26  27
ATOM     27  O   UNL     1       3.815   1.821  17.868  0.00  0.00    +0.000 OA
ATOM     28  H   UNL     1       4.704   2.183  17.678  0.00  0.00    +0.000 HD
ENDBRANCH  26  27
BRANCH  26  29
ATOM     29  C   UNL     1       2.048   2.266  19.490  0.00  0.00    +0.000 C 
BRANCH  29  30
ATOM     30  O   UNL     1       2.567   2.373  20.832  0.00  0.00    +0.000 OA
ATOM     31  H   UNL     1       3.540   2.369  20.788  0.00  0.00    +0.000 HD
ENDBRANCH  29  30
BRANCH  29  32
ATOM     32  C   UNL     1       0.634   2.866  19.433  0.00  0.00    +0.000 C 
BRANCH  32  33
ATOM     33  O   UNL     1       0.536   4.002  20.289  0.00  0.00    +0.000 OA
ATOM     34  H   UNL     1      -0.147   3.788  20.952  0.00  0.00    +0.000 HD
ENDBRANCH  32  33
ENDBRANCH  29  32
ENDBRANCH  26  29
ENDBRANCH   8  26
TORSDOF 12
ENDMDL
MODEL 4
REMARK VINA RESULT:      -6.5      4.216      7.282
REMARK  Name = 
REMARK  13 active torsions:
REMARK  status: ('A' for Active; 'I' for Inactive)
REMARK    1  A    between atoms: C_1  and  C_2
REMARK    2  A    between atoms: N_4  and  C_5
REMARK    3  A    between atoms: C_6  and  N_7
REMARK    4  A    between atoms: C_10  and  C_12
REMARK    5  A    between atoms: C_12  and  O_14
REMARK    6  A    between atoms: O_14  and  C_15
REMARK    7  A    between atoms: C_15  and  C_16
REMARK    8  A    between atoms: C_22  and  C_23
REMARK    9  A    between atoms: C_23  and  O_24
REMARK   10  A    between atoms: C_23  and  C_25
REMARK   11  A    between atoms: C_25  and  O_26
REMARK   12  A    between atoms: C_25  and  C_27
REMARK   13  A    between atoms: C_27  and  O_28
REMARK                            x       y       z     vdW  Elec       q    Type
REMARK                         _______ _______ _______ _____ _____    ______ ____
ROOT
ATOM      1  C   UNL     1       4.949   4.282  18.826  0.00  0.00    +0.000 C 
ATOM      2  C   UNL     1       4.846   4.773  17.349  0.00  0.00    +0.000 C 
ATOM      3  C   UNL     1       4.301   6.223  17.312  0.00  0.00    +0.000 C 
ATOM      4  F   UNL     1       4.021   6.566  16.021  0.00  0.00    +0.000 F 
ATOM      5  C   UNL     1       3.052   6.380  18.167  0.00  0.00    +0.000 C 
ATOM      6  F   UNL     1       2.016   5.715  17.581  0.00  0.00    +0.000 F 
ATOM      7  O   UNL     1       3.200   5.835  19.484  0.00  0.00    +0.000 OA
ATOM      8  C   UNL     1       3.587   4.468  19.553  0.00  0.00    +0.000 C 
ENDROOT
BRANCH   1  12
ATOM      9  C   UNL     1       8.261   5.930  19.903  0.00  0.00    +0.000 C 
ATOM     10  C   UNL     1       7.341   5.057  19.084  0.00  0.00    +0.000 C 
ATOM     11  O   UNL     1       7.742   4.431  18.106  0.00  0.00    +0.000 OA
ATOM     12  N   UNL     1       6.034   5.031  19.527  0.00  0.00    +0.000 N 
ATOM     13  H   UNL     1       5.786   5.719  20.227  0.00  0.00    +0.000 HD
ENDBRANCH   1  12
BRANCH   2  14
ATOM     14  N   UNL     1       4.112   3.850  16.463  0.00  0.00    +0.000 NA
ATOM     15  H   UNL     1       3.387   3.345  16.959  0.00  0.00    +0.000 HD
ATOM     16  H   UNL     1       4.730   3.158  16.032  0.00  0.00    +0.000 HD
ENDBRANCH   2  14
BRANCH   5  17
ATOM     17  C   UNL     1       2.734   7.859  18.377  0.00  0.00    +0.000 C 
ATOM     18  O   UNL     1       3.256   8.771  17.745  0.00  0.00    +0.000 OA
BRANCH  17  19
ATOM     19  O   UNL     1       1.844   8.025  19.387  0.00  0.00    +0.000 OA
BRANCH  19  20
ATOM     20  C   UNL     1       1.048   9.210  19.336  0.00  0.00    +0.000 C 
BRANCH  20  21
ATOM     21  C   UNL     1       0.606   9.488  20.733  0.00  0.00    +0.000 A 
ATOM     22  C   UNL     1       0.954   8.823  21.893  0.00  0.00    +0.000 A 
ATOM     23  C   UNL     1       0.330   9.385  23.044  0.00  0.00    +0.000 A 
ATOM     24  C   UNL     1      -0.474  10.454  22.722  0.00  0.00    +0.000 A 
ATOM     25  S   UNL     1      -0.479  10.777  21.047  0.00  0.00    +0.000 S 
ENDBRANCH  20  21
ENDBRANCH  19  20
ENDBRANCH  17  19
ENDBRANCH   5  17
BRANCH   8  26
ATOM     26  C   UNL     1       2.430   3.502  19.156  0.00  0.00    +0.000 C 
BRANCH  26  27
ATOM     27  O   UNL     1       2.970   2.198  18.900  0.00  0.00    +0.000 OA
ATOM     28  H   UNL     1       3.842   2.335  18.478  0.00  0.00    +0.000 HD
ENDBRANCH  26  27
BRANCH  26  29
ATOM     29  C   UNL     1       1.313   3.395  20.232  0.00  0.00    +0.000 C 
BRANCH  29  30
ATOM     30  O   UNL     1       0.093   2.934  19.616  0.00  0.00    +0.000 OA
ATOM     31  H   UNL     1      -0.497   2.596  20.314  0.00  0.00    +0.000 HD
ENDBRANCH  29  30
BRANCH  29  32
ATOM     32  C   UNL     1       1.650   2.506  21.440  0.00  0.00    +0.000 C 
BRANCH  32  33
ATOM     33  O   UNL     1       2.304   3.266  22.454  0.00  0.00    +0.000 OA
ATOM     34  H   UNL     1       2.860   2.638  22.952  0.00  0.00    +0.000 HD
ENDBRANCH  32  33
ENDBRANCH  29  32
ENDBRANCH  26  29
ENDBRANCH   8  26
TORSDOF 12
ENDMDL
MODEL 5
REMARK VINA RESULT:      -6.3      4.105      7.079
REMARK  Name = 
REMARK  13 active torsions:
REMARK  status: ('A' for Active; 'I' for Inactive)
REMARK    1  A    between atoms: C_1  and  C_2
REMARK    2  A    between atoms: N_4  and  C_5
REMARK    3  A    between atoms: C_6  and  N_7
REMARK    4  A    between atoms: C_10  and  C_12
REMARK    5  A    between atoms: C_12  and  O_14
REMARK    6  A    between atoms: O_14  and  C_15
REMARK    7  A    between atoms: C_15  and  C_16
REMARK    8  A    between atoms: C_22  and  C_23
REMARK    9  A    between atoms: C_23  and  O_24
REMARK   10  A    between atoms: C_23  and  C_25
REMARK   11  A    between atoms: C_25  and  O_26
REMARK   12  A    between atoms: C_25  and  C_27
REMARK   13  A    between atoms: C_27  and  O_28
REMARK                            x       y       z     vdW  Elec       q    Type
REMARK                         _______ _______ _______ _____ _____    ______ ____
ROOT
ATOM      1  C   UNL     1       5.395   4.098  18.505  0.00  0.00    +0.000 C 
ATOM      2  C   UNL     1       5.153   4.758  17.113  0.00  0.00    +0.000 C 
ATOM      3  C   UNL     1       4.375   6.087  17.286  0.00  0.00    +0.000 C 
ATOM      4  F   UNL     1       3.990   6.548  16.061  0.00  0.00    +0.000 F 
ATOM      5  C   UNL     1       3.152   5.914  18.176  0.00  0.00    +0.000 C 
ATOM      6  F   UNL     1       2.218   5.167  17.521  0.00  0.00    +0.000 F 
ATOM      7  O   UNL     1       3.441   5.229  19.402  0.00  0.00    +0.000 OA
ATOM      8  C   UNL     1       4.051   3.951  19.273  0.00  0.00    +0.000 C 
ENDROOT
BRANCH   1  12
ATOM      9  C   UNL     1       8.488   5.982  19.820  0.00  0.00    +0.000 C 
ATOM     10  C   UNL     1       7.696   5.052  18.933  0.00  0.00    +0.000 C 
ATOM     11  O   UNL     1       8.211   4.472  17.980  0.00  0.00    +0.000 OA
ATOM     12  N   UNL     1       6.368   4.919  19.285  0.00  0.00    +0.000 N 
ATOM     13  H   UNL     1       6.020   5.576  19.972  0.00  0.00    +0.000 HD
ENDBRANCH   1  12
BRANCH   2  14
ATOM     14  N   UNL     1       4.547   3.852  16.119  0.00  0.00    +0.000 NA
ATOM     15  H   UNL     1       4.673   2.877  16.368  0.00  0.00    +0.000 HD
ATOM     16  H   UNL     1       4.944   3.985  15.185  0.00  0.00    +0.000 HD
ENDBRANCH   2  14
BRANCH   5  17
ATOM     17  C   UNL     1       2.602   7.275  18.595  0.00  0.00    +0.000 C 
ATOM     18  O   UNL     1       3.004   8.346  18.152  0.00  0.00    +0.000 OA
BRANCH  17  19
ATOM     19  O   UNL     1       1.655   7.140  19.557  0.00  0.00    +0.000 OA
BRANCH  19  20
ATOM     20  C   UNL     1       1.929   7.783  20.804  0.00  0.00    +0.000 C 
BRANCH  20  21
ATOM     21  C   UNL     1       0.948   8.899  20.933  0.00  0.00    +0.000 A 
ATOM     22  C   UNL     1       0.358   9.645  19.930  0.00  0.00    +0.000 A 
ATOM     23  C   UNL     1      -0.536  10.628  20.445  0.00  0.00    +0.000 A 
ATOM     24  C   UNL     1      -0.593  10.600  21.820  0.00  0.00    +0.000 A 
ATOM     25  S   UNL     1       0.423   9.401  22.484  0.00  0.00    +0.000 S 
ENDBRANCH  20  21
ENDBRANCH  19  20
ENDBRANCH  17  19
ENDBRANCH   5  17
BRANCH   8  26
ATOM     26  C   UNL     1       3.056   2.865  18.766  0.00  0.00    +0.000 C 
BRANCH  26  27
ATOM     27  O   UNL     1       3.795   1.736  18.280  0.00  0.00    +0.000 OA
ATOM     28  H   UNL     1       3.412   1.505  17.410  0.00  0.00    +0.000 HD
ENDBRANCH  26  27
BRANCH  26  29
ATOM     29  C   UNL     1       2.046   2.392  19.849  0.00  0.00    +0.000 C 
BRANCH  29  30
ATOM     30  O   UNL     1       2.623   2.572  21.158  0.00  0.00    +0.000 OA
ATOM     31  H   UNL     1       2.162   1.984  21.783  0.00  0.00    +0.000 HD
ENDBRANCH  29  30
BRANCH  29  32
ATOM     32  C   UNL     1       0.665   3.065  19.796  0.00  0.00    +0.000 C 
BRANCH  32  33
ATOM     33  O   UNL     1       0.729   4.384  20.335  0.00  0.00    +0.000 OA
ATOM     34  H   UNL     1       1.588   4.753  20.057  0.00  0.00    +0.000 HD
ENDBRANCH  32  33
ENDBRANCH  29  32
ENDBRANCH  26  29
ENDBRANCH   8  26
TORSDOF 12
ENDMDL
MODEL 6
REMARK VINA RESULT:      -6.2      2.544      6.338
REMARK  Name = 
REMARK  13 active torsions:
REMARK  status: ('A' for Active; 'I' for Inactive)
REMARK    1  A    between atoms: C_1  and  C_2
REMARK    2  A    between atoms: N_4  and  C_5
REMARK    3  A    between atoms: C_6  and  N_7
REMARK    4  A    between atoms: C_10  and  C_12
REMARK    5  A    between atoms: C_12  and  O_14
REMARK    6  A    between atoms: O_14  and  C_15
REMARK    7  A    between atoms: C_15  and  C_16
REMARK    8  A    between atoms: C_22  and  C_23
REMARK    9  A    between atoms: C_23  and  O_24
REMARK   10  A    between atoms: C_23  and  C_25
REMARK   11  A    between atoms: C_25  and  O_26
REMARK   12  A    between atoms: C_25  and  C_27
REMARK   13  A    between atoms: C_27  and  O_28
REMARK                            x       y       z     vdW  Elec       q    Type
REMARK                         _______ _______ _______ _____ _____    ______ ____
ROOT
ATOM      1  C   UNL     1       5.489   6.145  15.992  0.00  0.00    +0.000 C 
ATOM      2  C   UNL     1       6.738   5.939  16.903  0.00  0.00    +0.000 C 
ATOM      3  C   UNL     1       6.573   4.646  17.740  0.00  0.00    +0.000 C 
ATOM      4  F   UNL     1       7.564   4.584  18.676  0.00  0.00    +0.000 F 
ATOM      5  C   UNL     1       5.216   4.586  18.427  0.00  0.00    +0.000 C 
ATOM      6  F   UNL     1       5.166   5.525  19.415  0.00  0.00    +0.000 F 
ATOM      7  O   UNL     1       4.124   4.863  17.539  0.00  0.00    +0.000 OA
ATOM      8  C   UNL     1       4.188   6.102  16.842  0.00  0.00    +0.000 C 
ENDROOT
BRANCH   1  12
ATOM      9  C   UNL     1       6.334   3.685  13.150  0.00  0.00    +0.000 C 
ATOM     10  C   UNL     1       6.547   4.829  14.111  0.00  0.00    +0.000 C 
ATOM     11  O   UNL     1       7.604   5.455  14.149  0.00  0.00    +0.000 OA
ATOM     12  N   UNL     1       5.468   5.098  14.928  0.00  0.00    +0.000 N 
ATOM     13  H   UNL     1       4.726   4.409  14.930  0.00  0.00    +0.000 HD
ENDBRANCH   1  12
BRANCH   2  14
ATOM     14  N   UNL     1       7.087   7.120  17.715  0.00  0.00    +0.000 NA
ATOM     15  H   UNL     1       8.091   7.249  17.786  0.00  0.00    +0.000 HD
ATOM     16  H   UNL     1       6.717   7.055  18.667  0.00  0.00    +0.000 HD
ENDBRANCH   2  14
BRANCH   5  17
ATOM     17  C   UNL     1       4.952   3.181  18.962  0.00  0.00    +0.000 C 
ATOM     18  O   UNL     1       5.370   2.764  20.036  0.00  0.00    +0.000 OA
BRANCH  17  19
ATOM     19  O   UNL     1       4.244   2.446  18.067  0.00  0.00    +0.000 OA
BRANCH  19  20
ATOM     20  C   UNL     1       3.341   1.485  18.617  0.00  0.00    +0.000 C 
BRANCH  20  21
ATOM     21  C   UNL     1       2.348   2.247  19.428  0.00  0.00    +0.000 A 
ATOM     22  C   UNL     1       2.214   2.290  20.803  0.00  0.00    +0.000 A 
ATOM     23  C   UNL     1       1.146   3.140  21.213  0.00  0.00    +0.000 A 
ATOM     24  C   UNL     1       0.502   3.711  20.140  0.00  0.00    +0.000 A 
ATOM     25  S   UNL     1       1.177   3.226  18.649  0.00  0.00    +0.000 S 
ENDBRANCH  20  21
ENDBRANCH  19  20
ENDBRANCH  17  19
ENDBRANCH   5  17
BRANCH   8  26
ATOM     26  C   UNL     1       3.899   7.321  17.767  0.00  0.00    +0.000 C 
BRANCH  26  27
ATOM     27  O   UNL     1       4.211   8.532  17.063  0.00  0.00    +0.000 OA
ATOM     28  H   UNL     1       4.117   9.262  17.708  0.00  0.00    +0.000 HD
ENDBRANCH  26  27
BRANCH  26  29
ATOM     29  C   UNL     1       2.432   7.384  18.275  0.00  0.00    +0.000 C 
BRANCH  29  30
ATOM     30  O   UNL     1       2.294   6.566  19.455  0.00  0.00    +0.000 OA
ATOM     31  H   UNL     1       1.404   6.707  19.826  0.00  0.00    +0.000 HD
ENDBRANCH  29  30
BRANCH  29  32
ATOM     32  C   UNL     1       1.896   8.796  18.558  0.00  0.00    +0.000 C 
BRANCH  32  33
ATOM     33  O   UNL     1       1.703   9.514  17.341  0.00  0.00    +0.000 OA
ATOM     34  H   UNL     1       2.106   8.972  16.637  0.00  0.00    +0.000 HD
ENDBRANCH  32  33
ENDBRANCH  29  32
ENDBRANCH  26  29
ENDBRANCH   8  26
TORSDOF 12
ENDMDL
MODEL 7
REMARK VINA RESULT:      -6.1      3.919      6.847
REMARK  Name = 
REMARK  13 active torsions:
REMARK  status: ('A' for Active; 'I' for Inactive)
REMARK    1  A    between atoms: C_1  and  C_2
REMARK    2  A    between atoms: N_4  and  C_5
REMARK    3  A    between atoms: C_6  and  N_7
REMARK    4  A    between atoms: C_10  and  C_12
REMARK    5  A    between atoms: C_12  and  O_14
REMARK    6  A    between atoms: O_14  and  C_15
REMARK    7  A    between atoms: C_15  and  C_16
REMARK    8  A    between atoms: C_22  and  C_23
REMARK    9  A    between atoms: C_23  and  O_24
REMARK   10  A    between atoms: C_23  and  C_25
REMARK   11  A    between atoms: C_25  and  O_26
REMARK   12  A    between atoms: C_25  and  C_27
REMARK   13  A    between atoms: C_27  and  O_28
REMARK                            x       y       z     vdW  Elec       q    Type
REMARK                         _______ _______ _______ _____ _____    ______ ____
ROOT
ATOM      1  C   UNL     1       5.209   4.224  18.342  0.00  0.00    +0.000 C 
ATOM      2  C   UNL     1       4.986   5.131  17.093  0.00  0.00    +0.000 C 
ATOM      3  C   UNL     1       4.247   6.428  17.508  0.00  0.00    +0.000 C 
ATOM      4  F   UNL     1       3.875   7.114  16.388  0.00  0.00    +0.000 F 
ATOM      5  C   UNL     1       3.020   6.133  18.359  0.00  0.00    +0.000 C 
ATOM      6  F   UNL     1       2.064   5.544  17.586  0.00  0.00    +0.000 F 
ATOM      7  O   UNL     1       3.289   5.230  19.440  0.00  0.00    +0.000 OA
ATOM      8  C   UNL     1       3.862   3.979  19.079  0.00  0.00    +0.000 C 
ENDROOT
BRANCH   1  12
ATOM      9  C   UNL     1       8.369   5.701  19.977  0.00  0.00    +0.000 C 
ATOM     10  C   UNL     1       7.550   4.958  18.950  0.00  0.00    +0.000 C 
ATOM     11  O   UNL     1       8.056   4.488  17.934  0.00  0.00    +0.000 OA
ATOM     12  N   UNL     1       6.206   4.862  19.251  0.00  0.00    +0.000 N 
ATOM     13  H   UNL     1       5.878   5.436  20.018  0.00  0.00    +0.000 HD
ENDBRANCH   1  12
BRANCH   2  14
ATOM     14  N   UNL     1       4.353   4.437  15.956  0.00  0.00    +0.000 NA
ATOM     15  H   UNL     1       3.358   4.626  15.902  0.00  0.00    +0.000 HD
ATOM     16  H   UNL     1       4.471   3.422  16.010  0.00  0.00    +0.000 HD
ENDBRANCH   2  14
BRANCH   5  17
ATOM     17  C   UNL     1       2.511   7.411  19.020  0.00  0.00    +0.000 C 
ATOM     18  O   UNL     1       2.014   7.456  20.140  0.00  0.00    +0.000 OA
BRANCH  17  19
ATOM     19  O   UNL     1       2.633   8.472  18.182  0.00  0.00    +0.000 OA
BRANCH  19  20
ATOM     20  C   UNL     1       1.415   9.118  17.804  0.00  0.00    +0.000 C 
BRANCH  20  21
ATOM     21  C   UNL     1       1.338  10.380  18.595  0.00  0.00    +0.000 A 
ATOM     22  C   UNL     1       0.583  10.644  19.721  0.00  0.00    +0.000 A 
ATOM     23  C   UNL     1       0.779  11.972  20.202  0.00  0.00    +0.000 A 
ATOM     24  C   UNL     1       1.671  12.673  19.425  0.00  0.00    +0.000 A 
ATOM     25  S   UNL     1       2.267  11.742  18.125  0.00  0.00    +0.000 S 
ENDBRANCH  20  21
ENDBRANCH  19  20
ENDBRANCH  17  19
ENDBRANCH   5  17
BRANCH   8  26
ATOM     26  C   UNL     1       2.834   3.032  18.390  0.00  0.00    +0.000 C 
BRANCH  26  27
ATOM     27  O   UNL     1       3.457   1.765  18.134  0.00  0.00    +0.000 OA
ATOM     28  H   UNL     1       2.870   1.286  17.515  0.00  0.00    +0.000 HD
ENDBRANCH  26  27
BRANCH  26  29
ATOM     29  C   UNL     1       1.538   2.811  19.219  0.00  0.00    +0.000 C 
BRANCH  29  30
ATOM     30  O   UNL     1       0.735   1.787  18.596  0.00  0.00    +0.000 OA
ATOM     31  H   UNL     1       1.266   0.972  18.537  0.00  0.00    +0.000 HD
ENDBRANCH  29  30
BRANCH  29  32
ATOM     32  C   UNL     1       1.759   2.464  20.700  0.00  0.00    +0.000 C 
BRANCH  32  33
ATOM     33  O   UNL     1       1.654   3.634  21.510  0.00  0.00    +0.000 OA
ATOM     34  H   UNL     1       0.711   3.880  21.515  0.00  0.00    +0.000 HD
ENDBRANCH  32  33
ENDBRANCH  29  32
ENDBRANCH  26  29
ENDBRANCH   8  26
TORSDOF 12
ENDMDL
MODEL 8
REMARK VINA RESULT:      -6.1      6.342      9.053
REMARK  Name = 
REMARK  13 active torsions:
REMARK  status: ('A' for Active; 'I' for Inactive)
REMARK    1  A    between atoms: C_1  and  C_2
REMARK    2  A    between atoms: N_4  and  C_5
REMARK    3  A    between atoms: C_6  and  N_7
REMARK    4  A    between atoms: C_10  and  C_12
REMARK    5  A    between atoms: C_12  and  O_14
REMARK    6  A    between atoms: O_14  and  C_15
REMARK    7  A    between atoms: C_15  and  C_16
REMARK    8  A    between atoms: C_22  and  C_23
REMARK    9  A    between atoms: C_23  and  O_24
REMARK   10  A    between atoms: C_23  and  C_25
REMARK   11  A    between atoms: C_25  and  O_26
REMARK   12  A    between atoms: C_25  and  C_27
REMARK   13  A    between atoms: C_27  and  O_28
REMARK                            x       y       z     vdW  Elec       q    Type
REMARK                         _______ _______ _______ _____ _____    ______ ____
ROOT
ATOM      1  C   UNL     1       0.016  12.777  20.437  0.00  0.00    +0.000 C 
ATOM      2  C   UNL     1       0.209  11.603  21.445  0.00  0.00    +0.000 C 
ATOM      3  C   UNL     1       1.048  10.477  20.790  0.00  0.00    +0.000 C 
ATOM      4  F   UNL     1       1.035   9.377  21.598  0.00  0.00    +0.000 F 
ATOM      5  C   UNL     1       0.519  10.106  19.412  0.00  0.00    +0.000 C 
ATOM      6  F   UNL     1      -0.682   9.473  19.543  0.00  0.00    +0.000 F 
ATOM      7  O   UNL     1       0.294  11.246  18.571  0.00  0.00    +0.000 OA
ATOM      8  C   UNL     1      -0.569  12.247  19.097  0.00  0.00    +0.000 C 
ENDROOT
BRANCH   1  12
ATOM      9  C   UNL     1       3.277  14.804  20.756  0.00  0.00    +0.000 C 
ATOM     10  C   UNL     1       1.928  14.262  21.163  0.00  0.00    +0.000 C 
ATOM     11  O   UNL     1       1.429  14.520  22.256  0.00  0.00    +0.000 OA
ATOM     12  N   UNL     1       1.323  13.464  20.214  0.00  0.00    +0.000 N 
ATOM     13  H   UNL     1       1.903  13.180  19.433  0.00  0.00    +0.000 HD
ENDBRANCH   1  12
BRANCH   2  14
ATOM     14  N   UNL     1      -1.048  11.120  22.047  0.00  0.00    +0.000 NA
ATOM     15  H   UNL     1      -1.823  11.167  21.395  0.00  0.00    +0.000 HD
ATOM     16  H   UNL     1      -1.310  11.660  22.876  0.00  0.00    +0.000 HD
ENDBRANCH   2  14
BRANCH   5  17
ATOM     17  C   UNL     1       1.537   9.249  18.664  0.00  0.00    +0.000 C 
ATOM     18  O   UNL     1       1.943   9.493  17.533  0.00  0.00    +0.000 OA
BRANCH  17  19
ATOM     19  O   UNL     1       1.886   8.161  19.396  0.00  0.00    +0.000 OA
BRANCH  19  20
ATOM     20  C   UNL     1       2.623   7.149  18.707  0.00  0.00    +0.000 C 
BRANCH  20  21
ATOM     21  C   UNL     1       2.146   5.839  19.236  0.00  0.00    +0.000 A 
ATOM     22  C   UNL     1       1.742   5.526  20.520  0.00  0.00    +0.000 A 
ATOM     23  C   UNL     1       1.347   4.162  20.643  0.00  0.00    +0.000 A 
ATOM     24  C   UNL     1       1.466   3.484  19.452  0.00  0.00    +0.000 A 
ATOM     25  S   UNL     1       2.051   4.480  18.196  0.00  0.00    +0.000 S 
ENDBRANCH  20  21
ENDBRANCH  19  20
ENDBRANCH  17  19
ENDBRANCH   5  17
BRANCH   8  26
ATOM     26  C   UNL     1      -2.063  11.805  19.097  0.00  0.00    +0.000 C 
BRANCH  26  27
ATOM     27  O   UNL     1      -2.855  12.818  19.733  0.00  0.00    +0.000 OA
ATOM     28  H   UNL     1      -2.607  13.668  19.318  0.00  0.00    +0.000 HD
ENDBRANCH  26  27
BRANCH  26  29
ATOM     29  C   UNL     1      -2.629  11.525  17.676  0.00  0.00    +0.000 C 
BRANCH  29  30
ATOM     30  O   UNL     1      -1.785  12.152  16.689  0.00  0.00    +0.000 OA
ATOM     31  H   UNL     1      -0.880  12.207  17.046  0.00  0.00    +0.000 HD
ENDBRANCH  29  30
BRANCH  29  32
ATOM     32  C   UNL     1      -2.818  10.040  17.328  0.00  0.00    +0.000 C 
BRANCH  32  33
ATOM     33  O   UNL     1      -3.247   9.893  15.976  0.00  0.00    +0.000 OA
ATOM     34  H   UNL     1      -2.468   9.597  15.470  0.00  0.00    +0.000 HD
ENDBRANCH  32  33
ENDBRANCH  29  32
ENDBRANCH  26  29
ENDBRANCH   8  26
TORSDOF 12
ENDMDL
MODEL 9
REMARK VINA RESULT:      -6.0      4.136      7.179
REMARK  Name = 
REMARK  13 active torsions:
REMARK  status: ('A' for Active; 'I' for Inactive)
REMARK    1  A    between atoms: C_1  and  C_2
REMARK    2  A    between atoms: N_4  and  C_5
REMARK    3  A    between atoms: C_6  and  N_7
REMARK    4  A    between atoms: C_10  and  C_12
REMARK    5  A    between atoms: C_12  and  O_14
REMARK    6  A    between atoms: O_14  and  C_15
REMARK    7  A    between atoms: C_15  and  C_16
REMARK    8  A    between atoms: C_22  and  C_23
REMARK    9  A    between atoms: C_23  and  O_24
REMARK   10  A    between atoms: C_23  and  C_25
REMARK   11  A    between atoms: C_25  and  O_26
REMARK   12  A    between atoms: C_25  and  C_27
REMARK   13  A    between atoms: C_27  and  O_28
REMARK                            x       y       z     vdW  Elec       q    Type
REMARK                         _______ _______ _______ _____ _____    ______ ____
ROOT
ATOM      1  C   UNL     1       5.248   4.381  18.692  0.00  0.00    +0.000 C 
ATOM      2  C   UNL     1       5.092   4.850  17.212  0.00  0.00    +0.000 C 
ATOM      3  C   UNL     1       4.478   6.272  17.171  0.00  0.00    +0.000 C 
ATOM      4  F   UNL     1       4.157   6.587  15.883  0.00  0.00    +0.000 F 
ATOM      5  C   UNL     1       3.240   6.379  18.049  0.00  0.00    +0.000 C 
ATOM      6  F   UNL     1       2.225   5.658  17.492  0.00  0.00    +0.000 F 
ATOM      7  O   UNL     1       3.440   5.856  19.369  0.00  0.00    +0.000 OA
ATOM      8  C   UNL     1       3.893   4.509  19.444  0.00  0.00    +0.000 C 
ENDROOT
BRANCH   1  12
ATOM      9  C   UNL     1       8.531   6.091  19.759  0.00  0.00    +0.000 C 
ATOM     10  C   UNL     1       7.638   5.144  18.994  0.00  0.00    +0.000 C 
ATOM     11  O   UNL     1       8.078   4.405  18.116  0.00  0.00    +0.000 OA
ATOM     12  N   UNL     1       6.309   5.188  19.363  0.00  0.00    +0.000 N 
ATOM     13  H   UNL     1       6.038   5.955  19.966  0.00  0.00    +0.000 HD
ENDBRANCH   1  12
BRANCH   2  14
ATOM     14  N   UNL     1       4.386   3.884  16.350  0.00  0.00    +0.000 NA
ATOM     15  H   UNL     1       4.079   3.067  16.868  0.00  0.00    +0.000 HD
ATOM     16  H   UNL     1       4.973   3.556  15.578  0.00  0.00    +0.000 HD
ENDBRANCH   2  14
BRANCH   5  17
ATOM     17  C   UNL     1       2.856   7.843  18.251  0.00  0.00    +0.000 C 
ATOM     18  O   UNL     1       3.376   8.779  17.654  0.00  0.00    +0.000 OA
BRANCH  17  19
ATOM     19  O   UNL     1       1.907   7.967  19.213  0.00  0.00    +0.000 OA
BRANCH  19  20
ATOM     20  C   UNL     1       1.154   9.182  19.201  0.00  0.00    +0.000 C 
BRANCH  20  21
ATOM     21  C   UNL     1       0.711   9.423  20.605  0.00  0.00    +0.000 A 
ATOM     22  C   UNL     1       1.080   8.746  21.751  0.00  0.00    +0.000 A 
ATOM     23  C   UNL     1       0.448   9.272  22.915  0.00  0.00    +0.000 A 
ATOM     24  C   UNL     1      -0.383  10.327  22.615  0.00  0.00    +0.000 A 
ATOM     25  S   UNL     1      -0.403  10.680  20.946  0.00  0.00    +0.000 S 
ENDBRANCH  20  21
ENDBRANCH  19  20
ENDBRANCH  17  19
ENDBRANCH   5  17
BRANCH   8  26
ATOM     26  C   UNL     1       2.776   3.486  19.080  0.00  0.00    +0.000 C 
BRANCH  26  27
ATOM     27  O   UNL     1       3.378   2.224  18.758  0.00  0.00    +0.000 OA
ATOM     28  H   UNL     1       2.882   1.864  17.996  0.00  0.00    +0.000 HD
ENDBRANCH  26  27
BRANCH  26  29
ATOM     29  C   UNL     1       1.727   3.282  20.209  0.00  0.00    +0.000 C 
BRANCH  29  30
ATOM     30  O   UNL     1       1.691   4.452  21.051  0.00  0.00    +0.000 OA
ATOM     31  H   UNL     1       1.475   5.225  20.498  0.00  0.00    +0.000 HD
ENDBRANCH  29  30
BRANCH  29  32
ATOM     32  C   UNL     1       0.305   2.947  19.730  0.00  0.00    +0.000 C 
BRANCH  32  33
ATOM     33  O   UNL     1       0.349   2.203  18.514  0.00  0.00    +0.000 OA
ATOM     34  H   UNL     1       0.828   1.377  18.714  0.00  0.00    +0.000 HD
ENDBRANCH  32  33
ENDBRANCH  29  32
ENDBRANCH  26  29
ENDBRANCH   8  26
TORSDOF 12
ENDMDL
