MODEL 1
REMARK VINA RESULT:      -8.7      0.000      0.000
REMARK  Name = 
REMARK  9 active torsions:
REMARK  status: ('A' for Active; 'I' for Inactive)
REMARK    1  A    between atoms: C_1  and  C_2
REMARK    2  A    between atoms: C_5  and  C_6
REMARK    3  A    between atoms: C_6  and  N_7
REMARK    4  A    between atoms: N_7  and  C_8
REMARK    5  A    between atoms: N_7  and  S_15
REMARK    6  A    between atoms: C_8  and  C_9
REMARK    7  A    between atoms: S_15  and  C_18
REMARK    8  A    between atoms: C_21  and  C_22
REMARK    9  A    between atoms: C_22  and  O_24
REMARK                            x       y       z     vdW  Elec       q    Type
REMARK                         _______ _______ _______ _____ _____    ______ ____
ROOT
ATOM      1  N   UNL     1       4.128   5.547  18.152  0.00  0.00    +0.000 NA
ENDROOT
BRANCH   1   2
ATOM      2  S   UNL     1       5.812   5.350  18.043  0.00  0.00    +0.000 S 
ATOM      3  O   UNL     1       6.449   6.643  18.179  0.00  0.00    +0.000 OA
ATOM      4  O   UNL     1       6.186   4.217  18.865  0.00  0.00    +0.000 OA
BRANCH   2   5
ATOM      5  C   UNL     1       6.026   4.880  16.331  0.00  0.00    +0.000 A 
ATOM      6  C   UNL     1       7.140   5.365  15.634  0.00  0.00    +0.000 A 
ATOM      7  C   UNL     1       7.362   4.966  14.311  0.00  0.00    +0.000 A 
ATOM      8  C   UNL     1       6.464   4.091  13.682  0.00  0.00    +0.000 A 
ATOM      9  C   UNL     1       5.365   3.593  14.398  0.00  0.00    +0.000 A 
ATOM     10  C   UNL     1       5.142   3.985  15.723  0.00  0.00    +0.000 A 
BRANCH   8  11
ATOM     11  C   UNL     1       6.664   3.612  12.286  0.00  0.00    +0.000 C 
ATOM     12  O   UNL     1       7.294   4.245  11.457  0.00  0.00    +0.000 OA
BRANCH  11  13
ATOM     13  O   UNL     1       6.128   2.402  12.032  0.00  0.00    +0.000 OA
ATOM     14  H   UNL     1       6.392   1.988  11.191  0.00  0.00    +0.000 HD
ENDBRANCH  11  13
ENDBRANCH   8  11
ENDBRANCH   2   5
ENDBRANCH   1   2
BRANCH   1  15
ATOM     15  C   UNL     1       3.605   6.797  17.558  0.00  0.00    +0.000 C 
BRANCH  15  20
ATOM     16  C   UNL     1       0.057  10.018  20.896  0.00  0.00    +0.000 C 
ATOM     17  C   UNL     1       0.934   9.147  20.044  0.00  0.00    +0.000 A 
ATOM     18  C   UNL     1       1.543   7.998  20.559  0.00  0.00    +0.000 A 
ATOM     19  C   UNL     1       2.384   7.216  19.755  0.00  0.00    +0.000 A 
ATOM     20  C   UNL     1       2.628   7.571  18.421  0.00  0.00    +0.000 A 
ATOM     21  C   UNL     1       2.012   8.722  17.911  0.00  0.00    +0.000 A 
ATOM     22  C   UNL     1       1.171   9.498  18.711  0.00  0.00    +0.000 A 
ENDBRANCH  15  20
ENDBRANCH   1  15
BRANCH   1  23
ATOM     23  C   UNL     1       3.311   4.328  17.948  0.00  0.00    +0.000 C 
BRANCH  23  24
ATOM     24  C   UNL     1       2.627   3.681  19.136  0.00  0.00    +0.000 A 
ATOM     25  C   UNL     1       3.374   3.092  20.168  0.00  0.00    +0.000 A 
ATOM     26  C   UNL     1       2.750   2.648  21.340  0.00  0.00    +0.000 A 
ATOM     27  C   UNL     1       1.371   2.776  21.492  0.00  0.00    +0.000 A 
ATOM     28  C   UNL     1       0.612   3.333  20.466  0.00  0.00    +0.000 A 
ATOM     29  C   UNL     1       1.235   3.781  19.297  0.00  0.00    +0.000 A 
ENDBRANCH  23  24
ENDBRANCH   1  23
TORSDOF 8
ENDMDL
MODEL 2
REMARK VINA RESULT:      -8.7      0.961      1.763
REMARK  Name = 
REMARK  9 active torsions:
REMARK  status: ('A' for Active; 'I' for Inactive)
REMARK    1  A    between atoms: C_1  and  C_2
REMARK    2  A    between atoms: C_5  and  C_6
REMARK    3  A    between atoms: C_6  and  N_7
REMARK    4  A    between atoms: N_7  and  C_8
REMARK    5  A    between atoms: N_7  and  S_15
REMARK    6  A    between atoms: C_8  and  C_9
REMARK    7  A    between atoms: S_15  and  C_18
REMARK    8  A    between atoms: C_21  and  C_22
REMARK    9  A    between atoms: C_22  and  O_24
REMARK                            x       y       z     vdW  Elec       q    Type
REMARK                         _______ _______ _______ _____ _____    ______ ____
ROOT
ATOM      1  N   UNL     1       4.957   5.354  18.629  0.00  0.00    +0.000 NA
ENDROOT
BRANCH   1   2
ATOM      2  S   UNL     1       6.509   5.629  17.998  0.00  0.00    +0.000 S 
ATOM      3  O   UNL     1       6.691   7.052  17.794  0.00  0.00    +0.000 OA
ATOM      4  O   UNL     1       7.452   4.834  18.757  0.00  0.00    +0.000 OA
BRANCH   2   5
ATOM      5  C   UNL     1       6.383   4.917  16.363  0.00  0.00    +0.000 A 
ATOM      6  C   UNL     1       5.568   3.792  16.180  0.00  0.00    +0.000 A 
ATOM      7  C   UNL     1       5.405   3.250  14.900  0.00  0.00    +0.000 A 
ATOM      8  C   UNL     1       6.067   3.826  13.805  0.00  0.00    +0.000 A 
ATOM      9  C   UNL     1       6.863   4.966  13.997  0.00  0.00    +0.000 A 
ATOM     10  C   UNL     1       7.023   5.515  15.275  0.00  0.00    +0.000 A 
BRANCH   8  11
ATOM     11  C   UNL     1       5.911   3.308  12.417  0.00  0.00    +0.000 C 
ATOM     12  O   UNL     1       4.876   3.426  11.784  0.00  0.00    +0.000 OA
BRANCH  11  13
ATOM     13  O   UNL     1       7.022   2.741  11.908  0.00  0.00    +0.000 OA
ATOM     14  H   UNL     1       6.886   2.146  11.149  0.00  0.00    +0.000 HD
ENDBRANCH  11  13
ENDBRANCH   8  11
ENDBRANCH   2   5
ENDBRANCH   1   2
BRANCH   1  15
ATOM     15  C   UNL     1       3.842   5.813  17.772  0.00  0.00    +0.000 C 
BRANCH  15  20
ATOM     16  C   UNL     1       0.542  10.184  19.800  0.00  0.00    +0.000 C 
ATOM     17  C   UNL     1       1.433   9.096  19.274  0.00  0.00    +0.000 A 
ATOM     18  C   UNL     1       1.983   9.160  17.990  0.00  0.00    +0.000 A 
ATOM     19  C   UNL     1       2.787   8.118  17.507  0.00  0.00    +0.000 A 
ATOM     20  C   UNL     1       3.054   6.995  18.303  0.00  0.00    +0.000 A 
ATOM     21  C   UNL     1       2.501   6.940  19.589  0.00  0.00    +0.000 A 
ATOM     22  C   UNL     1       1.704   7.980  20.072  0.00  0.00    +0.000 A 
ENDBRANCH  15  20
ENDBRANCH   1  15
BRANCH   1  23
ATOM     23  C   UNL     1       4.756   4.068  19.338  0.00  0.00    +0.000 C 
BRANCH  23  24
ATOM     24  C   UNL     1       3.359   3.497  19.466  0.00  0.00    +0.000 A 
ATOM     25  C   UNL     1       2.586   3.723  20.617  0.00  0.00    +0.000 A 
ATOM     26  C   UNL     1       1.241   3.340  20.662  0.00  0.00    +0.000 A 
ATOM     27  C   UNL     1       0.650   2.717  19.565  0.00  0.00    +0.000 A 
ATOM     28  C   UNL     1       1.410   2.460  18.427  0.00  0.00    +0.000 A 
ATOM     29  C   UNL     1       2.753   2.846  18.377  0.00  0.00    +0.000 A 
ENDBRANCH  23  24
ENDBRANCH   1  23
TORSDOF 8
ENDMDL
MODEL 3
REMARK VINA RESULT:      -8.6      0.920      1.522
REMARK  Name = 
REMARK  9 active torsions:
REMARK  status: ('A' for Active; 'I' for Inactive)
REMARK    1  A    between atoms: C_1  and  C_2
REMARK    2  A    between atoms: C_5  and  C_6
REMARK    3  A    between atoms: C_6  and  N_7
REMARK    4  A    between atoms: N_7  and  C_8
REMARK    5  A    between atoms: N_7  and  S_15
REMARK    6  A    between atoms: C_8  and  C_9
REMARK    7  A    between atoms: S_15  and  C_18
REMARK    8  A    between atoms: C_21  and  C_22
REMARK    9  A    between atoms: C_22  and  O_24
REMARK                            x       y       z     vdW  Elec       q    Type
REMARK                         _______ _______ _______ _____ _____    ______ ____
ROOT
ATOM      1  N   UNL     1       4.884   5.473  18.571  0.00  0.00    +0.000 NA
ENDROOT
BRANCH   1   2
ATOM      2  S   UNL     1       6.440   5.645  17.914  0.00  0.00    +0.000 S 
ATOM      3  O   UNL     1       6.725   7.054  17.735  0.00  0.00    +0.000 OA
ATOM      4  O   UNL     1       7.335   4.765  18.637  0.00  0.00    +0.000 OA
BRANCH   2   5
ATOM      5  C   UNL     1       6.229   4.980  16.267  0.00  0.00    +0.000 A 
ATOM      6  C   UNL     1       7.054   5.454  15.239  0.00  0.00    +0.000 A 
ATOM      7  C   UNL     1       6.950   4.909  13.954  0.00  0.00    +0.000 A 
ATOM      8  C   UNL     1       6.011   3.897  13.696  0.00  0.00    +0.000 A 
ATOM      9  C   UNL     1       5.207   3.415  14.739  0.00  0.00    +0.000 A 
ATOM     10  C   UNL     1       5.312   3.954  16.027  0.00  0.00    +0.000 A 
BRANCH   8  11
ATOM     11  C   UNL     1       5.874   3.262  12.356  0.00  0.00    +0.000 C 
ATOM     12  O   UNL     1       4.841   3.306  11.711  0.00  0.00    +0.000 OA
BRANCH  11  13
ATOM     13  O   UNL     1       6.998   2.675  11.901  0.00  0.00    +0.000 OA
ATOM     14  H   UNL     1       7.353   1.954  12.452  0.00  0.00    +0.000 HD
ENDBRANCH  11  13
ENDBRANCH   8  11
ENDBRANCH   2   5
ENDBRANCH   1   2
BRANCH   1  15
ATOM     15  C   UNL     1       3.785   5.980  17.720  0.00  0.00    +0.000 C 
BRANCH  15  20
ATOM     16  C   UNL     1       0.455  10.233  19.940  0.00  0.00    +0.000 C 
ATOM     17  C   UNL     1       1.353   9.176  19.364  0.00  0.00    +0.000 A 
ATOM     18  C   UNL     1       1.857   9.276  18.064  0.00  0.00    +0.000 A 
ATOM     19  C   UNL     1       2.668   8.263  17.534  0.00  0.00    +0.000 A 
ATOM     20  C   UNL     1       2.989   7.132  18.299  0.00  0.00    +0.000 A 
ATOM     21  C   UNL     1       2.482   7.041  19.603  0.00  0.00    +0.000 A 
ATOM     22  C   UNL     1       1.678   8.053  20.131  0.00  0.00    +0.000 A 
ENDBRANCH  15  20
ENDBRANCH   1  15
BRANCH   1  23
ATOM     23  C   UNL     1       4.619   4.215  19.309  0.00  0.00    +0.000 C 
BRANCH  23  24
ATOM     24  C   UNL     1       3.198   3.705  19.427  0.00  0.00    +0.000 A 
ATOM     25  C   UNL     1       2.612   2.949  18.398  0.00  0.00    +0.000 A 
ATOM     26  C   UNL     1       1.366   2.338  18.580  0.00  0.00    +0.000 A 
ATOM     27  C   UNL     1       0.682   2.482  19.785  0.00  0.00    +0.000 A 
ATOM     28  C   UNL     1       1.236   3.251  20.805  0.00  0.00    +0.000 A 
ATOM     29  C   UNL     1       2.483   3.859  20.627  0.00  0.00    +0.000 A 
ENDBRANCH  23  24
ENDBRANCH   1  23
TORSDOF 8
ENDMDL
MODEL 4
REMARK VINA RESULT:      -8.5      0.246      1.439
REMARK  Name = 
REMARK  9 active torsions:
REMARK  status: ('A' for Active; 'I' for Inactive)
REMARK    1  A    between atoms: C_1  and  C_2
REMARK    2  A    between atoms: C_5  and  C_6
REMARK    3  A    between atoms: C_6  and  N_7
REMARK    4  A    between atoms: N_7  and  C_8
REMARK    5  A    between atoms: N_7  and  S_15
REMARK    6  A    between atoms: C_8  and  C_9
REMARK    7  A    between atoms: S_15  and  C_18
REMARK    8  A    between atoms: C_21  and  C_22
REMARK    9  A    between atoms: C_22  and  O_24
REMARK                            x       y       z     vdW  Elec       q    Type
REMARK                         _______ _______ _______ _____ _____    ______ ____
ROOT
ATOM      1  N   UNL     1       4.261   5.706  18.228  0.00  0.00    +0.000 NA
ENDROOT
BRANCH   1   2
ATOM      2  S   UNL     1       5.940   5.475  18.119  0.00  0.00    +0.000 S 
ATOM      3  O   UNL     1       6.598   6.765  18.154  0.00  0.00    +0.000 OA
ATOM      4  O   UNL     1       6.306   4.399  19.017  0.00  0.00    +0.000 OA
BRANCH   2   5
ATOM      5  C   UNL     1       6.130   4.879  16.444  0.00  0.00    +0.000 A 
ATOM      6  C   UNL     1       5.266   3.876  15.985  0.00  0.00    +0.000 A 
ATOM      7  C   UNL     1       5.355   3.432  14.660  0.00  0.00    +0.000 A 
ATOM      8  C   UNL     1       6.316   3.984  13.798  0.00  0.00    +0.000 A 
ATOM      9  C   UNL     1       7.160   5.004  14.263  0.00  0.00    +0.000 A 
ATOM     10  C   UNL     1       7.070   5.454  15.585  0.00  0.00    +0.000 A 
BRANCH   8  11
ATOM     11  C   UNL     1       6.439   3.570  12.373  0.00  0.00    +0.000 C 
ATOM     12  O   UNL     1       5.767   2.676  11.888  0.00  0.00    +0.000 OA
BRANCH  11  13
ATOM     13  O   UNL     1       7.322   4.295  11.659  0.00  0.00    +0.000 OA
ATOM     14  H   UNL     1       7.863   4.926  12.167  0.00  0.00    +0.000 HD
ENDBRANCH  11  13
ENDBRANCH   8  11
ENDBRANCH   2   5
ENDBRANCH   1   2
BRANCH   1  15
ATOM     15  C   UNL     1       3.753   6.927  17.566  0.00  0.00    +0.000 C 
BRANCH  15  20
ATOM     16  C   UNL     1      -0.090  10.154  20.555  0.00  0.00    +0.000 C 
ATOM     17  C   UNL     1       0.865   9.280  19.793  0.00  0.00    +0.000 A 
ATOM     18  C   UNL     1       1.498   8.190  20.399  0.00  0.00    +0.000 A 
ATOM     19  C   UNL     1       2.410   7.405  19.679  0.00  0.00    +0.000 A 
ATOM     20  C   UNL     1       2.702   7.700  18.339  0.00  0.00    +0.000 A 
ATOM     21  C   UNL     1       2.062   8.793  17.739  0.00  0.00    +0.000 A 
ATOM     22  C   UNL     1       1.151   9.571  18.456  0.00  0.00    +0.000 A 
ENDBRANCH  15  20
ENDBRANCH   1  15
BRANCH   1  23
ATOM     23  C   UNL     1       3.423   4.490  18.102  0.00  0.00    +0.000 C 
BRANCH  23  24
ATOM     24  C   UNL     1       2.696   3.956  19.319  0.00  0.00    +0.000 A 
ATOM     25  C   UNL     1       1.293   3.960  19.385  0.00  0.00    +0.000 A 
ATOM     26  C   UNL     1       0.624   3.315  20.432  0.00  0.00    +0.000 A 
ATOM     27  C   UNL     1       1.345   2.666  21.432  0.00  0.00    +0.000 A 
ATOM     28  C   UNL     1       2.737   2.676  21.396  0.00  0.00    +0.000 A 
ATOM     29  C   UNL     1       3.407   3.317  20.349  0.00  0.00    +0.000 A 
ENDBRANCH  23  24
ENDBRANCH   1  23
TORSDOF 8
ENDMDL
MODEL 5
REMARK VINA RESULT:      -8.3      1.125      1.436
REMARK  Name = 
REMARK  9 active torsions:
REMARK  status: ('A' for Active; 'I' for Inactive)
REMARK    1  A    between atoms: C_1  and  C_2
REMARK    2  A    between atoms: C_5  and  C_6
REMARK    3  A    between atoms: C_6  and  N_7
REMARK    4  A    between atoms: N_7  and  C_8
REMARK    5  A    between atoms: N_7  and  S_15
REMARK    6  A    between atoms: C_8  and  C_9
REMARK    7  A    between atoms: S_15  and  C_18
REMARK    8  A    between atoms: C_21  and  C_22
REMARK    9  A    between atoms: C_22  and  O_24
REMARK                            x       y       z     vdW  Elec       q    Type
REMARK                         _______ _______ _______ _____ _____    ______ ____
ROOT
ATOM      1  N   UNL     1       4.567   6.050  18.665  0.00  0.00    +0.000 NA
ENDROOT
BRANCH   1   2
ATOM      2  S   UNL     1       6.101   6.222  17.958  0.00  0.00    +0.000 S 
ATOM      3  O   UNL     1       6.309   7.614  17.613  0.00  0.00    +0.000 OA
ATOM      4  O   UNL     1       7.052   5.477  18.757  0.00  0.00    +0.000 OA
BRANCH   2   5
ATOM      5  C   UNL     1       5.898   5.362  16.403  0.00  0.00    +0.000 A 
ATOM      6  C   UNL     1       5.486   6.090  15.280  0.00  0.00    +0.000 A 
ATOM      7  C   UNL     1       5.376   5.453  14.038  0.00  0.00    +0.000 A 
ATOM      8  C   UNL     1       5.667   4.085  13.924  0.00  0.00    +0.000 A 
ATOM      9  C   UNL     1       6.101   3.371  15.051  0.00  0.00    +0.000 A 
ATOM     10  C   UNL     1       6.218   4.006  16.293  0.00  0.00    +0.000 A 
BRANCH   8  11
ATOM     11  C   UNL     1       5.593   3.360  12.625  0.00  0.00    +0.000 C 
ATOM     12  O   UNL     1       4.614   3.410  11.899  0.00  0.00    +0.000 OA
BRANCH  11  13
ATOM     13  O   UNL     1       6.712   2.684  12.301  0.00  0.00    +0.000 OA
ATOM     14  H   UNL     1       6.579   1.849  11.817  0.00  0.00    +0.000 HD
ENDBRANCH  11  13
ENDBRANCH   8  11
ENDBRANCH   2   5
ENDBRANCH   1   2
BRANCH   1  15
ATOM     15  C   UNL     1       3.436   6.500  17.824  0.00  0.00    +0.000 C 
BRANCH  15  20
ATOM     16  C   UNL     1       0.215  10.736  20.230  0.00  0.00    +0.000 C 
ATOM     17  C   UNL     1       1.001   9.612  19.620  0.00  0.00    +0.000 A 
ATOM     18  C   UNL     1       1.358   8.483  20.364  0.00  0.00    +0.000 A 
ATOM     19  C   UNL     1       2.119   7.458  19.784  0.00  0.00    +0.000 A 
ATOM     20  C   UNL     1       2.535   7.547  18.448  0.00  0.00    +0.000 A 
ATOM     21  C   UNL     1       2.171   8.681  17.708  0.00  0.00    +0.000 A 
ATOM     22  C   UNL     1       1.409   9.698  18.285  0.00  0.00    +0.000 A 
ENDBRANCH  15  20
ENDBRANCH   1  15
BRANCH   1  23
ATOM     23  C   UNL     1       4.346   4.820  19.462  0.00  0.00    +0.000 C 
BRANCH  23  24
ATOM     24  C   UNL     1       3.129   3.961  19.186  0.00  0.00    +0.000 A 
ATOM     25  C   UNL     1       3.125   3.026  18.138  0.00  0.00    +0.000 A 
ATOM     26  C   UNL     1       2.068   2.119  17.993  0.00  0.00    +0.000 A 
ATOM     27  C   UNL     1       0.997   2.141  18.883  0.00  0.00    +0.000 A 
ATOM     28  C   UNL     1       0.972   3.080  19.910  0.00  0.00    +0.000 A 
ATOM     29  C   UNL     1       2.029   3.984  20.060  0.00  0.00    +0.000 A 
ENDBRANCH  23  24
ENDBRANCH   1  23
TORSDOF 8
ENDMDL
MODEL 6
REMARK VINA RESULT:      -8.3      1.108      1.403
REMARK  Name = 
REMARK  9 active torsions:
REMARK  status: ('A' for Active; 'I' for Inactive)
REMARK    1  A    between atoms: C_1  and  C_2
REMARK    2  A    between atoms: C_5  and  C_6
REMARK    3  A    between atoms: C_6  and  N_7
REMARK    4  A    between atoms: N_7  and  C_8
REMARK    5  A    between atoms: N_7  and  S_15
REMARK    6  A    between atoms: C_8  and  C_9
REMARK    7  A    between atoms: S_15  and  C_18
REMARK    8  A    between atoms: C_21  and  C_22
REMARK    9  A    between atoms: C_22  and  O_24
REMARK                            x       y       z     vdW  Elec       q    Type
REMARK                         _______ _______ _______ _____ _____    ______ ____
ROOT
ATOM      1  N   UNL     1       4.678   5.701  18.800  0.00  0.00    +0.000 NA
ENDROOT
BRANCH   1   2
ATOM      2  S   UNL     1       6.211   5.935  18.106  0.00  0.00    +0.000 S 
ATOM      3  O   UNL     1       6.414   7.350  17.875  0.00  0.00    +0.000 OA
ATOM      4  O   UNL     1       7.165   5.130  18.842  0.00  0.00    +0.000 OA
BRANCH   2   5
ATOM      5  C   UNL     1       6.007   5.202  16.488  0.00  0.00    +0.000 A 
ATOM      6  C   UNL     1       5.829   6.046  15.385  0.00  0.00    +0.000 A 
ATOM      7  C   UNL     1       5.726   5.501  14.099  0.00  0.00    +0.000 A 
ATOM      8  C   UNL     1       5.789   4.111  13.920  0.00  0.00    +0.000 A 
ATOM      9  C   UNL     1       5.991   3.277  15.031  0.00  0.00    +0.000 A 
ATOM     10  C   UNL     1       6.100   3.819  16.317  0.00  0.00    +0.000 A 
BRANCH   8  11
ATOM     11  C   UNL     1       5.712   3.477  12.575  0.00  0.00    +0.000 C 
ATOM     12  O   UNL     1       6.683   2.993  12.019  0.00  0.00    +0.000 OA
BRANCH  11  13
ATOM     13  O   UNL     1       4.473   3.444  12.047  0.00  0.00    +0.000 OA
ATOM     14  H   UNL     1       4.416   3.173  11.113  0.00  0.00    +0.000 HD
ENDBRANCH  11  13
ENDBRANCH   8  11
ENDBRANCH   2   5
ENDBRANCH   1   2
BRANCH   1  15
ATOM     15  C   UNL     1       3.537   6.088  17.942  0.00  0.00    +0.000 C 
BRANCH  15  20
ATOM     16  C   UNL     1       0.457  10.602  20.001  0.00  0.00    +0.000 C 
ATOM     17  C   UNL     1       1.205   9.409  19.481  0.00  0.00    +0.000 A 
ATOM     18  C   UNL     1       1.478   8.306  20.297  0.00  0.00    +0.000 A 
ATOM     19  C   UNL     1       2.206   7.216  19.800  0.00  0.00    +0.000 A 
ATOM     20  C   UNL     1       2.670   7.211  18.476  0.00  0.00    +0.000 A 
ATOM     21  C   UNL     1       2.389   8.318  17.665  0.00  0.00    +0.000 A 
ATOM     22  C   UNL     1       1.661   9.402  18.159  0.00  0.00    +0.000 A 
ENDBRANCH  15  20
ENDBRANCH   1  15
BRANCH   1  23
ATOM     23  C   UNL     1       4.506   4.472  19.611  0.00  0.00    +0.000 C 
BRANCH  23  24
ATOM     24  C   UNL     1       3.252   3.639  19.444  0.00  0.00    +0.000 A 
ATOM     25  C   UNL     1       2.175   3.764  20.337  0.00  0.00    +0.000 A 
ATOM     26  C   UNL     1       0.958   3.121  20.085  0.00  0.00    +0.000 A 
ATOM     27  C   UNL     1       0.801   2.336  18.944  0.00  0.00    +0.000 A 
ATOM     28  C   UNL     1       1.868   2.179  18.064  0.00  0.00    +0.000 A 
ATOM     29  C   UNL     1       3.084   2.824  18.311  0.00  0.00    +0.000 A 
ENDBRANCH  23  24
ENDBRANCH   1  23
TORSDOF 8
ENDMDL
MODEL 7
REMARK VINA RESULT:      -8.1      2.419      4.090
REMARK  Name = 
REMARK  9 active torsions:
REMARK  status: ('A' for Active; 'I' for Inactive)
REMARK    1  A    between atoms: C_1  and  C_2
REMARK    2  A    between atoms: C_5  and  C_6
REMARK    3  A    between atoms: C_6  and  N_7
REMARK    4  A    between atoms: N_7  and  C_8
REMARK    5  A    between atoms: N_7  and  S_15
REMARK    6  A    between atoms: C_8  and  C_9
REMARK    7  A    between atoms: S_15  and  C_18
REMARK    8  A    between atoms: C_21  and  C_22
REMARK    9  A    between atoms: C_22  and  O_24
REMARK                            x       y       z     vdW  Elec       q    Type
REMARK                         _______ _______ _______ _____ _____    ______ ____
ROOT
ATOM      1  N   UNL     1       4.374   5.215  17.788  0.00  0.00    +0.000 NA
ENDROOT
BRANCH   1   2
ATOM      2  S   UNL     1       5.965   4.709  17.475  0.00  0.00    +0.000 S 
ATOM      3  O   UNL     1       6.368   3.760  18.492  0.00  0.00    +0.000 OA
ATOM      4  O   UNL     1       6.074   4.413  16.060  0.00  0.00    +0.000 OA
BRANCH   2   5
ATOM      5  C   UNL     1       6.904   6.196  17.797  0.00  0.00    +0.000 A 
ATOM      6  C   UNL     1       6.640   7.338  17.031  0.00  0.00    +0.000 A 
ATOM      7  C   UNL     1       7.319   8.532  17.301  0.00  0.00    +0.000 A 
ATOM      8  C   UNL     1       8.271   8.579  18.331  0.00  0.00    +0.000 A 
ATOM      9  C   UNL     1       8.510   7.435  19.107  0.00  0.00    +0.000 A 
ATOM     10  C   UNL     1       7.829   6.241  18.844  0.00  0.00    +0.000 A 
BRANCH   8  11
ATOM     11  C   UNL     1       9.005   9.827  18.681  0.00  0.00    +0.000 C 
ATOM     12  O   UNL     1       9.284  10.679  17.856  0.00  0.00    +0.000 OA
BRANCH  11  13
ATOM     13  O   UNL     1       9.293   9.953  19.992  0.00  0.00    +0.000 OA
ATOM     14  H   UNL     1       8.528  10.022  20.590  0.00  0.00    +0.000 HD
ENDBRANCH  11  13
ENDBRANCH   8  11
ENDBRANCH   2   5
ENDBRANCH   1   2
BRANCH   1  15
ATOM     15  C   UNL     1       4.051   6.583  17.328  0.00  0.00    +0.000 C 
BRANCH  15  20
ATOM     16  C   UNL     1       0.336   9.699  20.583  0.00  0.00    +0.000 C 
ATOM     17  C   UNL     1       1.257   8.855  19.750  0.00  0.00    +0.000 A 
ATOM     18  C   UNL     1       1.851   7.697  20.264  0.00  0.00    +0.000 A 
ATOM     19  C   UNL     1       2.732   6.940  19.479  0.00  0.00    +0.000 A 
ATOM     20  C   UNL     1       3.032   7.329  18.165  0.00  0.00    +0.000 A 
ATOM     21  C   UNL     1       2.430   8.489  17.658  0.00  0.00    +0.000 A 
ATOM     22  C   UNL     1       1.549   9.240  18.438  0.00  0.00    +0.000 A 
ENDBRANCH  15  20
ENDBRANCH   1  15
BRANCH   1  23
ATOM     23  C   UNL     1       3.315   4.193  17.611  0.00  0.00    +0.000 C 
BRANCH  23  24
ATOM     24  C   UNL     1       2.634   3.608  18.831  0.00  0.00    +0.000 A 
ATOM     25  C   UNL     1       3.382   3.135  19.921  0.00  0.00    +0.000 A 
ATOM     26  C   UNL     1       2.751   2.752  21.111  0.00  0.00    +0.000 A 
ATOM     27  C   UNL     1       1.364   2.827  21.225  0.00  0.00    +0.000 A 
ATOM     28  C   UNL     1       0.606   3.268  20.144  0.00  0.00    +0.000 A 
ATOM     29  C   UNL     1       1.235   3.654  18.956  0.00  0.00    +0.000 A 
ENDBRANCH  23  24
ENDBRANCH   1  23
TORSDOF 8
ENDMDL
MODEL 8
REMARK VINA RESULT:      -8.0      0.675      1.402
REMARK  Name = 
REMARK  9 active torsions:
REMARK  status: ('A' for Active; 'I' for Inactive)
REMARK    1  A    between atoms: C_1  and  C_2
REMARK    2  A    between atoms: C_5  and  C_6
REMARK    3  A    between atoms: C_6  and  N_7
REMARK    4  A    between atoms: N_7  and  C_8
REMARK    5  A    between atoms: N_7  and  S_15
REMARK    6  A    between atoms: C_8  and  C_9
REMARK    7  A    between atoms: S_15  and  C_18
REMARK    8  A    between atoms: C_21  and  C_22
REMARK    9  A    between atoms: C_22  and  O_24
REMARK                            x       y       z     vdW  Elec       q    Type
REMARK                         _______ _______ _______ _____ _____    ______ ____
ROOT
ATOM      1  N   UNL     1       3.988   5.930  18.143  0.00  0.00    +0.000 NA
ENDROOT
BRANCH   1   2
ATOM      2  S   UNL     1       5.621   5.477  18.036  0.00  0.00    +0.000 S 
ATOM      3  O   UNL     1       6.446   6.666  18.100  0.00  0.00    +0.000 OA
ATOM      4  O   UNL     1       5.833   4.345  18.915  0.00  0.00    +0.000 OA
BRANCH   2   5
ATOM      5  C   UNL     1       5.741   4.893  16.350  0.00  0.00    +0.000 A 
ATOM      6  C   UNL     1       6.835   5.297  15.574  0.00  0.00    +0.000 A 
ATOM      7  C   UNL     1       6.984   4.808  14.271  0.00  0.00    +0.000 A 
ATOM      8  C   UNL     1       6.031   3.924  13.741  0.00  0.00    +0.000 A 
ATOM      9  C   UNL     1       4.952   3.509  14.536  0.00  0.00    +0.000 A 
ATOM     10  C   UNL     1       4.803   3.991  15.842  0.00  0.00    +0.000 A 
BRANCH   8  11
ATOM     11  C   UNL     1       6.151   3.351  12.372  0.00  0.00    +0.000 C 
ATOM     12  O   UNL     1       5.184   3.146  11.658  0.00  0.00    +0.000 OA
BRANCH  11  13
ATOM     13  O   UNL     1       7.418   3.122  11.974  0.00  0.00    +0.000 OA
ATOM     14  H   UNL     1       8.110   3.313  12.632  0.00  0.00    +0.000 HD
ENDBRANCH  11  13
ENDBRANCH   8  11
ENDBRANCH   2   5
ENDBRANCH   1   2
BRANCH   1  15
ATOM     15  C   UNL     1       3.665   7.250  17.559  0.00  0.00    +0.000 C 
BRANCH  15  20
ATOM     16  C   UNL     1      -0.422  10.188  20.521  0.00  0.00    +0.000 C 
ATOM     17  C   UNL     1       0.658   9.479  19.756  0.00  0.00    +0.000 A 
ATOM     18  C   UNL     1       0.990   9.849  18.449  0.00  0.00    +0.000 A 
ATOM     19  C   UNL     1       1.981   9.154  17.741  0.00  0.00    +0.000 A 
ATOM     20  C   UNL     1       2.657   8.077  18.332  0.00  0.00    +0.000 A 
ATOM     21  C   UNL     1       2.320   7.714  19.644  0.00  0.00    +0.000 A 
ATOM     22  C   UNL     1       1.337   8.410  20.349  0.00  0.00    +0.000 A 
ENDBRANCH  15  20
ENDBRANCH   1  15
BRANCH   1  23
ATOM     23  C   UNL     1       2.993   4.852  17.926  0.00  0.00    +0.000 C 
BRANCH  23  24
ATOM     24  C   UNL     1       2.308   4.219  19.120  0.00  0.00    +0.000 A 
ATOM     25  C   UNL     1       1.298   3.259  18.949  0.00  0.00    +0.000 A 
ATOM     26  C   UNL     1       0.787   2.555  20.046  0.00  0.00    +0.000 A 
ATOM     27  C   UNL     1       1.270   2.806  21.328  0.00  0.00    +0.000 A 
ATOM     28  C   UNL     1       2.252   3.775  21.518  0.00  0.00    +0.000 A 
ATOM     29  C   UNL     1       2.766   4.476  20.423  0.00  0.00    +0.000 A 
ENDBRANCH  23  24
ENDBRANCH   1  23
TORSDOF 8
ENDMDL
MODEL 9
REMARK VINA RESULT:      -8.0      2.747      7.016
REMARK  Name = 
REMARK  9 active torsions:
REMARK  status: ('A' for Active; 'I' for Inactive)
REMARK    1  A    between atoms: C_1  and  C_2
REMARK    2  A    between atoms: C_5  and  C_6
REMARK    3  A    between atoms: C_6  and  N_7
REMARK    4  A    between atoms: N_7  and  C_8
REMARK    5  A    between atoms: N_7  and  S_15
REMARK    6  A    between atoms: C_8  and  C_9
REMARK    7  A    between atoms: S_15  and  C_18
REMARK    8  A    between atoms: C_21  and  C_22
REMARK    9  A    between atoms: C_22  and  O_24
REMARK                            x       y       z     vdW  Elec       q    Type
REMARK                         _______ _______ _______ _____ _____    ______ ____
ROOT
ATOM      1  N   UNL     1       5.647   4.213  17.150  0.00  0.00    +0.000 NA
ENDROOT
BRANCH   1   2
ATOM      2  S   UNL     1       4.390   3.984  18.270  0.00  0.00    +0.000 S 
ATOM      3  O   UNL     1       3.382   3.128  17.680  0.00  0.00    +0.000 OA
ATOM      4  O   UNL     1       4.984   3.698  19.561  0.00  0.00    +0.000 OA
BRANCH   2   5
ATOM      5  C   UNL     1       3.658   5.613  18.352  0.00  0.00    +0.000 A 
ATOM      6  C   UNL     1       3.837   6.487  17.273  0.00  0.00    +0.000 A 
ATOM      7  C   UNL     1       3.226   7.747  17.286  0.00  0.00    +0.000 A 
ATOM      8  C   UNL     1       2.445   8.135  18.385  0.00  0.00    +0.000 A 
ATOM      9  C   UNL     1       2.253   7.242  19.450  0.00  0.00    +0.000 A 
ATOM     10  C   UNL     1       2.858   5.980  19.438  0.00  0.00    +0.000 A 
BRANCH   8  11
ATOM     11  C   UNL     1       1.750   9.451  18.443  0.00  0.00    +0.000 C 
ATOM     12  O   UNL     1       1.120   9.820  19.419  0.00  0.00    +0.000 OA
BRANCH  11  13
ATOM     13  O   UNL     1       1.913  10.214  17.344  0.00  0.00    +0.000 OA
ATOM     14  H   UNL     1       2.613  10.888  17.396  0.00  0.00    +0.000 HD
ENDBRANCH  11  13
ENDBRANCH   8  11
ENDBRANCH   2   5
ENDBRANCH   1   2
BRANCH   1  15
ATOM     15  C   UNL     1       6.986   4.413  17.746  0.00  0.00    +0.000 C 
BRANCH  15  20
ATOM     16  C   UNL     1       8.541   9.999  18.443  0.00  0.00    +0.000 C 
ATOM     17  C   UNL     1       8.169   8.562  18.216  0.00  0.00    +0.000 A 
ATOM     18  C   UNL     1       7.387   8.176  17.123  0.00  0.00    +0.000 A 
ATOM     19  C   UNL     1       7.024   6.833  16.946  0.00  0.00    +0.000 A 
ATOM     20  C   UNL     1       7.441   5.855  17.861  0.00  0.00    +0.000 A 
ATOM     21  C   UNL     1       8.226   6.251  18.952  0.00  0.00    +0.000 A 
ATOM     22  C   UNL     1       8.590   7.587  19.125  0.00  0.00    +0.000 A 
ENDBRANCH  15  20
ENDBRANCH   1  15
BRANCH   1  23
ATOM     23  C   UNL     1       5.589   3.386  15.922  0.00  0.00    +0.000 C 
BRANCH  23  24
ATOM     24  C   UNL     1       6.108   3.954  14.616  0.00  0.00    +0.000 A 
ATOM     25  C   UNL     1       7.199   4.838  14.594  0.00  0.00    +0.000 A 
ATOM     26  C   UNL     1       7.781   5.225  13.381  0.00  0.00    +0.000 A 
ATOM     27  C   UNL     1       7.276   4.745  12.175  0.00  0.00    +0.000 A 
ATOM     28  C   UNL     1       6.177   3.890  12.179  0.00  0.00    +0.000 A 
ATOM     29  C   UNL     1       5.597   3.498  13.389  0.00  0.00    +0.000 A 
ENDBRANCH  23  24
ENDBRANCH   1  23
TORSDOF 8
ENDMDL
