MODEL 1
REMARK VINA RESULT:      -6.7      0.000      0.000
REMARK  Name = 
REMARK  14 active torsions:
REMARK  status: ('A' for Active; 'I' for Inactive)
REMARK    1  A    between atoms: C_1  and  O_2
REMARK    2  A    between atoms: O_2  and  C_3
REMARK    3  A    between atoms: C_6  and  O_7
REMARK    4  A    between atoms: O_7  and  C_8
REMARK    5  A    between atoms: C_9  and  S_10
REMARK    6  A    between atoms: S_10  and  N_13
REMARK    7  A    between atoms: N_13  and  C_14
REMARK    8  A    between atoms: N_13  and  C_22
REMARK    9  A    between atoms: C_14  and  C_15
REMARK   10  A    between atoms: C_22  and  C_23
REMARK   11  A    between atoms: C_26  and  O_27
REMARK   12  A    between atoms: O_27  and  C_28
REMARK   13  A    between atoms: C_30  and  O_31
REMARK   14  A    between atoms: O_31  and  C_32
REMARK                            x       y       z     vdW  Elec       q    Type
REMARK                         _______ _______ _______ _____ _____    ______ ____
ROOT
ATOM      1  N   UNL     1       4.902   4.884  16.711  0.00  0.00    +0.000 NA
ENDROOT
BRANCH   1   2
ATOM      2  S   UNL     1       6.430   5.211  15.975  0.00  0.00    +0.000 S 
ATOM      3  O   UNL     1       7.372   4.255  16.532  0.00  0.00    +0.000 OA
ATOM      4  O   UNL     1       6.725   6.619  16.096  0.00  0.00    +0.000 OA
BRANCH   2   9
ATOM      5  C   UNL     1       5.246   3.551  12.488  0.00  0.00    +0.000 A 
ATOM      6  C   UNL     1       6.393   3.684  11.708  0.00  0.00    +0.000 A 
ATOM      7  C   UNL     1       7.466   4.458  12.136  0.00  0.00    +0.000 A 
ATOM      8  C   UNL     1       7.453   5.068  13.396  0.00  0.00    +0.000 A 
ATOM      9  C   UNL     1       6.316   4.907  14.207  0.00  0.00    +0.000 A 
ATOM     10  C   UNL     1       5.198   4.175  13.737  0.00  0.00    +0.000 A 
BRANCH   5  12
ATOM     11  C   UNL     1       3.583   3.171  10.767  0.00  0.00    +0.000 C 
ATOM     12  O   UNL     1       4.325   2.744  11.894  0.00  0.00    +0.000 OA
ENDBRANCH   5  12
BRANCH   8  13
ATOM     13  O   UNL     1       8.517   5.783  13.872  0.00  0.00    +0.000 OA
ATOM     14  C   UNL     1       9.472   6.217  12.904  0.00  0.00    +0.000 C 
ENDBRANCH   8  13
ENDBRANCH   2   9
ENDBRANCH   1   2
BRANCH   1  15
ATOM     15  C   UNL     1       4.639   3.437  16.999  0.00  0.00    +0.000 C 
BRANCH  15  16
ATOM     16  C   UNL     1       3.522   3.059  17.924  0.00  0.00    +0.000 A 
ATOM     17  C   UNL     1       3.823   2.541  19.199  0.00  0.00    +0.000 A 
ATOM     18  C   UNL     1       2.815   2.350  20.139  0.00  0.00    +0.000 A 
ATOM     19  C   UNL     1       1.507   2.669  19.809  0.00  0.00    +0.000 A 
ATOM     20  F   UNL     1       0.543   2.522  20.728  0.00  0.00    +0.000 F 
ATOM     21  C   UNL     1       1.184   3.158  18.546  0.00  0.00    +0.000 A 
ATOM     22  C   UNL     1       2.189   3.352  17.601  0.00  0.00    +0.000 A 
ENDBRANCH  15  16
ENDBRANCH   1  15
BRANCH   1  23
ATOM     23  C   UNL     1       4.680   5.616  18.011  0.00  0.00    +0.000 C 
BRANCH  23  24
ATOM     24  C   UNL     1       3.655   6.697  18.071  0.00  0.00    +0.000 A 
ATOM     25  C   UNL     1       3.641   7.706  17.126  0.00  0.00    +0.000 A 
ATOM     26  N   UNL     1       2.771   8.731  17.126  0.00  0.00    +0.000 NA
ATOM     27  C   UNL     1       1.865   8.721  18.106  0.00  0.00    +0.000 A 
ATOM     28  N   UNL     1       1.803   7.826  19.105  0.00  0.00    +0.000 NA
ATOM     29  C   UNL     1       2.714   6.836  19.067  0.00  0.00    +0.000 A 
BRANCH  27  30
ATOM     30  O   UNL     1       0.961   9.758  18.052  0.00  0.00    +0.000 OA
ATOM     31  C   UNL     1       1.226  10.772  19.009  0.00  0.00    +0.000 C 
ENDBRANCH  27  30
BRANCH  29  32
ATOM     32  O   UNL     1       2.728   5.908  20.093  0.00  0.00    +0.000 OA
ATOM     33  C   UNL     1       1.634   6.042  20.996  0.00  0.00    +0.000 C 
ENDBRANCH  29  32
ENDBRANCH  23  24
ENDBRANCH   1  23
TORSDOF 10
ENDMDL
MODEL 2
REMARK VINA RESULT:      -6.6      4.646     10.306
REMARK  Name = 
REMARK  14 active torsions:
REMARK  status: ('A' for Active; 'I' for Inactive)
REMARK    1  A    between atoms: C_1  and  O_2
REMARK    2  A    between atoms: O_2  and  C_3
REMARK    3  A    between atoms: C_6  and  O_7
REMARK    4  A    between atoms: O_7  and  C_8
REMARK    5  A    between atoms: C_9  and  S_10
REMARK    6  A    between atoms: S_10  and  N_13
REMARK    7  A    between atoms: N_13  and  C_14
REMARK    8  A    between atoms: N_13  and  C_22
REMARK    9  A    between atoms: C_14  and  C_15
REMARK   10  A    between atoms: C_22  and  C_23
REMARK   11  A    between atoms: C_26  and  O_27
REMARK   12  A    between atoms: O_27  and  C_28
REMARK   13  A    between atoms: C_30  and  O_31
REMARK   14  A    between atoms: O_31  and  C_32
REMARK                            x       y       z     vdW  Elec       q    Type
REMARK                         _______ _______ _______ _____ _____    ______ ____
ROOT
ATOM      1  N   UNL     1       0.339   9.421  20.190  0.00  0.00    +0.000 NA
ENDROOT
BRANCH   1   2
ATOM      2  S   UNL     1       0.262   9.746  21.885  0.00  0.00    +0.000 S 
ATOM      3  O   UNL     1       1.630   9.725  22.374  0.00  0.00    +0.000 OA
ATOM      4  O   UNL     1      -0.703   8.863  22.496  0.00  0.00    +0.000 OA
BRANCH   2   9
ATOM      5  C   UNL     1      -2.426  12.721  22.382  0.00  0.00    +0.000 A 
ATOM      6  C   UNL     1      -1.758  13.803  21.814  0.00  0.00    +0.000 A 
ATOM      7  C   UNL     1      -0.414  13.715  21.466  0.00  0.00    +0.000 A 
ATOM      8  C   UNL     1       0.286  12.511  21.608  0.00  0.00    +0.000 A 
ATOM      9  C   UNL     1      -0.390  11.401  22.144  0.00  0.00    +0.000 A 
ATOM     10  C   UNL     1      -1.739  11.517  22.562  0.00  0.00    +0.000 A 
BRANCH   5  12
ATOM     11  C   UNL     1      -4.294  12.828  23.921  0.00  0.00    +0.000 C 
ATOM     12  O   UNL     1      -3.731  13.012  22.635  0.00  0.00    +0.000 OA
ENDBRANCH   5  12
BRANCH   8  13
ATOM     13  O   UNL     1       1.589  12.374  21.216  0.00  0.00    +0.000 OA
ATOM     14  C   UNL     1       2.169  13.491  20.544  0.00  0.00    +0.000 C 
ENDBRANCH   8  13
ENDBRANCH   2   9
ENDBRANCH   1   2
BRANCH   1  15
ATOM     15  C   UNL     1      -0.020  10.580  19.311  0.00  0.00    +0.000 C 
BRANCH  15  16
ATOM     16  C   UNL     1      -1.312  10.559  18.552  0.00  0.00    +0.000 A 
ATOM     17  C   UNL     1      -2.352  11.432  18.929  0.00  0.00    +0.000 A 
ATOM     18  C   UNL     1      -3.488  11.560  18.137  0.00  0.00    +0.000 A 
ATOM     19  C   UNL     1      -3.594  10.814  16.973  0.00  0.00    +0.000 A 
ATOM     20  F   UNL     1      -4.671  10.967  16.191  0.00  0.00    +0.000 F 
ATOM     21  C   UNL     1      -2.590   9.925  16.595  0.00  0.00    +0.000 A 
ATOM     22  C   UNL     1      -1.449   9.795  17.384  0.00  0.00    +0.000 A 
ENDBRANCH  15  16
ENDBRANCH   1  15
BRANCH   1  23
ATOM     23  C   UNL     1       1.689   8.941  19.721  0.00  0.00    +0.000 C 
BRANCH  23  24
ATOM     24  C   UNL     1       1.973   7.478  19.696  0.00  0.00    +0.000 A 
ATOM     25  C   UNL     1       1.487   6.650  20.692  0.00  0.00    +0.000 A 
ATOM     26  N   UNL     1       1.721   5.329  20.758  0.00  0.00    +0.000 NA
ATOM     27  C   UNL     1       2.455   4.820  19.767  0.00  0.00    +0.000 A 
ATOM     28  N   UNL     1       3.021   5.522  18.773  0.00  0.00    +0.000 NA
ATOM     29  C   UNL     1       2.772   6.845  18.769  0.00  0.00    +0.000 A 
BRANCH  27  30
ATOM     30  O   UNL     1       2.639   3.457  19.841  0.00  0.00    +0.000 OA
ATOM     31  C   UNL     1       3.159   2.905  18.642  0.00  0.00    +0.000 C 
ENDBRANCH  27  30
BRANCH  29  32
ATOM     32  O   UNL     1       3.363   7.628  17.795  0.00  0.00    +0.000 OA
ATOM     33  C   UNL     1       4.385   6.955  17.066  0.00  0.00    +0.000 C 
ENDBRANCH  29  32
ENDBRANCH  23  24
ENDBRANCH   1  23
TORSDOF 10
ENDMDL
MODEL 3
REMARK VINA RESULT:      -6.6      3.342      7.098
REMARK  Name = 
REMARK  14 active torsions:
REMARK  status: ('A' for Active; 'I' for Inactive)
REMARK    1  A    between atoms: C_1  and  O_2
REMARK    2  A    between atoms: O_2  and  C_3
REMARK    3  A    between atoms: C_6  and  O_7
REMARK    4  A    between atoms: O_7  and  C_8
REMARK    5  A    between atoms: C_9  and  S_10
REMARK    6  A    between atoms: S_10  and  N_13
REMARK    7  A    between atoms: N_13  and  C_14
REMARK    8  A    between atoms: N_13  and  C_22
REMARK    9  A    between atoms: C_14  and  C_15
REMARK   10  A    between atoms: C_22  and  C_23
REMARK   11  A    between atoms: C_26  and  O_27
REMARK   12  A    between atoms: O_27  and  C_28
REMARK   13  A    between atoms: C_30  and  O_31
REMARK   14  A    between atoms: O_31  and  C_32
REMARK                            x       y       z     vdW  Elec       q    Type
REMARK                         _______ _______ _______ _____ _____    ______ ____
ROOT
ATOM      1  N   UNL     1       4.843   3.850  17.227  0.00  0.00    +0.000 NA
ENDROOT
BRANCH   1   2
ATOM      2  S   UNL     1       3.243   3.303  17.575  0.00  0.00    +0.000 S 
ATOM      3  O   UNL     1       3.380   2.038  18.277  0.00  0.00    +0.000 OA
ATOM      4  O   UNL     1       2.454   3.337  16.366  0.00  0.00    +0.000 OA
BRANCH   2   9
ATOM      5  C   UNL     1       2.094   6.830  19.173  0.00  0.00    +0.000 A 
ATOM      6  C   UNL     1       1.994   6.508  20.525  0.00  0.00    +0.000 A 
ATOM      7  C   UNL     1       2.059   5.188  20.955  0.00  0.00    +0.000 A 
ATOM      8  C   UNL     1       2.302   4.149  20.049  0.00  0.00    +0.000 A 
ATOM      9  C   UNL     1       2.444   4.468  18.686  0.00  0.00    +0.000 A 
ATOM     10  C   UNL     1       2.307   5.807  18.246  0.00  0.00    +0.000 A 
BRANCH   5  12
ATOM     11  C   UNL     1       2.340   8.752  17.718  0.00  0.00    +0.000 C 
ATOM     12  O   UNL     1       2.018   8.173  18.970  0.00  0.00    +0.000 OA
ENDBRANCH   5  12
BRANCH   8  13
ATOM     13  O   UNL     1       2.435   2.848  20.447  0.00  0.00    +0.000 OA
ATOM     14  C   UNL     1       1.619   2.435  21.543  0.00  0.00    +0.000 C 
ENDBRANCH   8  13
ENDBRANCH   2   9
ENDBRANCH   1   2
BRANCH   1  15
ATOM     15  C   UNL     1       4.942   4.830  16.098  0.00  0.00    +0.000 C 
BRANCH  15  16
ATOM     16  C   UNL     1       5.713   4.464  14.866  0.00  0.00    +0.000 A 
ATOM     17  C   UNL     1       5.091   3.698  13.861  0.00  0.00    +0.000 A 
ATOM     18  C   UNL     1       5.720   3.496  12.637  0.00  0.00    +0.000 A 
ATOM     19  C   UNL     1       6.971   4.050  12.414  0.00  0.00    +0.000 A 
ATOM     20  F   UNL     1       7.559   3.888  11.222  0.00  0.00    +0.000 F 
ATOM     21  C   UNL     1       7.616   4.788  13.404  0.00  0.00    +0.000 A 
ATOM     22  C   UNL     1       6.989   4.995  14.632  0.00  0.00    +0.000 A 
ENDBRANCH  15  16
ENDBRANCH   1  15
BRANCH   1  23
ATOM     23  C   UNL     1       5.538   4.494  18.401  0.00  0.00    +0.000 C 
BRANCH  23  24
ATOM     24  C   UNL     1       6.293   5.762  18.194  0.00  0.00    +0.000 A 
ATOM     25  C   UNL     1       5.737   6.801  17.469  0.00  0.00    +0.000 A 
ATOM     26  N   UNL     1       6.361   7.963  17.212  0.00  0.00    +0.000 NA
ATOM     27  C   UNL     1       7.585   8.090  17.728  0.00  0.00    +0.000 A 
ATOM     28  N   UNL     1       8.249   7.141  18.408  0.00  0.00    +0.000 NA
ATOM     29  C   UNL     1       7.585   5.989  18.615  0.00  0.00    +0.000 A 
BRANCH  27  30
ATOM     30  O   UNL     1       8.178   9.308  17.485  0.00  0.00    +0.000 OA
ATOM     31  C   UNL     1       8.848   9.832  18.621  0.00  0.00    +0.000 C 
ENDBRANCH  27  30
BRANCH  29  32
ATOM     32  O   UNL     1       8.232   4.958  19.271  0.00  0.00    +0.000 OA
ATOM     33  C   UNL     1       8.523   5.247  20.635  0.00  0.00    +0.000 C 
ENDBRANCH  29  32
ENDBRANCH  23  24
ENDBRANCH   1  23
TORSDOF 10
ENDMDL
MODEL 4
REMARK VINA RESULT:      -6.5      1.996      2.826
REMARK  Name = 
REMARK  14 active torsions:
REMARK  status: ('A' for Active; 'I' for Inactive)
REMARK    1  A    between atoms: C_1  and  O_2
REMARK    2  A    between atoms: O_2  and  C_3
REMARK    3  A    between atoms: C_6  and  O_7
REMARK    4  A    between atoms: O_7  and  C_8
REMARK    5  A    between atoms: C_9  and  S_10
REMARK    6  A    between atoms: S_10  and  N_13
REMARK    7  A    between atoms: N_13  and  C_14
REMARK    8  A    between atoms: N_13  and  C_22
REMARK    9  A    between atoms: C_14  and  C_15
REMARK   10  A    between atoms: C_22  and  C_23
REMARK   11  A    between atoms: C_26  and  O_27
REMARK   12  A    between atoms: O_27  and  C_28
REMARK   13  A    between atoms: C_30  and  O_31
REMARK   14  A    between atoms: O_31  and  C_32
REMARK                            x       y       z     vdW  Elec       q    Type
REMARK                         _______ _______ _______ _____ _____    ______ ____
ROOT
ATOM      1  N   UNL     1       2.928   5.727  17.776  0.00  0.00    +0.000 NA
ENDROOT
BRANCH   1   2
ATOM      2  S   UNL     1       4.228   4.597  17.651  0.00  0.00    +0.000 S 
ATOM      3  O   UNL     1       3.626   3.293  17.432  0.00  0.00    +0.000 OA
ATOM      4  O   UNL     1       5.116   4.766  18.777  0.00  0.00    +0.000 OA
BRANCH   2   9
ATOM      5  C   UNL     1       6.137   4.123  14.122  0.00  0.00    +0.000 A 
ATOM      6  C   UNL     1       7.223   4.982  14.272  0.00  0.00    +0.000 A 
ATOM      7  C   UNL     1       7.292   5.875  15.336  0.00  0.00    +0.000 A 
ATOM      8  C   UNL     1       6.305   5.885  16.328  0.00  0.00    +0.000 A 
ATOM      9  C   UNL     1       5.224   4.994  16.208  0.00  0.00    +0.000 A 
ATOM     10  C   UNL     1       5.125   4.135  15.086  0.00  0.00    +0.000 A 
BRANCH   5  12
ATOM     11  C   UNL     1       6.981   3.759  11.881  0.00  0.00    +0.000 C 
ATOM     12  O   UNL     1       6.273   3.326  13.028  0.00  0.00    +0.000 OA
ENDBRANCH   5  12
BRANCH   8  13
ATOM     13  O   UNL     1       6.375   6.706  17.419  0.00  0.00    +0.000 OA
ATOM     14  C   UNL     1       7.618   7.375  17.629  0.00  0.00    +0.000 C 
ENDBRANCH   8  13
ENDBRANCH   2   9
ENDBRANCH   1   2
BRANCH   1  15
ATOM     15  C   UNL     1       1.598   5.122  18.107  0.00  0.00    +0.000 C 
BRANCH  15  16
ATOM     16  C   UNL     1       1.460   4.264  19.328  0.00  0.00    +0.000 A 
ATOM     17  C   UNL     1       0.911   2.971  19.209  0.00  0.00    +0.000 A 
ATOM     18  C   UNL     1       0.936   2.092  20.288  0.00  0.00    +0.000 A 
ATOM     19  C   UNL     1       1.500   2.501  21.486  0.00  0.00    +0.000 A 
ATOM     20  F   UNL     1       1.559   1.640  22.512  0.00  0.00    +0.000 F 
ATOM     21  C   UNL     1       2.024   3.783  21.634  0.00  0.00    +0.000 A 
ATOM     22  C   UNL     1       2.003   4.667  20.557  0.00  0.00    +0.000 A 
ENDBRANCH  15  16
ENDBRANCH   1  15
BRANCH   1  23
ATOM     23  C   UNL     1       3.159   6.814  18.796  0.00  0.00    +0.000 C 
BRANCH  23  24
ATOM     24  C   UNL     1       2.324   8.048  18.745  0.00  0.00    +0.000 A 
ATOM     25  C   UNL     1       2.293   8.830  17.605  0.00  0.00    +0.000 A 
ATOM     26  N   UNL     1       1.592   9.970  17.488  0.00  0.00    +0.000 NA
ATOM     27  C   UNL     1       0.876  10.321  18.557  0.00  0.00    +0.000 A 
ATOM     28  N   UNL     1       0.858   9.675  19.734  0.00  0.00    +0.000 NA
ATOM     29  C   UNL     1       1.598   8.553  19.802  0.00  0.00    +0.000 A 
BRANCH  27  30
ATOM     30  O   UNL     1       0.134  11.469  18.390  0.00  0.00    +0.000 OA
ATOM     31  C   UNL     1      -1.259  11.216  18.289  0.00  0.00    +0.000 C 
ENDBRANCH  27  30
BRANCH  29  32
ATOM     32  O   UNL     1       1.655   7.867  21.001  0.00  0.00    +0.000 OA
ATOM     33  C   UNL     1       1.013   8.546  22.076  0.00  0.00    +0.000 C 
ENDBRANCH  29  32
ENDBRANCH  23  24
ENDBRANCH   1  23
TORSDOF 10
ENDMDL
MODEL 5
REMARK VINA RESULT:      -6.4      3.009      7.038
REMARK  Name = 
REMARK  14 active torsions:
REMARK  status: ('A' for Active; 'I' for Inactive)
REMARK    1  A    between atoms: C_1  and  O_2
REMARK    2  A    between atoms: O_2  and  C_3
REMARK    3  A    between atoms: C_6  and  O_7
REMARK    4  A    between atoms: O_7  and  C_8
REMARK    5  A    between atoms: C_9  and  S_10
REMARK    6  A    between atoms: S_10  and  N_13
REMARK    7  A    between atoms: N_13  and  C_14
REMARK    8  A    between atoms: N_13  and  C_22
REMARK    9  A    between atoms: C_14  and  C_15
REMARK   10  A    between atoms: C_22  and  C_23
REMARK   11  A    between atoms: C_26  and  O_27
REMARK   12  A    between atoms: O_27  and  C_28
REMARK   13  A    between atoms: C_30  and  O_31
REMARK   14  A    between atoms: O_31  and  C_32
REMARK                            x       y       z     vdW  Elec       q    Type
REMARK                         _______ _______ _______ _____ _____    ______ ____
ROOT
ATOM      1  N   UNL     1       2.708   5.598  19.316  0.00  0.00    +0.000 NA
ENDROOT
BRANCH   1   2
ATOM      2  S   UNL     1       1.703   4.222  19.597  0.00  0.00    +0.000 S 
ATOM      3  O   UNL     1       0.828   4.104  18.443  0.00  0.00    +0.000 OA
ATOM      4  O   UNL     1       1.104   4.329  20.907  0.00  0.00    +0.000 OA
BRANCH   2   9
ATOM      5  C   UNL     1       4.604   1.680  20.798  0.00  0.00    +0.000 A 
ATOM      6  C   UNL     1       4.898   1.008  19.613  0.00  0.00    +0.000 A 
ATOM      7  C   UNL     1       4.094   1.151  18.488  0.00  0.00    +0.000 A 
ATOM      8  C   UNL     1       3.005   2.031  18.491  0.00  0.00    +0.000 A 
ATOM      9  C   UNL     1       2.723   2.744  19.669  0.00  0.00    +0.000 A 
ATOM     10  C   UNL     1       3.505   2.542  20.833  0.00  0.00    +0.000 A 
BRANCH   5  12
ATOM     11  C   UNL     1       6.005   0.102  21.987  0.00  0.00    +0.000 C 
ATOM     12  O   UNL     1       5.519   1.413  21.768  0.00  0.00    +0.000 OA
ENDBRANCH   5  12
BRANCH   8  13
ATOM     13  O   UNL     1       2.233   2.242  17.382  0.00  0.00    +0.000 OA
ATOM     14  C   UNL     1       2.880   2.856  16.268  0.00  0.00    +0.000 C 
ENDBRANCH   8  13
ENDBRANCH   2   9
ENDBRANCH   1   2
BRANCH   1  15
ATOM     15  C   UNL     1       2.438   6.769  20.210  0.00  0.00    +0.000 C 
BRANCH  15  16
ATOM     16  C   UNL     1       1.837   8.015  19.634  0.00  0.00    +0.000 A 
ATOM     17  C   UNL     1       1.091   8.874  20.465  0.00  0.00    +0.000 A 
ATOM     18  C   UNL     1       0.676  10.119  20.002  0.00  0.00    +0.000 A 
ATOM     19  C   UNL     1       0.997  10.507  18.710  0.00  0.00    +0.000 A 
ATOM     20  F   UNL     1       0.631  11.721  18.279  0.00  0.00    +0.000 F 
ATOM     21  C   UNL     1       1.710   9.662  17.863  0.00  0.00    +0.000 A 
ATOM     22  C   UNL     1       2.130   8.415  18.322  0.00  0.00    +0.000 A 
ENDBRANCH  15  16
ENDBRANCH   1  15
BRANCH   1  23
ATOM     23  C   UNL     1       4.184   5.311  19.438  0.00  0.00    +0.000 C 
BRANCH  23  24
ATOM     24  C   UNL     1       5.040   5.367  18.218  0.00  0.00    +0.000 A 
ATOM     25  C   UNL     1       4.483   5.632  16.980  0.00  0.00    +0.000 A 
ATOM     26  N   UNL     1       5.177   5.671  15.831  0.00  0.00    +0.000 NA
ATOM     27  C   UNL     1       6.490   5.458  15.940  0.00  0.00    +0.000 A 
ATOM     28  N   UNL     1       7.141   5.146  17.073  0.00  0.00    +0.000 NA
ATOM     29  C   UNL     1       6.391   5.098  18.189  0.00  0.00    +0.000 A 
BRANCH  27  30
ATOM     30  O   UNL     1       7.179   5.549  14.752  0.00  0.00    +0.000 OA
ATOM     31  C   UNL     1       6.840   4.520  13.836  0.00  0.00    +0.000 C 
ENDBRANCH  27  30
BRANCH  29  32
ATOM     32  O   UNL     1       6.996   4.739  19.380  0.00  0.00    +0.000 OA
ATOM     33  C   UNL     1       7.968   5.679  19.829  0.00  0.00    +0.000 C 
ENDBRANCH  29  32
ENDBRANCH  23  24
ENDBRANCH   1  23
TORSDOF 10
ENDMDL
MODEL 6
REMARK VINA RESULT:      -6.3      6.916     10.691
REMARK  Name = 
REMARK  14 active torsions:
REMARK  status: ('A' for Active; 'I' for Inactive)
REMARK    1  A    between atoms: C_1  and  O_2
REMARK    2  A    between atoms: O_2  and  C_3
REMARK    3  A    between atoms: C_6  and  O_7
REMARK    4  A    between atoms: O_7  and  C_8
REMARK    5  A    between atoms: C_9  and  S_10
REMARK    6  A    between atoms: S_10  and  N_13
REMARK    7  A    between atoms: N_13  and  C_14
REMARK    8  A    between atoms: N_13  and  C_22
REMARK    9  A    between atoms: C_14  and  C_15
REMARK   10  A    between atoms: C_22  and  C_23
REMARK   11  A    between atoms: C_26  and  O_27
REMARK   12  A    between atoms: O_27  and  C_28
REMARK   13  A    between atoms: C_30  and  O_31
REMARK   14  A    between atoms: O_31  and  C_32
REMARK                            x       y       z     vdW  Elec       q    Type
REMARK                         _______ _______ _______ _____ _____    ______ ____
ROOT
ATOM      1  N   UNL     1      -0.389  11.831  20.154  0.00  0.00    +0.000 NA
ENDROOT
BRANCH   1   2
ATOM      2  S   UNL     1       0.372  13.003  21.169  0.00  0.00    +0.000 S 
ATOM      3  O   UNL     1       1.795  12.710  21.147  0.00  0.00    +0.000 OA
ATOM      4  O   UNL     1      -0.305  13.040  22.444  0.00  0.00    +0.000 OA
BRANCH   2   9
ATOM      5  C   UNL     1      -1.400  16.526  20.294  0.00  0.00    +0.000 A 
ATOM      6  C   UNL     1      -0.880  16.797  19.030  0.00  0.00    +0.000 A 
ATOM      7  C   UNL     1       0.167  16.046  18.508  0.00  0.00    +0.000 A 
ATOM      8  C   UNL     1       0.680  14.947  19.208  0.00  0.00    +0.000 A 
ATOM      9  C   UNL     1       0.135  14.641  20.468  0.00  0.00    +0.000 A 
ATOM     10  C   UNL     1      -0.884  15.452  21.024  0.00  0.00    +0.000 A 
BRANCH   5  12
ATOM     11  C   UNL     1      -3.317  17.846  19.620  0.00  0.00    +0.000 C 
ATOM     12  O   UNL     1      -2.423  17.367  20.608  0.00  0.00    +0.000 OA
ENDBRANCH   5  12
BRANCH   8  13
ATOM     13  O   UNL     1       1.665  14.150  18.695  0.00  0.00    +0.000 OA
ATOM     14  C   UNL     1       2.814  14.819  18.174  0.00  0.00    +0.000 C 
ENDBRANCH   8  13
ENDBRANCH   2   9
ENDBRANCH   1   2
BRANCH   1  15
ATOM     15  C   UNL     1      -0.205  10.409  20.587  0.00  0.00    +0.000 C 
BRANCH  15  16
ATOM     16  C   UNL     1       0.805   9.549  19.890  0.00  0.00    +0.000 A 
ATOM     17  C   UNL     1       1.322   8.415  20.547  0.00  0.00    +0.000 A 
ATOM     18  C   UNL     1       2.121   7.505  19.861  0.00  0.00    +0.000 A 
ATOM     19  C   UNL     1       2.411   7.726  18.524  0.00  0.00    +0.000 A 
ATOM     20  F   UNL     1       3.147   6.830  17.854  0.00  0.00    +0.000 F 
ATOM     21  C   UNL     1       1.932   8.855  17.862  0.00  0.00    +0.000 A 
ATOM     22  C   UNL     1       1.130   9.768  18.543  0.00  0.00    +0.000 A 
ENDBRANCH  15  16
ENDBRANCH   1  15
BRANCH   1  23
ATOM     23  C   UNL     1      -1.876  12.032  19.998  0.00  0.00    +0.000 C 
BRANCH  23  24
ATOM     24  C   UNL     1      -2.527  11.671  18.706  0.00  0.00    +0.000 A 
ATOM     25  C   UNL     1      -1.765  11.442  17.575  0.00  0.00    +0.000 A 
ATOM     26  N   UNL     1      -2.273  11.142  16.368  0.00  0.00    +0.000 NA
ATOM     27  C   UNL     1      -3.603  11.046  16.307  0.00  0.00    +0.000 A 
ATOM     28  N   UNL     1      -4.452  11.289  17.319  0.00  0.00    +0.000 NA
ATOM     29  C   UNL     1      -3.887  11.609  18.498  0.00  0.00    +0.000 A 
BRANCH  27  30
ATOM     30  O   UNL     1      -4.090  10.694  15.068  0.00  0.00    +0.000 OA
ATOM     31  C   UNL     1      -3.134  10.007  14.275  0.00  0.00    +0.000 C 
ENDBRANCH  27  30
BRANCH  29  32
ATOM     32  O   UNL     1      -4.710  11.913  19.567  0.00  0.00    +0.000 OA
ATOM     33  C   UNL     1      -6.083  11.614  19.331  0.00  0.00    +0.000 C 
ENDBRANCH  29  32
ENDBRANCH  23  24
ENDBRANCH   1  23
TORSDOF 10
ENDMDL
MODEL 7
REMARK VINA RESULT:      -6.3      2.365      7.731
REMARK  Name = 
REMARK  14 active torsions:
REMARK  status: ('A' for Active; 'I' for Inactive)
REMARK    1  A    between atoms: C_1  and  O_2
REMARK    2  A    between atoms: O_2  and  C_3
REMARK    3  A    between atoms: C_6  and  O_7
REMARK    4  A    between atoms: O_7  and  C_8
REMARK    5  A    between atoms: C_9  and  S_10
REMARK    6  A    between atoms: S_10  and  N_13
REMARK    7  A    between atoms: N_13  and  C_14
REMARK    8  A    between atoms: N_13  and  C_22
REMARK    9  A    between atoms: C_14  and  C_15
REMARK   10  A    between atoms: C_22  and  C_23
REMARK   11  A    between atoms: C_26  and  O_27
REMARK   12  A    between atoms: O_27  and  C_28
REMARK   13  A    between atoms: C_30  and  O_31
REMARK   14  A    between atoms: O_31  and  C_32
REMARK                            x       y       z     vdW  Elec       q    Type
REMARK                         _______ _______ _______ _____ _____    ______ ____
ROOT
ATOM      1  N   UNL     1       2.802   7.269  18.556  0.00  0.00    +0.000 NA
ENDROOT
BRANCH   1   2
ATOM      2  S   UNL     1       1.808   8.511  17.885  0.00  0.00    +0.000 S 
ATOM      3  O   UNL     1       0.700   7.844  17.224  0.00  0.00    +0.000 OA
ATOM      4  O   UNL     1       2.630   9.413  17.112  0.00  0.00    +0.000 OA
BRANCH   2   9
ATOM      5  C   UNL     1       0.865   9.697  21.630  0.00  0.00    +0.000 A 
ATOM      6  C   UNL     1      -0.334  10.375  21.417  0.00  0.00    +0.000 A 
ATOM      7  C   UNL     1      -0.772  10.674  20.131  0.00  0.00    +0.000 A 
ATOM      8  C   UNL     1      -0.057  10.236  19.010  0.00  0.00    +0.000 A 
ATOM      9  C   UNL     1       1.134   9.517  19.214  0.00  0.00    +0.000 A 
ATOM     10  C   UNL     1       1.611   9.276  20.526  0.00  0.00    +0.000 A 
BRANCH   5  12
ATOM     11  C   UNL     1       0.040   9.355  23.882  0.00  0.00    +0.000 C 
ATOM     12  O   UNL     1       1.100   9.496  22.954  0.00  0.00    +0.000 OA
ENDBRANCH   5  12
BRANCH   8  13
ATOM     13  O   UNL     1      -0.492  10.458  17.734  0.00  0.00    +0.000 OA
ATOM     14  C   UNL     1      -1.907  10.498  17.546  0.00  0.00    +0.000 C 
ENDBRANCH   8  13
ENDBRANCH   2   9
ENDBRANCH   1   2
BRANCH   1  15
ATOM     15  C   UNL     1       2.435   5.876  18.143  0.00  0.00    +0.000 C 
BRANCH  15  16
ATOM     16  C   UNL     1       2.016   4.883  19.183  0.00  0.00    +0.000 A 
ATOM     17  C   UNL     1       1.521   3.626  18.782  0.00  0.00    +0.000 A 
ATOM     18  C   UNL     1       1.294   2.625  19.722  0.00  0.00    +0.000 A 
ATOM     19  C   UNL     1       1.553   2.876  21.060  0.00  0.00    +0.000 A 
ATOM     20  F   UNL     1       1.371   1.899  21.959  0.00  0.00    +0.000 F 
ATOM     21  C   UNL     1       2.017   4.120  21.481  0.00  0.00    +0.000 A 
ATOM     22  C   UNL     1       2.248   5.125  20.545  0.00  0.00    +0.000 A 
ENDBRANCH  15  16
ENDBRANCH   1  15
BRANCH   1  23
ATOM     23  C   UNL     1       4.270   7.425  18.243  0.00  0.00    +0.000 C 
BRANCH  23  24
ATOM     24  C   UNL     1       4.933   6.431  17.352  0.00  0.00    +0.000 A 
ATOM     25  C   UNL     1       4.912   6.593  15.979  0.00  0.00    +0.000 A 
ATOM     26  N   UNL     1       5.459   5.729  15.107  0.00  0.00    +0.000 NA
ATOM     27  C   UNL     1       6.072   4.673  15.644  0.00  0.00    +0.000 A 
ATOM     28  N   UNL     1       6.122   4.380  16.954  0.00  0.00    +0.000 NA
ATOM     29  C   UNL     1       5.537   5.268  17.779  0.00  0.00    +0.000 A 
BRANCH  27  30
ATOM     30  O   UNL     1       6.661   3.832  14.727  0.00  0.00    +0.000 OA
ATOM     31  C   UNL     1       6.110   3.963  13.426  0.00  0.00    +0.000 C 
ENDBRANCH  27  30
BRANCH  29  32
ATOM     32  O   UNL     1       5.517   4.999  19.136  0.00  0.00    +0.000 OA
ATOM     33  C   UNL     1       5.258   3.632  19.441  0.00  0.00    +0.000 C 
ENDBRANCH  29  32
ENDBRANCH  23  24
ENDBRANCH   1  23
TORSDOF 10
ENDMDL
MODEL 8
REMARK VINA RESULT:      -6.3      2.282      7.646
REMARK  Name = 
REMARK  14 active torsions:
REMARK  status: ('A' for Active; 'I' for Inactive)
REMARK    1  A    between atoms: C_1  and  O_2
REMARK    2  A    between atoms: O_2  and  C_3
REMARK    3  A    between atoms: C_6  and  O_7
REMARK    4  A    between atoms: O_7  and  C_8
REMARK    5  A    between atoms: C_9  and  S_10
REMARK    6  A    between atoms: S_10  and  N_13
REMARK    7  A    between atoms: N_13  and  C_14
REMARK    8  A    between atoms: N_13  and  C_22
REMARK    9  A    between atoms: C_14  and  C_15
REMARK   10  A    between atoms: C_22  and  C_23
REMARK   11  A    between atoms: C_26  and  O_27
REMARK   12  A    between atoms: O_27  and  C_28
REMARK   13  A    between atoms: C_30  and  O_31
REMARK   14  A    between atoms: O_31  and  C_32
REMARK                            x       y       z     vdW  Elec       q    Type
REMARK                         _______ _______ _______ _____ _____    ______ ____
ROOT
ATOM      1  N   UNL     1       2.775   7.450  18.543  0.00  0.00    +0.000 NA
ENDROOT
BRANCH   1   2
ATOM      2  S   UNL     1       1.896   8.815  17.955  0.00  0.00    +0.000 S 
ATOM      3  O   UNL     1       0.669   8.298  17.371  0.00  0.00    +0.000 OA
ATOM      4  O   UNL     1       2.764   9.622  17.131  0.00  0.00    +0.000 OA
BRANCH   2   9
ATOM      5  C   UNL     1       0.114  10.027  21.372  0.00  0.00    +0.000 A 
ATOM      6  C   UNL     1      -0.008  11.397  21.155  0.00  0.00    +0.000 A 
ATOM      7  C   UNL     1       0.627  12.015  20.084  0.00  0.00    +0.000 A 
ATOM      8  C   UNL     1       1.349  11.264  19.149  0.00  0.00    +0.000 A 
ATOM      9  C   UNL     1       1.446   9.873  19.336  0.00  0.00    +0.000 A 
ATOM     10  C   UNL     1       0.854   9.260  20.467  0.00  0.00    +0.000 A 
BRANCH   5  12
ATOM     11  C   UNL     1      -1.247  10.556  23.305  0.00  0.00    +0.000 C 
ATOM     12  O   UNL     1      -0.594   9.625  22.462  0.00  0.00    +0.000 OA
ENDBRANCH   5  12
BRANCH   8  13
ATOM     13  O   UNL     1       1.933  11.831  18.050  0.00  0.00    +0.000 OA
ATOM     14  C   UNL     1       2.422  13.163  18.210  0.00  0.00    +0.000 C 
ENDBRANCH   8  13
ENDBRANCH   2   9
ENDBRANCH   1   2
BRANCH   1  15
ATOM     15  C   UNL     1       2.326   6.129  17.998  0.00  0.00    +0.000 C 
BRANCH  15  16
ATOM     16  C   UNL     1       1.887   5.051  18.942  0.00  0.00    +0.000 A 
ATOM     17  C   UNL     1       1.521   3.790  18.432  0.00  0.00    +0.000 A 
ATOM     18  C   UNL     1       1.282   2.723  19.293  0.00  0.00    +0.000 A 
ATOM     19  C   UNL     1       1.402   2.912  20.661  0.00  0.00    +0.000 A 
ATOM     20  F   UNL     1       1.210   1.875  21.487  0.00  0.00    +0.000 F 
ATOM     21  C   UNL     1       1.737   4.157  21.188  0.00  0.00    +0.000 A 
ATOM     22  C   UNL     1       1.979   5.229  20.330  0.00  0.00    +0.000 A 
ENDBRANCH  15  16
ENDBRANCH   1  15
BRANCH   1  23
ATOM     23  C   UNL     1       4.261   7.525  18.288  0.00  0.00    +0.000 C 
BRANCH  23  24
ATOM     24  C   UNL     1       4.891   6.536  17.369  0.00  0.00    +0.000 A 
ATOM     25  C   UNL     1       4.922   6.763  16.005  0.00  0.00    +0.000 A 
ATOM     26  N   UNL     1       5.444   5.910  15.107  0.00  0.00    +0.000 NA
ATOM     27  C   UNL     1       5.977   4.794  15.610  0.00  0.00    +0.000 A 
ATOM     28  N   UNL     1       5.968   4.438  16.905  0.00  0.00    +0.000 NA
ATOM     29  C   UNL     1       5.412   5.320  17.756  0.00  0.00    +0.000 A 
BRANCH  27  30
ATOM     30  O   UNL     1       6.543   3.963  14.669  0.00  0.00    +0.000 OA
ATOM     31  C   UNL     1       5.719   3.780  13.529  0.00  0.00    +0.000 C 
ENDBRANCH  27  30
BRANCH  29  32
ATOM     32  O   UNL     1       5.334   4.989  19.096  0.00  0.00    +0.000 OA
ATOM     33  C   UNL     1       5.073   3.608  19.327  0.00  0.00    +0.000 C 
ENDBRANCH  29  32
ENDBRANCH  23  24
ENDBRANCH   1  23
TORSDOF 10
ENDMDL
MODEL 9
REMARK VINA RESULT:      -6.2      4.735     10.252
REMARK  Name = 
REMARK  14 active torsions:
REMARK  status: ('A' for Active; 'I' for Inactive)
REMARK    1  A    between atoms: C_1  and  O_2
REMARK    2  A    between atoms: O_2  and  C_3
REMARK    3  A    between atoms: C_6  and  O_7
REMARK    4  A    between atoms: O_7  and  C_8
REMARK    5  A    between atoms: C_9  and  S_10
REMARK    6  A    between atoms: S_10  and  N_13
REMARK    7  A    between atoms: N_13  and  C_14
REMARK    8  A    between atoms: N_13  and  C_22
REMARK    9  A    between atoms: C_14  and  C_15
REMARK   10  A    between atoms: C_22  and  C_23
REMARK   11  A    between atoms: C_26  and  O_27
REMARK   12  A    between atoms: O_27  and  C_28
REMARK   13  A    between atoms: C_30  and  O_31
REMARK   14  A    between atoms: O_31  and  C_32
REMARK                            x       y       z     vdW  Elec       q    Type
REMARK                         _______ _______ _______ _____ _____    ______ ____
ROOT
ATOM      1  N   UNL     1       0.369   9.669  20.095  0.00  0.00    +0.000 NA
ENDROOT
BRANCH   1   2
ATOM      2  S   UNL     1       0.278  10.052  21.776  0.00  0.00    +0.000 S 
ATOM      3  O   UNL     1       1.627   9.937  22.302  0.00  0.00    +0.000 OA
ATOM      4  O   UNL     1      -0.770   9.269  22.387  0.00  0.00    +0.000 OA
BRANCH   2   9
ATOM      5  C   UNL     1      -2.170  13.254  22.057  0.00  0.00    +0.000 A 
ATOM      6  C   UNL     1      -1.377  14.264  21.517  0.00  0.00    +0.000 A 
ATOM      7  C   UNL     1      -0.027  14.055  21.256  0.00  0.00    +0.000 A 
ATOM      8  C   UNL     1       0.557  12.799  21.460  0.00  0.00    +0.000 A 
ATOM      9  C   UNL     1      -0.245  11.761  21.969  0.00  0.00    +0.000 A 
ATOM     10  C   UNL     1      -1.602  12.000  22.297  0.00  0.00    +0.000 A 
BRANCH   5  12
ATOM     11  C   UNL     1      -4.452  12.785  22.721  0.00  0.00    +0.000 C 
ATOM     12  O   UNL     1      -3.458  13.660  22.222  0.00  0.00    +0.000 OA
ENDBRANCH   5  12
BRANCH   8  13
ATOM     13  O   UNL     1       1.865  12.543  21.155  0.00  0.00    +0.000 OA
ATOM     14  C   UNL     1       2.646  13.661  20.733  0.00  0.00    +0.000 C 
ENDBRANCH   8  13
ENDBRANCH   2   9
ENDBRANCH   1   2
BRANCH   1  15
ATOM     15  C   UNL     1       0.087  10.815  19.171  0.00  0.00    +0.000 C 
BRANCH  15  16
ATOM     16  C   UNL     1      -1.224  10.874  18.447  0.00  0.00    +0.000 A 
ATOM     17  C   UNL     1      -1.523   9.902  17.472  0.00  0.00    +0.000 A 
ATOM     18  C   UNL     1      -2.796   9.829  16.915  0.00  0.00    +0.000 A 
ATOM     19  C   UNL     1      -3.770  10.727  17.323  0.00  0.00    +0.000 A 
ATOM     20  F   UNL     1      -5.006  10.631  16.815  0.00  0.00    +0.000 F 
ATOM     21  C   UNL     1      -3.488  11.713  18.265  0.00  0.00    +0.000 A 
ATOM     22  C   UNL     1      -2.216  11.790  18.828  0.00  0.00    +0.000 A 
ENDBRANCH  15  16
ENDBRANCH   1  15
BRANCH   1  23
ATOM     23  C   UNL     1       1.701   9.106  19.667  0.00  0.00    +0.000 C 
BRANCH  23  24
ATOM     24  C   UNL     1       1.902   7.629  19.673  0.00  0.00    +0.000 A 
ATOM     25  C   UNL     1       1.411   6.856  20.709  0.00  0.00    +0.000 A 
ATOM     26  N   UNL     1       1.574   5.525  20.804  0.00  0.00    +0.000 NA
ATOM     27  C   UNL     1       2.240   4.950  19.801  0.00  0.00    +0.000 A 
ATOM     28  N   UNL     1       2.804   5.594  18.766  0.00  0.00    +0.000 NA
ATOM     29  C   UNL     1       2.628   6.928  18.735  0.00  0.00    +0.000 A 
BRANCH  27  30
ATOM     30  O   UNL     1       2.351   3.582  19.906  0.00  0.00    +0.000 OA
ATOM     31  C   UNL     1       1.099   2.919  19.816  0.00  0.00    +0.000 C 
ENDBRANCH  27  30
BRANCH  29  32
ATOM     32  O   UNL     1       3.223   7.651  17.717  0.00  0.00    +0.000 OA
ATOM     33  C   UNL     1       4.372   7.016  17.165  0.00  0.00    +0.000 C 
ENDBRANCH  29  32
ENDBRANCH  23  24
ENDBRANCH   1  23
TORSDOF 10
ENDMDL
