MODEL 1
REMARK VINA RESULT:      -9.0      0.000      0.000
REMARK  Name = 
REMARK  4 active torsions:
REMARK  status: ('A' for Active; 'I' for Inactive)
REMARK    1  A    between atoms: N_1  and  N_2
REMARK    2  A    between atoms: C_3  and  C_5
REMARK    3  A    between atoms: C_7  and  C_8
REMARK    4  A    between atoms: N_15  and  C_16
REMARK                            x       y       z     vdW  Elec       q    Type
REMARK                         _______ _______ _______ _____ _____    ______ ____
ROOT
ATOM      1  C   UNL     1       5.580   5.289  16.976  0.00  0.00    +0.000 A 
ATOM      2  C   UNL     1       4.848   6.491  17.048  0.00  0.00    +0.000 A 
ATOM      3  C   UNL     1       3.783   6.258  17.903  0.00  0.00    +0.000 A 
ATOM      4  N   UNL     1       3.865   4.894  18.210  0.00  0.00    +0.000 N 
ATOM      5  N   UNL     1       5.010   4.329  17.730  0.00  0.00    +0.000 NA
ENDROOT
BRANCH   3   6
ATOM      6  C   UNL     1       2.823   7.240  18.443  0.00  0.00    +0.000 A 
ATOM      7  C   UNL     1       2.406   7.155  19.780  0.00  0.00    +0.000 A 
ATOM      8  C   UNL     1       1.547   8.115  20.329  0.00  0.00    +0.000 A 
ATOM      9  C   UNL     1       1.109   9.182  19.549  0.00  0.00    +0.000 A 
ATOM     10 CL   UNL     1       0.115  10.404  20.239  0.00  0.00    +0.000 Cl
ATOM     11  C   UNL     1       1.474   9.264  18.211  0.00  0.00    +0.000 A 
ATOM     12  C   UNL     1       2.288   8.273  17.655  0.00  0.00    +0.000 A 
ENDBRANCH   3   6
BRANCH   4  13
ATOM     13  C   UNL     1       2.968   4.091  18.972  0.00  0.00    +0.000 A 
ATOM     14  C   UNL     1       1.703   3.746  18.476  0.00  0.00    +0.000 A 
ATOM     15  C   UNL     1       0.765   3.142  19.313  0.00  0.00    +0.000 A 
ATOM     16  C   UNL     1       1.098   2.853  20.636  0.00  0.00    +0.000 A 
ATOM     17  C   UNL     1       2.382   3.122  21.108  0.00  0.00    +0.000 A 
ATOM     18  C   UNL     1       3.327   3.722  20.272  0.00  0.00    +0.000 A 
ENDBRANCH   4  13
BRANCH   1  20
ATOM     19  N   UNL     1       6.771   5.530  14.916  0.00  0.00    +0.000 N 
ATOM     20  C   UNL     1       6.825   5.055  16.225  0.00  0.00    +0.000 C 
ATOM     21  O   UNL     1       7.800   4.490  16.713  0.00  0.00    +0.000 OA
ATOM     22  H   UNL     1       5.941   6.069  14.663  0.00  0.00    +0.000 HD
BRANCH  19  23
ATOM     23  N   UNL     1       7.910   5.505  14.079  0.00  0.00    +0.000 NA
ATOM     24  H   UNL     1       7.639   5.793  13.137  0.00  0.00    +0.000 HD
ATOM     25  H   UNL     1       8.211   4.526  13.999  0.00  0.00    +0.000 HD
ENDBRANCH  19  23
ENDBRANCH   1  20
TORSDOF 4
ENDMDL
MODEL 2
REMARK VINA RESULT:      -9.0      0.197      1.045
REMARK  Name = 
REMARK  4 active torsions:
REMARK  status: ('A' for Active; 'I' for Inactive)
REMARK    1  A    between atoms: N_1  and  N_2
REMARK    2  A    between atoms: C_3  and  C_5
REMARK    3  A    between atoms: C_7  and  C_8
REMARK    4  A    between atoms: N_15  and  C_16
REMARK                            x       y       z     vdW  Elec       q    Type
REMARK                         _______ _______ _______ _____ _____    ______ ____
ROOT
ATOM      1  C   UNL     1       5.620   5.240  16.808  0.00  0.00    +0.000 A 
ATOM      2  C   UNL     1       4.928   6.461  16.938  0.00  0.00    +0.000 A 
ATOM      3  C   UNL     1       3.870   6.229  17.802  0.00  0.00    +0.000 A 
ATOM      4  N   UNL     1       3.913   4.852  18.057  0.00  0.00    +0.000 N 
ATOM      5  N   UNL     1       5.033   4.271  17.536  0.00  0.00    +0.000 NA
ENDROOT
BRANCH   3   6
ATOM      6  C   UNL     1       2.951   7.219  18.395  0.00  0.00    +0.000 A 
ATOM      7  C   UNL     1       2.490   8.300  17.627  0.00  0.00    +0.000 A 
ATOM      8  C   UNL     1       1.567   9.213  18.152  0.00  0.00    +0.000 A 
ATOM      9  C   UNL     1       1.080   9.044  19.445  0.00  0.00    +0.000 A 
ATOM     10 CL   UNL     1      -0.110  10.119  20.066  0.00  0.00    +0.000 Cl
ATOM     11  C   UNL     1       1.553   8.006  20.237  0.00  0.00    +0.000 A 
ATOM     12  C   UNL     1       2.516   7.130  19.728  0.00  0.00    +0.000 A 
ENDBRANCH   3   6
BRANCH   4  13
ATOM     13  C   UNL     1       3.004   4.049  18.804  0.00  0.00    +0.000 A 
ATOM     14  C   UNL     1       1.738   3.725  18.297  0.00  0.00    +0.000 A 
ATOM     15  C   UNL     1       0.789   3.120  19.122  0.00  0.00    +0.000 A 
ATOM     16  C   UNL     1       1.112   2.811  20.442  0.00  0.00    +0.000 A 
ATOM     17  C   UNL     1       2.397   3.059  20.924  0.00  0.00    +0.000 A 
ATOM     18  C   UNL     1       3.352   3.660  20.101  0.00  0.00    +0.000 A 
ENDBRANCH   4  13
BRANCH   1  20
ATOM     19  N   UNL     1       6.762   5.468  14.719  0.00  0.00    +0.000 N 
ATOM     20  C   UNL     1       6.845   4.996  16.027  0.00  0.00    +0.000 C 
ATOM     21  O   UNL     1       7.828   4.426  16.493  0.00  0.00    +0.000 OA
ATOM     22  H   UNL     1       5.929   6.012  14.486  0.00  0.00    +0.000 HD
BRANCH  19  23
ATOM     23  N   UNL     1       7.880   5.433  13.854  0.00  0.00    +0.000 NA
ATOM     24  H   UNL     1       8.497   4.669  14.137  0.00  0.00    +0.000 HD
ATOM     25  H   UNL     1       8.414   6.297  14.008  0.00  0.00    +0.000 HD
ENDBRANCH  19  23
ENDBRANCH   1  20
TORSDOF 4
ENDMDL
MODEL 3
REMARK VINA RESULT:      -8.9      0.306      1.066
REMARK  Name = 
REMARK  4 active torsions:
REMARK  status: ('A' for Active; 'I' for Inactive)
REMARK    1  A    between atoms: N_1  and  N_2
REMARK    2  A    between atoms: C_3  and  C_5
REMARK    3  A    between atoms: C_7  and  C_8
REMARK    4  A    between atoms: N_15  and  C_16
REMARK                            x       y       z     vdW  Elec       q    Type
REMARK                         _______ _______ _______ _____ _____    ______ ____
ROOT
ATOM      1  C   UNL     1       5.403   5.425  17.082  0.00  0.00    +0.000 A 
ATOM      2  C   UNL     1       4.689   6.641  17.095  0.00  0.00    +0.000 A 
ATOM      3  C   UNL     1       3.614   6.462  17.950  0.00  0.00    +0.000 A 
ATOM      4  N   UNL     1       3.672   5.111  18.318  0.00  0.00    +0.000 N 
ATOM      5  N   UNL     1       4.812   4.508  17.873  0.00  0.00    +0.000 NA
ENDROOT
BRANCH   3   6
ATOM      6  C   UNL     1       2.665   7.481  18.439  0.00  0.00    +0.000 A 
ATOM      7  C   UNL     1       2.228   7.454  19.772  0.00  0.00    +0.000 A 
ATOM      8  C   UNL     1       1.379   8.450  20.271  0.00  0.00    +0.000 A 
ATOM      9  C   UNL     1       0.972   9.494  19.446  0.00  0.00    +0.000 A 
ATOM     10 CL   UNL     1      -0.007  10.759  20.075  0.00  0.00    +0.000 Cl
ATOM     11  C   UNL     1       1.359   9.518  18.112  0.00  0.00    +0.000 A 
ATOM     12  C   UNL     1       2.161   8.492  17.605  0.00  0.00    +0.000 A 
ENDBRANCH   3   6
BRANCH   4  13
ATOM     13  C   UNL     1       2.757   4.356  19.107  0.00  0.00    +0.000 A 
ATOM     14  C   UNL     1       3.002   4.110  20.466  0.00  0.00    +0.000 A 
ATOM     15  C   UNL     1       2.209   3.200  21.165  0.00  0.00    +0.000 A 
ATOM     16  C   UNL     1       1.152   2.559  20.519  0.00  0.00    +0.000 A 
ATOM     17  C   UNL     1       0.858   2.862  19.191  0.00  0.00    +0.000 A 
ATOM     18  C   UNL     1       1.646   3.776  18.487  0.00  0.00    +0.000 A 
ENDBRANCH   4  13
BRANCH   1  20
ATOM     19  N   UNL     1       6.598   5.520  15.013  0.00  0.00    +0.000 N 
ATOM     20  C   UNL     1       6.649   5.140  16.352  0.00  0.00    +0.000 C 
ATOM     21  O   UNL     1       7.624   4.612  16.882  0.00  0.00    +0.000 OA
ATOM     22  H   UNL     1       5.768   6.039  14.721  0.00  0.00    +0.000 HD
BRANCH  19  23
ATOM     23  N   UNL     1       7.740   5.437  14.182  0.00  0.00    +0.000 NA
ATOM     24  H   UNL     1       7.628   4.650  13.540  0.00  0.00    +0.000 HD
ATOM     25  H   UNL     1       8.539   5.200  14.782  0.00  0.00    +0.000 HD
ENDBRANCH  19  23
ENDBRANCH   1  20
TORSDOF 4
ENDMDL
MODEL 4
REMARK VINA RESULT:      -8.8      0.374      1.495
REMARK  Name = 
REMARK  4 active torsions:
REMARK  status: ('A' for Active; 'I' for Inactive)
REMARK    1  A    between atoms: N_1  and  N_2
REMARK    2  A    between atoms: C_3  and  C_5
REMARK    3  A    between atoms: C_7  and  C_8
REMARK    4  A    between atoms: N_15  and  C_16
REMARK                            x       y       z     vdW  Elec       q    Type
REMARK                         _______ _______ _______ _____ _____    ______ ____
ROOT
ATOM      1  C   UNL     1       5.379   5.462  17.107  0.00  0.00    +0.000 A 
ATOM      2  C   UNL     1       4.684   6.689  17.124  0.00  0.00    +0.000 A 
ATOM      3  C   UNL     1       3.617   6.531  17.993  0.00  0.00    +0.000 A 
ATOM      4  N   UNL     1       3.659   5.181  18.366  0.00  0.00    +0.000 N 
ATOM      5  N   UNL     1       4.783   4.559  17.909  0.00  0.00    +0.000 NA
ENDROOT
BRANCH   3   6
ATOM      6  C   UNL     1       2.692   7.568  18.490  0.00  0.00    +0.000 A 
ATOM      7  C   UNL     1       2.253   8.588  17.632  0.00  0.00    +0.000 A 
ATOM      8  C   UNL     1       1.324   9.542  18.066  0.00  0.00    +0.000 A 
ATOM      9  C   UNL     1       0.811   9.475  19.358  0.00  0.00    +0.000 A 
ATOM     10 CL   UNL     1      -0.386  10.599  19.870  0.00  0.00    +0.000 Cl
ATOM     11  C   UNL     1       1.262   8.499  20.237  0.00  0.00    +0.000 A 
ATOM     12  C   UNL     1       2.230   7.583  19.816  0.00  0.00    +0.000 A 
ENDBRANCH   3   6
BRANCH   4  13
ATOM     13  C   UNL     1       2.742   4.445  19.170  0.00  0.00    +0.000 A 
ATOM     14  C   UNL     1       2.995   4.209  20.529  0.00  0.00    +0.000 A 
ATOM     15  C   UNL     1       2.197   3.315  21.243  0.00  0.00    +0.000 A 
ATOM     16  C   UNL     1       1.128   2.680  20.613  0.00  0.00    +0.000 A 
ATOM     17  C   UNL     1       0.827   2.974  19.284  0.00  0.00    +0.000 A 
ATOM     18  C   UNL     1       1.619   3.872  18.565  0.00  0.00    +0.000 A 
ENDBRANCH   4  13
BRANCH   1  20
ATOM     19  N   UNL     1       6.567   5.571  15.034  0.00  0.00    +0.000 N 
ATOM     20  C   UNL     1       6.611   5.154  16.362  0.00  0.00    +0.000 C 
ATOM     21  O   UNL     1       7.569   4.579  16.872  0.00  0.00    +0.000 OA
ATOM     22  H   UNL     1       5.754   6.126  14.761  0.00  0.00    +0.000 HD
BRANCH  19  23
ATOM     23  N   UNL     1       7.700   5.471  14.195  0.00  0.00    +0.000 NA
ATOM     24  H   UNL     1       7.394   5.469  13.220  0.00  0.00    +0.000 HD
ATOM     25  H   UNL     1       8.123   4.550  14.359  0.00  0.00    +0.000 HD
ENDBRANCH  19  23
ENDBRANCH   1  20
TORSDOF 4
ENDMDL
MODEL 5
REMARK VINA RESULT:      -8.4      1.418      1.730
REMARK  Name = 
REMARK  4 active torsions:
REMARK  status: ('A' for Active; 'I' for Inactive)
REMARK    1  A    between atoms: N_1  and  N_2
REMARK    2  A    between atoms: C_3  and  C_5
REMARK    3  A    between atoms: C_7  and  C_8
REMARK    4  A    between atoms: N_15  and  C_16
REMARK                            x       y       z     vdW  Elec       q    Type
REMARK                         _______ _______ _______ _____ _____    ______ ____
ROOT
ATOM      1  C   UNL     1       5.395   5.773  17.829  0.00  0.00    +0.000 A 
ATOM      2  C   UNL     1       4.685   6.988  17.743  0.00  0.00    +0.000 A 
ATOM      3  C   UNL     1       3.450   6.771  18.333  0.00  0.00    +0.000 A 
ATOM      4  N   UNL     1       3.438   5.404  18.641  0.00  0.00    +0.000 N 
ATOM      5  N   UNL     1       4.653   4.821  18.428  0.00  0.00    +0.000 NA
ENDROOT
BRANCH   3   6
ATOM      6  C   UNL     1       2.410   7.768  18.650  0.00  0.00    +0.000 A 
ATOM      7  C   UNL     1       1.929   7.890  19.963  0.00  0.00    +0.000 A 
ATOM      8  C   UNL     1       0.989   8.874  20.296  0.00  0.00    +0.000 A 
ATOM      9  C   UNL     1       0.533   9.757  19.322  0.00  0.00    +0.000 A 
ATOM     10 CL   UNL     1      -0.562  11.014  19.742  0.00  0.00    +0.000 Cl
ATOM     11  C   UNL     1       0.963   9.628  18.007  0.00  0.00    +0.000 A 
ATOM     12  C   UNL     1       1.859   8.610  17.669  0.00  0.00    +0.000 A 
ENDBRANCH   3   6
BRANCH   4  13
ATOM     13  C   UNL     1       2.379   4.614  19.173  0.00  0.00    +0.000 A 
ATOM     14  C   UNL     1       2.251   4.409  20.554  0.00  0.00    +0.000 A 
ATOM     15  C   UNL     1       1.341   3.470  21.040  0.00  0.00    +0.000 A 
ATOM     16  C   UNL     1       0.536   2.758  20.152  0.00  0.00    +0.000 A 
ATOM     17  C   UNL     1       0.605   3.018  18.784  0.00  0.00    +0.000 A 
ATOM     18  C   UNL     1       1.511   3.961  18.292  0.00  0.00    +0.000 A 
ENDBRANCH   4  13
BRANCH   1  20
ATOM     19  N   UNL     1       7.383   4.461  18.047  0.00  0.00    +0.000 N 
ATOM     20  C   UNL     1       6.773   5.520  17.377  0.00  0.00    +0.000 C 
ATOM     21  O   UNL     1       7.319   6.188  16.503  0.00  0.00    +0.000 OA
ATOM     22  H   UNL     1       6.789   3.924  18.680  0.00  0.00    +0.000 HD
BRANCH  19  23
ATOM     23  N   UNL     1       8.662   3.992  17.668  0.00  0.00    +0.000 NA
ATOM     24  H   UNL     1       8.563   3.364  16.868  0.00  0.00    +0.000 HD
ATOM     25  H   UNL     1       9.018   3.414  18.438  0.00  0.00    +0.000 HD
ENDBRANCH  19  23
ENDBRANCH   1  20
TORSDOF 4
ENDMDL
MODEL 6
REMARK VINA RESULT:      -8.3      1.427      1.997
REMARK  Name = 
REMARK  4 active torsions:
REMARK  status: ('A' for Active; 'I' for Inactive)
REMARK    1  A    between atoms: N_1  and  N_2
REMARK    2  A    between atoms: C_3  and  C_5
REMARK    3  A    between atoms: C_7  and  C_8
REMARK    4  A    between atoms: N_15  and  C_16
REMARK                            x       y       z     vdW  Elec       q    Type
REMARK                         _______ _______ _______ _____ _____    ______ ____
ROOT
ATOM      1  C   UNL     1       5.392   5.744  17.778  0.00  0.00    +0.000 A 
ATOM      2  C   UNL     1       4.712   6.979  17.740  0.00  0.00    +0.000 A 
ATOM      3  C   UNL     1       3.472   6.769  18.320  0.00  0.00    +0.000 A 
ATOM      4  N   UNL     1       3.425   5.392  18.572  0.00  0.00    +0.000 N 
ATOM      5  N   UNL     1       4.626   4.788  18.337  0.00  0.00    +0.000 NA
ENDROOT
BRANCH   3   6
ATOM      6  C   UNL     1       2.456   7.778  18.675  0.00  0.00    +0.000 A 
ATOM      7  C   UNL     1       1.918   8.615  17.685  0.00  0.00    +0.000 A 
ATOM      8  C   UNL     1       0.906   9.533  17.991  0.00  0.00    +0.000 A 
ATOM      9  C   UNL     1       0.408   9.612  19.289  0.00  0.00    +0.000 A 
ATOM     10 CL   UNL     1      -0.886  10.684  19.652  0.00  0.00    +0.000 Cl
ATOM     11  C   UNL     1       0.954   8.824  20.294  0.00  0.00    +0.000 A 
ATOM     12  C   UNL     1       2.002   7.948  19.994  0.00  0.00    +0.000 A 
ENDBRANCH   3   6
BRANCH   4  13
ATOM     13  C   UNL     1       2.346   4.608  19.072  0.00  0.00    +0.000 A 
ATOM     14  C   UNL     1       2.099   4.509  20.449  0.00  0.00    +0.000 A 
ATOM     15  C   UNL     1       1.176   3.578  20.927  0.00  0.00    +0.000 A 
ATOM     16  C   UNL     1       0.478   2.768  20.033  0.00  0.00    +0.000 A 
ATOM     17  C   UNL     1       0.664   2.921  18.660  0.00  0.00    +0.000 A 
ATOM     18  C   UNL     1       1.583   3.855  18.175  0.00  0.00    +0.000 A 
ENDBRANCH   4  13
BRANCH   1  20
ATOM     19  N   UNL     1       7.382   4.438  18.013  0.00  0.00    +0.000 N 
ATOM     20  C   UNL     1       6.764   5.476  17.318  0.00  0.00    +0.000 C 
ATOM     21  O   UNL     1       7.300   6.115  16.416  0.00  0.00    +0.000 OA
ATOM     22  H   UNL     1       6.795   3.922  18.671  0.00  0.00    +0.000 HD
BRANCH  19  23
ATOM     23  N   UNL     1       8.655   3.956  17.633  0.00  0.00    +0.000 NA
ATOM     24  H   UNL     1       8.540   3.089  17.105  0.00  0.00    +0.000 HD
ATOM     25  H   UNL     1       9.155   3.698  18.493  0.00  0.00    +0.000 HD
ENDBRANCH  19  23
ENDBRANCH   1  20
TORSDOF 4
ENDMDL
MODEL 7
REMARK VINA RESULT:      -8.2      2.916      5.079
REMARK  Name = 
REMARK  4 active torsions:
REMARK  status: ('A' for Active; 'I' for Inactive)
REMARK    1  A    between atoms: N_1  and  N_2
REMARK    2  A    between atoms: C_3  and  C_5
REMARK    3  A    between atoms: C_7  and  C_8
REMARK    4  A    between atoms: N_15  and  C_16
REMARK                            x       y       z     vdW  Elec       q    Type
REMARK                         _______ _______ _______ _____ _____    ______ ____
ROOT
ATOM      1  C   UNL     1       6.285   4.187  14.093  0.00  0.00    +0.000 A 
ATOM      2  C   UNL     1       5.165   3.739  14.821  0.00  0.00    +0.000 A 
ATOM      3  C   UNL     1       5.171   4.425  16.025  0.00  0.00    +0.000 A 
ATOM      4  N   UNL     1       6.360   5.167  16.005  0.00  0.00    +0.000 N 
ATOM      5  N   UNL     1       6.984   5.101  14.794  0.00  0.00    +0.000 NA
ENDROOT
BRANCH   3   6
ATOM      6  C   UNL     1       4.123   4.444  17.062  0.00  0.00    +0.000 A 
ATOM      7  C   UNL     1       3.673   3.243  17.631  0.00  0.00    +0.000 A 
ATOM      8  C   UNL     1       2.726   3.245  18.663  0.00  0.00    +0.000 A 
ATOM      9  C   UNL     1       2.231   4.451  19.149  0.00  0.00    +0.000 A 
ATOM     10 CL   UNL     1       1.126   4.462  20.467  0.00  0.00    +0.000 Cl
ATOM     11  C   UNL     1       2.630   5.651  18.574  0.00  0.00    +0.000 A 
ATOM     12  C   UNL     1       3.534   5.640  17.507  0.00  0.00    +0.000 A 
ENDBRANCH   3   6
BRANCH   4  13
ATOM     13  C   UNL     1       6.926   5.980  17.029  0.00  0.00    +0.000 A 
ATOM     14  C   UNL     1       7.127   7.354  16.836  0.00  0.00    +0.000 A 
ATOM     15  C   UNL     1       7.870   8.088  17.761  0.00  0.00    +0.000 A 
ATOM     16  C   UNL     1       8.385   7.460  18.895  0.00  0.00    +0.000 A 
ATOM     17  C   UNL     1       8.118   6.112  19.128  0.00  0.00    +0.000 A 
ATOM     18  C   UNL     1       7.371   5.373  18.208  0.00  0.00    +0.000 A 
ENDBRANCH   4  13
BRANCH   1  20
ATOM     19  N   UNL     1       6.277   2.484  12.414  0.00  0.00    +0.000 N 
ATOM     20  C   UNL     1       6.677   3.779  12.733  0.00  0.00    +0.000 C 
ATOM     21  O   UNL     1       7.301   4.515  11.972  0.00  0.00    +0.000 OA
ATOM     22  H   UNL     1       5.679   2.014  13.096  0.00  0.00    +0.000 HD
BRANCH  19  23
ATOM     23  N   UNL     1       6.458   1.959  11.113  0.00  0.00    +0.000 NA
ATOM     24  H   UNL     1       6.779   2.706  10.495  0.00  0.00    +0.000 HD
ATOM     25  H   UNL     1       5.533   1.681  10.764  0.00  0.00    +0.000 HD
ENDBRANCH  19  23
ENDBRANCH   1  20
TORSDOF 4
ENDMDL
MODEL 8
REMARK VINA RESULT:      -8.2      2.970      5.225
REMARK  Name = 
REMARK  4 active torsions:
REMARK  status: ('A' for Active; 'I' for Inactive)
REMARK    1  A    between atoms: N_1  and  N_2
REMARK    2  A    between atoms: C_3  and  C_5
REMARK    3  A    between atoms: C_7  and  C_8
REMARK    4  A    between atoms: N_15  and  C_16
REMARK                            x       y       z     vdW  Elec       q    Type
REMARK                         _______ _______ _______ _____ _____    ______ ____
ROOT
ATOM      1  C   UNL     1       6.281   4.091  14.059  0.00  0.00    +0.000 A 
ATOM      2  C   UNL     1       5.214   3.572  14.821  0.00  0.00    +0.000 A 
ATOM      3  C   UNL     1       5.219   4.253  16.028  0.00  0.00    +0.000 A 
ATOM      4  N   UNL     1       6.359   5.066  15.974  0.00  0.00    +0.000 N 
ATOM      5  N   UNL     1       6.946   5.043  14.743  0.00  0.00    +0.000 NA
ENDROOT
BRANCH   3   6
ATOM      6  C   UNL     1       4.206   4.203  17.099  0.00  0.00    +0.000 A 
ATOM      7  C   UNL     1       3.533   5.372  17.486  0.00  0.00    +0.000 A 
ATOM      8  C   UNL     1       2.522   5.334  18.455  0.00  0.00    +0.000 A 
ATOM      9  C   UNL     1       2.162   4.121  19.036  0.00  0.00    +0.000 A 
ATOM     10 CL   UNL     1       0.871   4.057  20.170  0.00  0.00    +0.000 Cl
ATOM     11  C   UNL     1       2.843   2.958  18.699  0.00  0.00    +0.000 A 
ATOM     12  C   UNL     1       3.887   3.011  17.772  0.00  0.00    +0.000 A 
ENDBRANCH   3   6
BRANCH   4  13
ATOM     13  C   UNL     1       6.908   5.908  16.983  0.00  0.00    +0.000 A 
ATOM     14  C   UNL     1       7.064   7.285  16.773  0.00  0.00    +0.000 A 
ATOM     15  C   UNL     1       7.790   8.053  17.684  0.00  0.00    +0.000 A 
ATOM     16  C   UNL     1       8.334   7.455  18.819  0.00  0.00    +0.000 A 
ATOM     17  C   UNL     1       8.112   6.102  19.071  0.00  0.00    +0.000 A 
ATOM     18  C   UNL     1       7.381   5.329  18.165  0.00  0.00    +0.000 A 
ENDBRANCH   4  13
BRANCH   1  20
ATOM     19  N   UNL     1       6.282   2.411  12.357  0.00  0.00    +0.000 N 
ATOM     20  C   UNL     1       6.652   3.713  12.685  0.00  0.00    +0.000 C 
ATOM     21  O   UNL     1       7.237   4.477  11.921  0.00  0.00    +0.000 OA
ATOM     22  H   UNL     1       5.714   1.914  13.046  0.00  0.00    +0.000 HD
BRANCH  19  23
ATOM     23  N   UNL     1       6.447   1.910  11.045  0.00  0.00    +0.000 NA
ATOM     24  H   UNL     1       7.279   1.318  11.016  0.00  0.00    +0.000 HD
ATOM     25  H   UNL     1       6.648   2.710  10.434  0.00  0.00    +0.000 HD
ENDBRANCH  19  23
ENDBRANCH   1  20
TORSDOF 4
ENDMDL
MODEL 9
REMARK VINA RESULT:      -8.2      2.901      5.105
REMARK  Name = 
REMARK  4 active torsions:
REMARK  status: ('A' for Active; 'I' for Inactive)
REMARK    1  A    between atoms: N_1  and  N_2
REMARK    2  A    between atoms: C_3  and  C_5
REMARK    3  A    between atoms: C_7  and  C_8
REMARK    4  A    between atoms: N_15  and  C_16
REMARK                            x       y       z     vdW  Elec       q    Type
REMARK                         _______ _______ _______ _____ _____    ______ ____
ROOT
ATOM      1  C   UNL     1       6.347   4.094  13.964  0.00  0.00    +0.000 A 
ATOM      2  C   UNL     1       5.180   3.786  14.692  0.00  0.00    +0.000 A 
ATOM      3  C   UNL     1       5.287   4.435  15.911  0.00  0.00    +0.000 A 
ATOM      4  N   UNL     1       6.566   5.007  15.899  0.00  0.00    +0.000 N 
ATOM      5  N   UNL     1       7.169   4.886  14.681  0.00  0.00    +0.000 NA
ENDROOT
BRANCH   3   6
ATOM      6  C   UNL     1       4.256   4.573  16.958  0.00  0.00    +0.000 A 
ATOM      7  C   UNL     1       3.605   3.435  17.459  0.00  0.00    +0.000 A 
ATOM      8  C   UNL     1       2.672   3.538  18.498  0.00  0.00    +0.000 A 
ATOM      9  C   UNL     1       2.393   4.781  19.060  0.00  0.00    +0.000 A 
ATOM     10 CL   UNL     1       1.306   4.903  20.386  0.00  0.00    +0.000 Cl
ATOM     11  C   UNL     1       2.994   5.926  18.553  0.00  0.00    +0.000 A 
ATOM     12  C   UNL     1       3.883   5.823  17.479  0.00  0.00    +0.000 A 
ENDBRANCH   3   6
BRANCH   4  13
ATOM     13  C   UNL     1       7.244   5.710  16.936  0.00  0.00    +0.000 A 
ATOM     14  C   UNL     1       7.628   5.064  18.119  0.00  0.00    +0.000 A 
ATOM     15  C   UNL     1       8.098   5.809  19.201  0.00  0.00    +0.000 A 
ATOM     16  C   UNL     1       8.215   7.194  19.093  0.00  0.00    +0.000 A 
ATOM     17  C   UNL     1       7.910   7.829  17.890  0.00  0.00    +0.000 A 
ATOM     18  C   UNL     1       7.443   7.088  16.802  0.00  0.00    +0.000 A 
ENDBRANCH   4  13
BRANCH   1  20
ATOM     19  N   UNL     1       6.255   2.370  12.309  0.00  0.00    +0.000 N 
ATOM     20  C   UNL     1       6.672   3.669  12.593  0.00  0.00    +0.000 C 
ATOM     21  O   UNL     1       7.260   4.394  11.794  0.00  0.00    +0.000 OA
ATOM     22  H   UNL     1       5.690   1.910  13.024  0.00  0.00    +0.000 HD
BRANCH  19  23
ATOM     23  N   UNL     1       6.371   1.830  11.007  0.00  0.00    +0.000 NA
ATOM     24  H   UNL     1       5.738   1.033  10.920  0.00  0.00    +0.000 HD
ATOM     25  H   UNL     1       7.320   1.448  10.917  0.00  0.00    +0.000 HD
ENDBRANCH  19  23
ENDBRANCH   1  20
TORSDOF 4
ENDMDL
