MODEL 1
REMARK VINA RESULT:      -9.1      0.000      0.000
REMARK  Name = 
REMARK  4 active torsions:
REMARK  status: ('A' for Active; 'I' for Inactive)
REMARK    1  A    between atoms: N_4  and  C_5
REMARK    2  A    between atoms: C_8  and  C_9
REMARK    3  A    between atoms: C_11  and  C_12
REMARK    4  A    between atoms: N_14  and  C_15
REMARK                            x       y       z     vdW  Elec       q    Type
REMARK                         _______ _______ _______ _____ _____    ______ ____
ROOT
ATOM      1  C   UNL     1       3.741   5.722  18.087  0.00  0.00    +0.000 A 
ATOM      2  C   UNL     1       2.958   6.861  18.100  0.00  0.00    +0.000 A 
ATOM      3  C   UNL     1       2.473   6.934  19.395  0.00  0.00    +0.000 A 
ATOM      4  N   UNL     1       2.927   5.887  20.110  0.00  0.00    +0.000 NA
ATOM      5  N   UNL     1       3.691   5.160  19.314  0.00  0.00    +0.000 N 
ATOM      6  H   UNL     1       4.165   4.286  19.626  0.00  0.00    +0.000 HD
ENDROOT
BRANCH   1  10
ATOM      7  C   UNL     1       6.000   4.276  14.717  0.00  0.00    +0.000 A 
ATOM      8  C   UNL     1       5.782   5.651  14.910  0.00  0.00    +0.000 A 
ATOM      9  C   UNL     1       5.069   6.109  16.013  0.00  0.00    +0.000 A 
ATOM     10  C   UNL     1       4.541   5.210  16.951  0.00  0.00    +0.000 A 
ATOM     11  C   UNL     1       4.754   3.830  16.763  0.00  0.00    +0.000 A 
ATOM     12  C   UNL     1       5.475   3.371  15.656  0.00  0.00    +0.000 A 
BRANCH   7  16
ATOM     13  N   UNL     1       6.637   2.260  11.778  0.00  0.00    +0.000 NA
ATOM     14  C   UNL     1       6.013   3.159  12.450  0.00  0.00    +0.000 C 
ATOM     15  N   UNL     1       4.716   3.574  12.037  0.00  0.00    +0.000 N 
ATOM     16  N   UNL     1       6.664   3.781  13.558  0.00  0.00    +0.000 N 
ATOM     17  H   UNL     1       6.209   1.797  10.964  0.00  0.00    +0.000 HD
ATOM     18  H   UNL     1       4.268   3.148  11.213  0.00  0.00    +0.000 HD
ATOM     19  H   UNL     1       4.265   4.392  12.470  0.00  0.00    +0.000 HD
ATOM     20  H   UNL     1       7.694   3.790  13.573  0.00  0.00    +0.000 HD
ENDBRANCH   7  16
ENDBRANCH   1  10
BRANCH   3  21
ATOM     21  C   UNL     1       1.646   8.027  19.943  0.00  0.00    +0.000 C 
ATOM     22  O   UNL     1       1.118   7.846  21.030  0.00  0.00    +0.000 OA
ATOM     23  N   UNL     1       1.411   9.164  19.214  0.00  0.00    +0.000 N 
ATOM     24  H   UNL     1       1.826   9.194  18.276  0.00  0.00    +0.000 HD
BRANCH  23  25
ATOM     25  C   UNL     1       0.543  10.241  19.622  0.00  0.00    +0.000 A 
ATOM     26  C   UNL     1       0.847  11.023  20.764  0.00  0.00    +0.000 A 
ATOM     27  C   UNL     1      -0.007  12.021  21.213  0.00  0.00    +0.000 A 
ATOM     28  C   UNL     1      -1.199  12.272  20.554  0.00  0.00    +0.000 A 
ATOM     29  C   UNL     1      -1.541  11.542  19.412  0.00  0.00    +0.000 A 
ATOM     30  C   UNL     1      -2.763  11.806  18.776  0.00  0.00    +0.000 A 
ATOM     31  C   UNL     1      -3.132  11.096  17.637  0.00  0.00    +0.000 A 
ATOM     32  C   UNL     1      -2.282  10.123  17.117  0.00  0.00    +0.000 A 
ATOM     33  C   UNL     1      -1.067   9.834  17.744  0.00  0.00    +0.000 A 
ATOM     34  C   UNL     1      -0.668  10.530  18.914  0.00  0.00    +0.000 A 
ENDBRANCH  23  25
ENDBRANCH   3  21
TORSDOF 4
ENDMDL
MODEL 2
REMARK VINA RESULT:      -8.8      6.219      8.964
REMARK  Name = 
REMARK  4 active torsions:
REMARK  status: ('A' for Active; 'I' for Inactive)
REMARK    1  A    between atoms: N_4  and  C_5
REMARK    2  A    between atoms: C_8  and  C_9
REMARK    3  A    between atoms: C_11  and  C_12
REMARK    4  A    between atoms: N_14  and  C_15
REMARK                            x       y       z     vdW  Elec       q    Type
REMARK                         _______ _______ _______ _____ _____    ______ ____
ROOT
ATOM      1  C   UNL     1       8.352   9.110  18.223  0.00  0.00    +0.000 A 
ATOM      2  C   UNL     1       7.225   8.672  17.555  0.00  0.00    +0.000 A 
ATOM      3  C   UNL     1       7.106   7.339  17.912  0.00  0.00    +0.000 A 
ATOM      4  N   UNL     1       8.115   6.997  18.734  0.00  0.00    +0.000 NA
ATOM      5  N   UNL     1       8.864   8.071  18.917  0.00  0.00    +0.000 N 
ATOM      6  H   UNL     1       9.717   8.072  19.515  0.00  0.00    +0.000 HD
ENDROOT
BRANCH   1  10
ATOM      7  C   UNL     1       9.939  13.112  18.349  0.00  0.00    +0.000 A 
ATOM      8  C   UNL     1      10.615  12.042  18.960  0.00  0.00    +0.000 A 
ATOM      9  C   UNL     1      10.105  10.750  18.895  0.00  0.00    +0.000 A 
ATOM     10  C   UNL     1       8.899  10.486  18.230  0.00  0.00    +0.000 A 
ATOM     11  C   UNL     1       8.215  11.554  17.617  0.00  0.00    +0.000 A 
ATOM     12  C   UNL     1       8.731  12.853  17.679  0.00  0.00    +0.000 A 
BRANCH   7  16
ATOM     13  N   UNL     1      12.060  16.012  17.906  0.00  0.00    +0.000 NA
ATOM     14  C   UNL     1      11.237  15.111  17.508  0.00  0.00    +0.000 C 
ATOM     15  N   UNL     1      11.112  14.834  16.118  0.00  0.00    +0.000 N 
ATOM     16  N   UNL     1      10.405  14.454  18.464  0.00  0.00    +0.000 N 
ATOM     17  H   UNL     1      12.669  16.519  17.247  0.00  0.00    +0.000 HD
ATOM     18  H   UNL     1      11.688  15.340  15.430  0.00  0.00    +0.000 HD
ATOM     19  H   UNL     1      10.357  14.227  15.769  0.00  0.00    +0.000 HD
ATOM     20  H   UNL     1      10.201  14.942  19.348  0.00  0.00    +0.000 HD
ENDBRANCH   7  16
ENDBRANCH   1  10
BRANCH   3  21
ATOM     21  C   UNL     1       6.003   6.439  17.520  0.00  0.00    +0.000 C 
ATOM     22  O   UNL     1       5.332   6.755  16.550  0.00  0.00    +0.000 OA
ATOM     23  N   UNL     1       5.694   5.337  18.275  0.00  0.00    +0.000 N 
ATOM     24  H   UNL     1       6.259   5.195  19.120  0.00  0.00    +0.000 HD
BRANCH  23  25
ATOM     25  C   UNL     1       4.580   4.454  18.030  0.00  0.00    +0.000 A 
ATOM     26  C   UNL     1       4.589   3.569  16.924  0.00  0.00    +0.000 A 
ATOM     27  C   UNL     1       3.501   2.757  16.630  0.00  0.00    +0.000 A 
ATOM     28  C   UNL     1       2.361   2.805  17.415  0.00  0.00    +0.000 A 
ATOM     29  C   UNL     1       2.304   3.649  18.528  0.00  0.00    +0.000 A 
ATOM     30  C   UNL     1       1.130   3.688  19.293  0.00  0.00    +0.000 A 
ATOM     31  C   UNL     1       1.043   4.518  20.407  0.00  0.00    +0.000 A 
ATOM     32  C   UNL     1       2.128   5.309  20.773  0.00  0.00    +0.000 A 
ATOM     33  C   UNL     1       3.303   5.295  20.016  0.00  0.00    +0.000 A 
ATOM     34  C   UNL     1       3.419   4.471  18.867  0.00  0.00    +0.000 A 
ENDBRANCH  23  25
ENDBRANCH   3  21
TORSDOF 4
ENDMDL
MODEL 3
REMARK VINA RESULT:      -8.6      4.043     11.006
REMARK  Name = 
REMARK  4 active torsions:
REMARK  status: ('A' for Active; 'I' for Inactive)
REMARK    1  A    between atoms: N_4  and  C_5
REMARK    2  A    between atoms: C_8  and  C_9
REMARK    3  A    between atoms: C_11  and  C_12
REMARK    4  A    between atoms: N_14  and  C_15
REMARK                            x       y       z     vdW  Elec       q    Type
REMARK                         _______ _______ _______ _____ _____    ______ ____
ROOT
ATOM      1  C   UNL     1       0.010  10.578  21.915  0.00  0.00    +0.000 A 
ATOM      2  C   UNL     1       0.434  10.202  20.655  0.00  0.00    +0.000 A 
ATOM      3  C   UNL     1       1.148   9.035  20.862  0.00  0.00    +0.000 A 
ATOM      4  N   UNL     1       1.165   8.739  22.176  0.00  0.00    +0.000 NA
ATOM      5  N   UNL     1       0.476   9.676  22.805  0.00  0.00    +0.000 N 
ATOM      6  H   UNL     1       0.339   9.681  23.838  0.00  0.00    +0.000 HD
ENDROOT
BRANCH   1  10
ATOM      7  C   UNL     1      -2.394  14.000  22.945  0.00  0.00    +0.000 A 
ATOM      8  C   UNL     1      -1.259  14.129  22.126  0.00  0.00    +0.000 A 
ATOM      9  C   UNL     1      -0.501  13.015  21.782  0.00  0.00    +0.000 A 
ATOM     10  C   UNL     1      -0.845  11.739  22.253  0.00  0.00    +0.000 A 
ATOM     11  C   UNL     1      -1.980  11.602  23.075  0.00  0.00    +0.000 A 
ATOM     12  C   UNL     1      -2.745  12.724  23.417  0.00  0.00    +0.000 A 
BRANCH   7  16
ATOM     13  N   UNL     1      -4.404  16.134  25.070  0.00  0.00    +0.000 NA
ATOM     14  C   UNL     1      -3.322  15.531  24.729  0.00  0.00    +0.000 C 
ATOM     15  N   UNL     1      -2.293  15.332  25.690  0.00  0.00    +0.000 N 
ATOM     16  N   UNL     1      -3.143  15.136  23.368  0.00  0.00    +0.000 N 
ATOM     17  H   UNL     1      -4.567  16.447  26.038  0.00  0.00    +0.000 HD
ATOM     18  H   UNL     1      -2.414  15.654  26.661  0.00  0.00    +0.000 HD
ATOM     19  H   UNL     1      -1.366  14.988  25.403  0.00  0.00    +0.000 HD
ATOM     20  H   UNL     1      -3.665  15.645  22.642  0.00  0.00    +0.000 HD
ENDBRANCH   7  16
ENDBRANCH   1  10
BRANCH   3  21
ATOM     21  C   UNL     1       1.742   8.190  19.807  0.00  0.00    +0.000 C 
ATOM     22  O   UNL     1       1.630   8.567  18.651  0.00  0.00    +0.000 OA
ATOM     23  N   UNL     1       2.319   6.984  20.113  0.00  0.00    +0.000 N 
ATOM     24  H   UNL     1       2.294   6.709  21.102  0.00  0.00    +0.000 HD
BRANCH  23  25
ATOM     25  C   UNL     1       2.839   6.049  19.147  0.00  0.00    +0.000 A 
ATOM     26  C   UNL     1       3.864   6.432  18.248  0.00  0.00    +0.000 A 
ATOM     27  C   UNL     1       4.334   5.569  17.266  0.00  0.00    +0.000 A 
ATOM     28  C   UNL     1       3.794   4.301  17.132  0.00  0.00    +0.000 A 
ATOM     29  C   UNL     1       2.791   3.865  18.003  0.00  0.00    +0.000 A 
ATOM     30  C   UNL     1       2.250   2.582  17.832  0.00  0.00    +0.000 A 
ATOM     31  C   UNL     1       1.251   2.120  18.683  0.00  0.00    +0.000 A 
ATOM     32  C   UNL     1       0.787   2.929  19.717  0.00  0.00    +0.000 A 
ATOM     33  C   UNL     1       1.302   4.216  19.896  0.00  0.00    +0.000 A 
ATOM     34  C   UNL     1       2.311   4.722  19.037  0.00  0.00    +0.000 A 
ENDBRANCH  23  25
ENDBRANCH   3  21
TORSDOF 4
ENDMDL
MODEL 4
REMARK VINA RESULT:      -8.6      3.444     10.654
REMARK  Name = 
REMARK  4 active torsions:
REMARK  status: ('A' for Active; 'I' for Inactive)
REMARK    1  A    between atoms: N_4  and  C_5
REMARK    2  A    between atoms: C_8  and  C_9
REMARK    3  A    between atoms: C_11  and  C_12
REMARK    4  A    between atoms: N_14  and  C_15
REMARK                            x       y       z     vdW  Elec       q    Type
REMARK                         _______ _______ _______ _____ _____    ______ ____
ROOT
ATOM      1  C   UNL     1      -0.119  10.722  19.930  0.00  0.00    +0.000 A 
ATOM      2  C   UNL     1       0.434   9.502  20.269  0.00  0.00    +0.000 A 
ATOM      3  C   UNL     1       1.221   9.164  19.181  0.00  0.00    +0.000 A 
ATOM      4  N   UNL     1       1.131  10.121  18.239  0.00  0.00    +0.000 NA
ATOM      5  N   UNL     1       0.319  11.058  18.698  0.00  0.00    +0.000 N 
ATOM      6  H   UNL     1       0.077  11.913  18.155  0.00  0.00    +0.000 HD
ENDROOT
BRANCH   1  10
ATOM      7  C   UNL     1      -2.714  13.069  22.441  0.00  0.00    +0.000 A 
ATOM      8  C   UNL     1      -1.570  12.443  22.963  0.00  0.00    +0.000 A 
ATOM      9  C   UNL     1      -0.727  11.704  22.139  0.00  0.00    +0.000 A 
ATOM     10  C   UNL     1      -1.005  11.558  20.772  0.00  0.00    +0.000 A 
ATOM     11  C   UNL     1      -2.151  12.182  20.243  0.00  0.00    +0.000 A 
ATOM     12  C   UNL     1      -2.996  12.928  21.071  0.00  0.00    +0.000 A 
BRANCH   7  16
ATOM     13  N   UNL     1      -5.774  13.841  24.215  0.00  0.00    +0.000 NA
ATOM     14  C   UNL     1      -4.707  13.162  23.993  0.00  0.00    +0.000 C 
ATOM     15  N   UNL     1      -4.583  11.849  24.524  0.00  0.00    +0.000 N 
ATOM     16  N   UNL     1      -3.630  13.770  23.278  0.00  0.00    +0.000 N 
ATOM     17  H   UNL     1      -6.569  13.445  24.739  0.00  0.00    +0.000 HD
ATOM     18  H   UNL     1      -5.349  11.431  25.072  0.00  0.00    +0.000 HD
ATOM     19  H   UNL     1      -3.684  11.349  24.484  0.00  0.00    +0.000 HD
ATOM     20  H   UNL     1      -3.560  14.797  23.286  0.00  0.00    +0.000 HD
ENDBRANCH   7  16
ENDBRANCH   1  10
BRANCH   3  21
ATOM     21  C   UNL     1       2.094   7.976  19.087  0.00  0.00    +0.000 C 
ATOM     22  O   UNL     1       2.404   7.418  20.128  0.00  0.00    +0.000 OA
ATOM     23  N   UNL     1       2.604   7.573  17.879  0.00  0.00    +0.000 N 
ATOM     24  H   UNL     1       2.357   8.151  17.068  0.00  0.00    +0.000 HD
BRANCH  23  25
ATOM     25  C   UNL     1       3.537   6.488  17.698  0.00  0.00    +0.000 A 
ATOM     26  C   UNL     1       4.896   6.747  17.393  0.00  0.00    +0.000 A 
ATOM     27  C   UNL     1       5.797   5.718  17.150  0.00  0.00    +0.000 A 
ATOM     28  C   UNL     1       5.380   4.398  17.187  0.00  0.00    +0.000 A 
ATOM     29  C   UNL     1       4.053   4.086  17.499  0.00  0.00    +0.000 A 
ATOM     30  C   UNL     1       3.655   2.741  17.511  0.00  0.00    +0.000 A 
ATOM     31  C   UNL     1       2.342   2.398  17.818  0.00  0.00    +0.000 A 
ATOM     32  C   UNL     1       1.415   3.392  18.123  0.00  0.00    +0.000 A 
ATOM     33  C   UNL     1       1.788   4.739  18.103  0.00  0.00    +0.000 A 
ATOM     34  C   UNL     1       3.115   5.123  17.780  0.00  0.00    +0.000 A 
ENDBRANCH  23  25
ENDBRANCH   3  21
TORSDOF 4
ENDMDL
MODEL 5
REMARK VINA RESULT:      -8.6      3.797     10.709
REMARK  Name = 
REMARK  4 active torsions:
REMARK  status: ('A' for Active; 'I' for Inactive)
REMARK    1  A    between atoms: N_4  and  C_5
REMARK    2  A    between atoms: C_8  and  C_9
REMARK    3  A    between atoms: C_11  and  C_12
REMARK    4  A    between atoms: N_14  and  C_15
REMARK                            x       y       z     vdW  Elec       q    Type
REMARK                         _______ _______ _______ _____ _____    ______ ____
ROOT
ATOM      1  C   UNL     1      -0.138  10.370  21.495  0.00  0.00    +0.000 A 
ATOM      2  C   UNL     1       0.214   9.860  20.260  0.00  0.00    +0.000 A 
ATOM      3  C   UNL     1       1.191   8.919  20.538  0.00  0.00    +0.000 A 
ATOM      4  N   UNL     1       1.422   8.881  21.864  0.00  0.00    +0.000 NA
ATOM      5  N   UNL     1       0.616   9.760  22.435  0.00  0.00    +0.000 N 
ATOM      6  H   UNL     1       0.600   9.929  23.463  0.00  0.00    +0.000 HD
ENDROOT
BRANCH   1  10
ATOM      7  C   UNL     1      -3.255  13.220  22.332  0.00  0.00    +0.000 A 
ATOM      8  C   UNL     1      -2.739  12.392  23.342  0.00  0.00    +0.000 A 
ATOM      9  C   UNL     1      -1.717  11.488  23.066  0.00  0.00    +0.000 A 
ATOM     10  C   UNL     1      -1.187  11.377  21.772  0.00  0.00    +0.000 A 
ATOM     11  C   UNL     1      -1.702  12.204  20.755  0.00  0.00    +0.000 A 
ATOM     12  C   UNL     1      -2.726  13.115  21.035  0.00  0.00    +0.000 A 
BRANCH   7  16
ATOM     13  N   UNL     1      -6.544  14.703  22.025  0.00  0.00    +0.000 NA
ATOM     14  C   UNL     1      -5.722  13.773  22.352  0.00  0.00    +0.000 C 
ATOM     15  N   UNL     1      -6.201  12.450  22.560  0.00  0.00    +0.000 N 
ATOM     16  N   UNL     1      -4.350  14.100  22.575  0.00  0.00    +0.000 N 
ATOM     17  H   UNL     1      -7.545  14.512  21.869  0.00  0.00    +0.000 HD
ATOM     18  H   UNL     1      -7.199  12.229  22.436  0.00  0.00    +0.000 HD
ATOM     19  H   UNL     1      -5.589  11.728  22.965  0.00  0.00    +0.000 HD
ATOM     20  H   UNL     1      -4.118  15.068  22.838  0.00  0.00    +0.000 HD
ENDBRANCH   7  16
ENDBRANCH   1  10
BRANCH   3  21
ATOM     21  C   UNL     1       1.836   8.031  19.550  0.00  0.00    +0.000 C 
ATOM     22  O   UNL     1       1.733   8.328  18.371  0.00  0.00    +0.000 OA
ATOM     23  N   UNL     1       2.449   6.870  19.945  0.00  0.00    +0.000 N 
ATOM     24  H   UNL     1       2.415   6.658  20.948  0.00  0.00    +0.000 HD
BRANCH  23  25
ATOM     25  C   UNL     1       3.021   5.893  19.051  0.00  0.00    +0.000 A 
ATOM     26  C   UNL     1       4.129   6.224  18.232  0.00  0.00    +0.000 A 
ATOM     27  C   UNL     1       4.654   5.321  17.316  0.00  0.00    +0.000 A 
ATOM     28  C   UNL     1       4.092   4.064  17.171  0.00  0.00    +0.000 A 
ATOM     29  C   UNL     1       3.007   3.680  17.965  0.00  0.00    +0.000 A 
ATOM     30  C   UNL     1       2.447   2.408  17.783  0.00  0.00    +0.000 A 
ATOM     31  C   UNL     1       1.367   1.996  18.558  0.00  0.00    +0.000 A 
ATOM     32  C   UNL     1       0.841   2.845  19.527  0.00  0.00    +0.000 A 
ATOM     33  C   UNL     1       1.376   4.123  19.715  0.00  0.00    +0.000 A 
ATOM     34  C   UNL     1       2.467   4.578  18.932  0.00  0.00    +0.000 A 
ENDBRANCH  23  25
ENDBRANCH   3  21
TORSDOF 4
ENDMDL
MODEL 6
REMARK VINA RESULT:      -8.6      3.643      5.419
REMARK  Name = 
REMARK  4 active torsions:
REMARK  status: ('A' for Active; 'I' for Inactive)
REMARK    1  A    between atoms: N_4  and  C_5
REMARK    2  A    between atoms: C_8  and  C_9
REMARK    3  A    between atoms: C_11  and  C_12
REMARK    4  A    between atoms: N_14  and  C_15
REMARK                            x       y       z     vdW  Elec       q    Type
REMARK                         _______ _______ _______ _____ _____    ______ ____
ROOT
ATOM      1  C   UNL     1       1.608   8.220  20.019  0.00  0.00    +0.000 A 
ATOM      2  C   UNL     1       1.159   8.571  21.277  0.00  0.00    +0.000 A 
ATOM      3  C   UNL     1       0.618   9.835  21.113  0.00  0.00    +0.000 A 
ATOM      4  N   UNL     1       0.752  10.224  19.831  0.00  0.00    +0.000 NA
ATOM      5  N   UNL     1       1.351   9.244  19.177  0.00  0.00    +0.000 N 
ATOM      6  H   UNL     1       1.576   9.295  18.161  0.00  0.00    +0.000 HD
ENDROOT
BRANCH   1  10
ATOM      7  C   UNL     1       3.463   4.479  18.964  0.00  0.00    +0.000 A 
ATOM      8  C   UNL     1       2.708   4.609  20.142  0.00  0.00    +0.000 A 
ATOM      9  C   UNL     1       2.096   5.816  20.464  0.00  0.00    +0.000 A 
ATOM     10  C   UNL     1       2.226   6.933  19.626  0.00  0.00    +0.000 A 
ATOM     11  C   UNL     1       2.983   6.810  18.443  0.00  0.00    +0.000 A 
ATOM     12  C   UNL     1       3.594   5.594  18.119  0.00  0.00    +0.000 A 
BRANCH   7  16
ATOM     13  N   UNL     1       4.132   0.934  18.659  0.00  0.00    +0.000 NA
ATOM     14  C   UNL     1       3.530   2.027  18.355  0.00  0.00    +0.000 C 
ATOM     15  N   UNL     1       2.288   1.979  17.663  0.00  0.00    +0.000 N 
ATOM     16  N   UNL     1       4.158   3.274  18.651  0.00  0.00    +0.000 N 
ATOM     17  H   UNL     1       3.720   0.012  18.451  0.00  0.00    +0.000 HD
ATOM     18  H   UNL     1       1.860   1.074  17.418  0.00  0.00    +0.000 HD
ATOM     19  H   UNL     1       1.867   2.836  17.281  0.00  0.00    +0.000 HD
ATOM     20  H   UNL     1       5.183   3.293  18.742  0.00  0.00    +0.000 HD
ENDBRANCH   7  16
ENDBRANCH   1  10
BRANCH   3  21
ATOM     21  C   UNL     1      -0.072  10.618  22.158  0.00  0.00    +0.000 C 
ATOM     22  O   UNL     1       0.043  10.243  23.314  0.00  0.00    +0.000 OA
ATOM     23  N   UNL     1      -0.883  11.672  21.825  0.00  0.00    +0.000 N 
ATOM     24  H   UNL     1      -0.987  11.864  20.822  0.00  0.00    +0.000 HD
BRANCH  23  25
ATOM     25  C   UNL     1      -1.672  12.435  22.761  0.00  0.00    +0.000 A 
ATOM     26  C   UNL     1      -2.833  11.877  23.351  0.00  0.00    +0.000 A 
ATOM     27  C   UNL     1      -3.644  12.614  24.204  0.00  0.00    +0.000 A 
ATOM     28  C   UNL     1      -3.340  13.935  24.491  0.00  0.00    +0.000 A 
ATOM     29  C   UNL     1      -2.197  14.530  23.948  0.00  0.00    +0.000 A 
ATOM     30  C   UNL     1      -1.925  15.874  24.242  0.00  0.00    +0.000 A 
ATOM     31  C   UNL     1      -0.796  16.495  23.717  0.00  0.00    +0.000 A 
ATOM     32  C   UNL     1       0.077  15.780  22.901  0.00  0.00    +0.000 A 
ATOM     33  C   UNL     1      -0.183  14.443  22.584  0.00  0.00    +0.000 A 
ATOM     34  C   UNL     1      -1.333  13.786  23.091  0.00  0.00    +0.000 A 
ENDBRANCH  23  25
ENDBRANCH   3  21
TORSDOF 4
ENDMDL
MODEL 7
REMARK VINA RESULT:      -8.5      3.760     10.672
REMARK  Name = 
REMARK  4 active torsions:
REMARK  status: ('A' for Active; 'I' for Inactive)
REMARK    1  A    between atoms: N_4  and  C_5
REMARK    2  A    between atoms: C_8  and  C_9
REMARK    3  A    between atoms: C_11  and  C_12
REMARK    4  A    between atoms: N_14  and  C_15
REMARK                            x       y       z     vdW  Elec       q    Type
REMARK                         _______ _______ _______ _____ _____    ______ ____
ROOT
ATOM      1  C   UNL     1      -0.082  11.145  20.148  0.00  0.00    +0.000 A 
ATOM      2  C   UNL     1       0.196   9.827  19.842  0.00  0.00    +0.000 A 
ATOM      3  C   UNL     1       1.227   9.893  18.921  0.00  0.00    +0.000 A 
ATOM      4  N   UNL     1       1.537  11.181  18.677  0.00  0.00    +0.000 NA
ATOM      5  N   UNL     1       0.742  11.930  19.421  0.00  0.00    +0.000 N 
ATOM      6  H   UNL     1       0.777  12.972  19.416  0.00  0.00    +0.000 HD
ENDROOT
BRANCH   1  10
ATOM      7  C   UNL     1      -2.997  12.477  23.024  0.00  0.00    +0.000 A 
ATOM      8  C   UNL     1      -1.971  11.588  23.388  0.00  0.00    +0.000 A 
ATOM      9  C   UNL     1      -1.022  11.179  22.456  0.00  0.00    +0.000 A 
ATOM     10  C   UNL     1      -1.073  11.637  21.131  0.00  0.00    +0.000 A 
ATOM     11  C   UNL     1      -2.100  12.528  20.760  0.00  0.00    +0.000 A 
ATOM     12  C   UNL     1      -3.051  12.941  21.699  0.00  0.00    +0.000 A 
BRANCH   7  16
ATOM     13  N   UNL     1      -6.103  13.876  24.250  0.00  0.00    +0.000 NA
ATOM     14  C   UNL     1      -5.397  13.023  23.600  0.00  0.00    +0.000 C 
ATOM     15  N   UNL     1      -6.010  12.213  22.605  0.00  0.00    +0.000 N 
ATOM     16  N   UNL     1      -4.021  12.851  23.942  0.00  0.00    +0.000 N 
ATOM     17  H   UNL     1      -7.102  14.021  24.045  0.00  0.00    +0.000 HD
ATOM     18  H   UNL     1      -7.012  12.315  22.390  0.00  0.00    +0.000 HD
ATOM     19  H   UNL     1      -5.499  11.426  22.181  0.00  0.00    +0.000 HD
ATOM     20  H   UNL     1      -3.721  13.105  24.894  0.00  0.00    +0.000 HD
ENDBRANCH   7  16
ENDBRANCH   1  10
BRANCH   3  21
ATOM     21  C   UNL     1       1.941   8.737  18.343  0.00  0.00    +0.000 C 
ATOM     22  O   UNL     1       2.149   8.745  17.139  0.00  0.00    +0.000 OA
ATOM     23  N   UNL     1       2.275   7.657  19.119  0.00  0.00    +0.000 N 
ATOM     24  H   UNL     1       1.986   7.701  20.103  0.00  0.00    +0.000 HD
BRANCH  23  25
ATOM     25  C   UNL     1       2.884   6.446  18.630  0.00  0.00    +0.000 A 
ATOM     26  C   UNL     1       3.905   6.495  17.648  0.00  0.00    +0.000 A 
ATOM     27  C   UNL     1       4.460   5.339  17.115  0.00  0.00    +0.000 A 
ATOM     28  C   UNL     1       4.013   4.094  17.525  0.00  0.00    +0.000 A 
ATOM     29  C   UNL     1       3.020   3.987  18.504  0.00  0.00    +0.000 A 
ATOM     30  C   UNL     1       2.576   2.714  18.887  0.00  0.00    +0.000 A 
ATOM     31  C   UNL     1       1.588   2.575  19.857  0.00  0.00    +0.000 A 
ATOM     32  C   UNL     1       1.041   3.704  20.461  0.00  0.00    +0.000 A 
ATOM     33  C   UNL     1       1.460   4.983  20.083  0.00  0.00    +0.000 A 
ATOM     34  C   UNL     1       2.454   5.159  19.087  0.00  0.00    +0.000 A 
ENDBRANCH  23  25
ENDBRANCH   3  21
TORSDOF 4
ENDMDL
MODEL 8
REMARK VINA RESULT:      -8.5      7.296     10.185
REMARK  Name = 
REMARK  4 active torsions:
REMARK  status: ('A' for Active; 'I' for Inactive)
REMARK    1  A    between atoms: N_4  and  C_5
REMARK    2  A    between atoms: C_8  and  C_9
REMARK    3  A    between atoms: C_11  and  C_12
REMARK    4  A    between atoms: N_14  and  C_15
REMARK                            x       y       z     vdW  Elec       q    Type
REMARK                         _______ _______ _______ _____ _____    ______ ____
ROOT
ATOM      1  C   UNL     1       9.324  11.014  18.377  0.00  0.00    +0.000 A 
ATOM      2  C   UNL     1       8.768  10.011  17.606  0.00  0.00    +0.000 A 
ATOM      3  C   UNL     1       8.577   8.961  18.487  0.00  0.00    +0.000 A 
ATOM      4  N   UNL     1       9.009   9.311  19.713  0.00  0.00    +0.000 NA
ATOM      5  N   UNL     1       9.459  10.552  19.639  0.00  0.00    +0.000 N 
ATOM      6  H   UNL     1       9.855  11.061  20.457  0.00  0.00    +0.000 HD
ENDROOT
BRANCH   1  10
ATOM      7  C   UNL     1      10.258  14.996  17.029  0.00  0.00    +0.000 A 
ATOM      8  C   UNL     1       9.090  14.733  17.763  0.00  0.00    +0.000 A 
ATOM      9  C   UNL     1       8.807  13.447  18.212  0.00  0.00    +0.000 A 
ATOM     10  C   UNL     1       9.676  12.382  17.933  0.00  0.00    +0.000 A 
ATOM     11  C   UNL     1      10.849  12.638  17.195  0.00  0.00    +0.000 A 
ATOM     12  C   UNL     1      11.134  13.933  16.749  0.00  0.00    +0.000 A 
BRANCH   7  16
ATOM     13  N   UNL     1      10.791  18.576  16.931  0.00  0.00    +0.000 NA
ATOM     14  C   UNL     1      11.104  17.369  17.237  0.00  0.00    +0.000 C 
ATOM     15  N   UNL     1      12.069  17.127  18.254  0.00  0.00    +0.000 N 
ATOM     16  N   UNL     1      10.531  16.290  16.497  0.00  0.00    +0.000 N 
ATOM     17  H   UNL     1      11.191  19.383  17.431  0.00  0.00    +0.000 HD
ATOM     18  H   UNL     1      12.507  17.912  18.758  0.00  0.00    +0.000 HD
ATOM     19  H   UNL     1      12.441  16.180  18.410  0.00  0.00    +0.000 HD
ATOM     20  H   UNL     1      10.201  16.478  15.541  0.00  0.00    +0.000 HD
ENDBRANCH   7  16
ENDBRANCH   1  10
BRANCH   3  21
ATOM     21  C   UNL     1       7.928   7.674  18.164  0.00  0.00    +0.000 C 
ATOM     22  O   UNL     1       8.213   6.709  18.856  0.00  0.00    +0.000 OA
ATOM     23  N   UNL     1       7.107   7.555  17.072  0.00  0.00    +0.000 N 
ATOM     24  H   UNL     1       6.991   8.399  16.499  0.00  0.00    +0.000 HD
BRANCH  23  25
ATOM     25  C   UNL     1       6.506   6.325  16.621  0.00  0.00    +0.000 A 
ATOM     26  C   UNL     1       7.141   5.528  15.636  0.00  0.00    +0.000 A 
ATOM     27  C   UNL     1       6.549   4.374  15.139  0.00  0.00    +0.000 A 
ATOM     28  C   UNL     1       5.303   3.976  15.592  0.00  0.00    +0.000 A 
ATOM     29  C   UNL     1       4.639   4.715  16.576  0.00  0.00    +0.000 A 
ATOM     30  C   UNL     1       3.370   4.297  17.002  0.00  0.00    +0.000 A 
ATOM     31  C   UNL     1       2.685   5.012  17.979  0.00  0.00    +0.000 A 
ATOM     32  C   UNL     1       3.261   6.145  18.547  0.00  0.00    +0.000 A 
ATOM     33  C   UNL     1       4.519   6.587  18.126  0.00  0.00    +0.000 A 
ATOM     34  C   UNL     1       5.237   5.889  17.122  0.00  0.00    +0.000 A 
ENDBRANCH  23  25
ENDBRANCH   3  21
TORSDOF 4
ENDMDL
MODEL 9
REMARK VINA RESULT:      -8.5      1.529      2.240
REMARK  Name = 
REMARK  4 active torsions:
REMARK  status: ('A' for Active; 'I' for Inactive)
REMARK    1  A    between atoms: N_4  and  C_5
REMARK    2  A    between atoms: C_8  and  C_9
REMARK    3  A    between atoms: C_11  and  C_12
REMARK    4  A    between atoms: N_14  and  C_15
REMARK                            x       y       z     vdW  Elec       q    Type
REMARK                         _______ _______ _______ _____ _____    ______ ____
ROOT
ATOM      1  C   UNL     1       3.690   6.048  17.811  0.00  0.00    +0.000 A 
ATOM      2  C   UNL     1       2.971   7.223  17.709  0.00  0.00    +0.000 A 
ATOM      3  C   UNL     1       2.459   7.428  18.979  0.00  0.00    +0.000 A 
ATOM      4  N   UNL     1       2.838   6.422  19.790  0.00  0.00    +0.000 NA
ATOM      5  N   UNL     1       3.580   5.593  19.077  0.00  0.00    +0.000 N 
ATOM      6  H   UNL     1       3.998   4.724  19.473  0.00  0.00    +0.000 HD
ENDROOT
BRANCH   1  10
ATOM      7  C   UNL     1       5.951   4.217  14.635  0.00  0.00    +0.000 A 
ATOM      8  C   UNL     1       5.873   5.615  14.760  0.00  0.00    +0.000 A 
ATOM      9  C   UNL     1       5.157   6.196  15.801  0.00  0.00    +0.000 A 
ATOM     10  C   UNL     1       4.488   5.402  16.744  0.00  0.00    +0.000 A 
ATOM     11  C   UNL     1       4.561   4.000  16.624  0.00  0.00    +0.000 A 
ATOM     12  C   UNL     1       5.285   3.417  15.579  0.00  0.00    +0.000 A 
BRANCH   7  16
ATOM     13  N   UNL     1       6.499   2.050  11.788  0.00  0.00    +0.000 NA
ATOM     14  C   UNL     1       5.963   3.045  12.396  0.00  0.00    +0.000 C 
ATOM     15  N   UNL     1       4.770   3.625  11.883  0.00  0.00    +0.000 N 
ATOM     16  N   UNL     1       6.618   3.601  13.536  0.00  0.00    +0.000 N 
ATOM     17  H   UNL     1       6.066   1.628  10.953  0.00  0.00    +0.000 HD
ATOM     18  H   UNL     1       4.323   3.243  11.037  0.00  0.00    +0.000 HD
ATOM     19  H   UNL     1       4.409   4.510  12.266  0.00  0.00    +0.000 HD
ATOM     20  H   UNL     1       7.635   3.467  13.626  0.00  0.00    +0.000 HD
ENDBRANCH   7  16
ENDBRANCH   1  10
BRANCH   3  21
ATOM     21  C   UNL     1       1.680   8.605  19.413  0.00  0.00    +0.000 C 
ATOM     22  O   UNL     1       1.398   8.690  20.598  0.00  0.00    +0.000 OA
ATOM     23  N   UNL     1       1.217   9.517  18.500  0.00  0.00    +0.000 N 
ATOM     24  H   UNL     1       1.431   9.320  17.516  0.00  0.00    +0.000 HD
BRANCH  23  25
ATOM     25  C   UNL     1       0.371  10.642  18.813  0.00  0.00    +0.000 A 
ATOM     26  C   UNL     1      -0.999  10.453  19.119  0.00  0.00    +0.000 A 
ATOM     27  C   UNL     1      -1.848  11.526  19.360  0.00  0.00    +0.000 A 
ATOM     28  C   UNL     1      -1.371  12.825  19.291  0.00  0.00    +0.000 A 
ATOM     29  C   UNL     1      -0.023  13.068  19.009  0.00  0.00    +0.000 A 
ATOM     30  C   UNL     1       0.427  14.393  18.928  0.00  0.00    +0.000 A 
ATOM     31  C   UNL     1       1.762  14.668  18.649  0.00  0.00    +0.000 A 
ATOM     32  C   UNL     1       2.663  13.624  18.455  0.00  0.00    +0.000 A 
ATOM     33  C   UNL     1       2.231  12.295  18.517  0.00  0.00    +0.000 A 
ATOM     34  C   UNL     1       0.874  11.982  18.785  0.00  0.00    +0.000 A 
ENDBRANCH  23  25
ENDBRANCH   3  21
TORSDOF 4
ENDMDL
