MODEL 1
REMARK VINA RESULT:      -8.3      0.000      0.000
REMARK  Name = 
REMARK  5 active torsions:
REMARK  status: ('A' for Active; 'I' for Inactive)
REMARK    1  A    between atoms: C_1  and  C_2
REMARK    2  A    between atoms: C_4  and  N_5
REMARK    3  A    between atoms: C_8  and  N_9
REMARK    4  A    between atoms: C_10  and  C_12
REMARK    5  A    between atoms: C_15  and  C_16
REMARK                            x       y       z     vdW  Elec       q    Type
REMARK                         _______ _______ _______ _____ _____    ______ ____
ROOT
ATOM      1  N   UNL     1       7.271   8.491  17.283  0.00  0.00    +0.000 N 
ATOM      2  C   UNL     1       8.266   8.823  18.187  0.00  0.00    +0.000 C 
ATOM      3  O   UNL     1       8.730   8.080  19.049  0.00  0.00    +0.000 OA
ATOM      4  H   UNL     1       7.052   9.140  16.541  0.00  0.00    +0.000 HD
ENDROOT
BRANCH   1  11
ATOM      5  C   UNL     1       2.732   2.101  17.549  0.00  0.00    +0.000 C 
ATOM      6  C   UNL     1       3.329   3.472  17.609  0.00  0.00    +0.000 A 
ATOM      7  C   UNL     1       2.550   4.576  17.923  0.00  0.00    +0.000 A 
ATOM      8  C   UNL     1       3.144   5.834  17.991  0.00  0.00    +0.000 A 
ATOM      9  C   UNL     1       4.510   5.958  17.635  0.00  0.00    +0.000 A 
ATOM     10  C   UNL     1       5.199   7.191  17.599  0.00  0.00    +0.000 A 
ATOM     11  C   UNL     1       6.556   7.273  17.279  0.00  0.00    +0.000 A 
ATOM     12  C   UNL     1       7.228   6.109  16.928  0.00  0.00    +0.000 A 
ATOM     13  C   UNL     1       6.556   4.882  16.961  0.00  0.00    +0.000 A 
ATOM     14  C   UNL     1       5.216   4.782  17.314  0.00  0.00    +0.000 A 
ATOM     15  N   UNL     1       4.646   3.567  17.317  0.00  0.00    +0.000 NA
BRANCH   8  16
ATOM     16  N   UNL     1       2.311   6.955  18.192  0.00  0.00    +0.000 N 
ATOM     17  H   UNL     1       1.326   6.769  18.035  0.00  0.00    +0.000 HD
ATOM     18  H   UNL     1       2.457   7.425  19.082  0.00  0.00    +0.000 HD
ENDBRANCH   8  16
ENDBRANCH   1  11
BRANCH   2  19
ATOM     19  C   UNL     1       8.816  10.200  18.110  0.00  0.00    +0.000 A 
ATOM     20  C   UNL     1       7.983  11.178  17.560  0.00  0.00    +0.000 A 
ATOM     21  C   UNL     1       8.418  12.496  17.441  0.00  0.00    +0.000 A 
ATOM     22  C   UNL     1       9.688  12.893  17.891  0.00  0.00    +0.000 A 
ATOM     23  C   UNL     1      10.508  11.899  18.461  0.00  0.00    +0.000 A 
ATOM     24  C   UNL     1      10.084  10.565  18.569  0.00  0.00    +0.000 A 
BRANCH  22  25
ATOM     25  C   UNL     1      10.126  14.302  17.755  0.00  0.00    +0.000 A 
ATOM     26  C   UNL     1       9.309  15.362  18.195  0.00  0.00    +0.000 A 
ATOM     27  C   UNL     1       9.679  16.697  18.015  0.00  0.00    +0.000 A 
ATOM     28  C   UNL     1      10.890  17.004  17.409  0.00  0.00    +0.000 A 
ATOM     29  C   UNL     1      11.731  15.978  16.988  0.00  0.00    +0.000 A 
ATOM     30  C   UNL     1      11.350  14.643  17.155  0.00  0.00    +0.000 A 
ENDBRANCH  22  25
ENDBRANCH   2  19
TORSDOF 4
ENDMDL
MODEL 2
REMARK VINA RESULT:      -8.2      8.112     11.665
REMARK  Name = 
REMARK  5 active torsions:
REMARK  status: ('A' for Active; 'I' for Inactive)
REMARK    1  A    between atoms: C_1  and  C_2
REMARK    2  A    between atoms: C_4  and  N_5
REMARK    3  A    between atoms: C_8  and  N_9
REMARK    4  A    between atoms: C_10  and  C_12
REMARK    5  A    between atoms: C_15  and  C_16
REMARK                            x       y       z     vdW  Elec       q    Type
REMARK                         _______ _______ _______ _____ _____    ______ ____
ROOT
ATOM      1  N   UNL     1       0.321  11.353  21.386  0.00  0.00    +0.000 N 
ATOM      2  C   UNL     1       0.222  11.009  20.048  0.00  0.00    +0.000 C 
ATOM      3  O   UNL     1      -0.404  11.631  19.192  0.00  0.00    +0.000 OA
ATOM      4  H   UNL     1       0.960  10.838  21.975  0.00  0.00    +0.000 HD
ENDROOT
BRANCH   1  11
ATOM      5  C   UNL     1      -4.072  16.803  24.923  0.00  0.00    +0.000 C 
ATOM      6  C   UNL     1      -3.480  15.562  24.330  0.00  0.00    +0.000 A 
ATOM      7  C   UNL     1      -4.093  14.330  24.498  0.00  0.00    +0.000 A 
ATOM      8  C   UNL     1      -3.526  13.200  23.913  0.00  0.00    +0.000 A 
ATOM      9  C   UNL     1      -2.282  13.334  23.249  0.00  0.00    +0.000 A 
ATOM     10  C   UNL     1      -1.578  12.248  22.680  0.00  0.00    +0.000 A 
ATOM     11  C   UNL     1      -0.371  12.420  22.001  0.00  0.00    +0.000 A 
ATOM     12  C   UNL     1       0.181  13.693  21.938  0.00  0.00    +0.000 A 
ATOM     13  C   UNL     1      -0.506  14.777  22.497  0.00  0.00    +0.000 A 
ATOM     14  C   UNL     1      -1.726  14.624  23.143  0.00  0.00    +0.000 A 
ATOM     15  N   UNL     1      -2.318  15.715  23.655  0.00  0.00    +0.000 NA
BRANCH   8  16
ATOM     16  N   UNL     1      -4.099  11.943  24.198  0.00  0.00    +0.000 N 
ATOM     17  H   UNL     1      -3.464  11.162  24.069  0.00  0.00    +0.000 HD
ATOM     18  H   UNL     1      -4.559  11.894  25.104  0.00  0.00    +0.000 HD
ENDBRANCH   8  16
ENDBRANCH   1  11
BRANCH   2  19
ATOM     19  C   UNL     1       0.929   9.779  19.613  0.00  0.00    +0.000 A 
ATOM     20  C   UNL     1       1.274   9.700  18.260  0.00  0.00    +0.000 A 
ATOM     21  C   UNL     1       1.932   8.579  17.761  0.00  0.00    +0.000 A 
ATOM     22  C   UNL     1       2.295   7.508  18.595  0.00  0.00    +0.000 A 
ATOM     23  C   UNL     1       1.957   7.612  19.959  0.00  0.00    +0.000 A 
ATOM     24  C   UNL     1       1.279   8.732  20.468  0.00  0.00    +0.000 A 
BRANCH  22  25
ATOM     25  C   UNL     1       2.997   6.328  18.038  0.00  0.00    +0.000 A 
ATOM     26  C   UNL     1       4.278   6.449  17.464  0.00  0.00    +0.000 A 
ATOM     27  C   UNL     1       4.925   5.358  16.877  0.00  0.00    +0.000 A 
ATOM     28  C   UNL     1       4.313   4.111  16.873  0.00  0.00    +0.000 A 
ATOM     29  C   UNL     1       3.060   3.955  17.456  0.00  0.00    +0.000 A 
ATOM     30  C   UNL     1       2.408   5.052  18.027  0.00  0.00    +0.000 A 
ENDBRANCH  22  25
ENDBRANCH   2  19
TORSDOF 4
ENDMDL
MODEL 3
REMARK VINA RESULT:      -8.1      0.667      1.150
REMARK  Name = 
REMARK  5 active torsions:
REMARK  status: ('A' for Active; 'I' for Inactive)
REMARK    1  A    between atoms: C_1  and  C_2
REMARK    2  A    between atoms: C_4  and  N_5
REMARK    3  A    between atoms: C_8  and  N_9
REMARK    4  A    between atoms: C_10  and  C_12
REMARK    5  A    between atoms: C_15  and  C_16
REMARK                            x       y       z     vdW  Elec       q    Type
REMARK                         _______ _______ _______ _____ _____    ______ ____
ROOT
ATOM      1  N   UNL     1       7.268   8.516  17.316  0.00  0.00    +0.000 N 
ATOM      2  C   UNL     1       8.269   8.826  18.223  0.00  0.00    +0.000 C 
ATOM      3  O   UNL     1       8.737   8.061  19.064  0.00  0.00    +0.000 OA
ATOM      4  H   UNL     1       7.045   9.183  16.592  0.00  0.00    +0.000 HD
ENDROOT
BRANCH   1  11
ATOM      5  C   UNL     1       2.728   2.123  17.450  0.00  0.00    +0.000 C 
ATOM      6  C   UNL     1       3.326   3.492  17.540  0.00  0.00    +0.000 A 
ATOM      7  C   UNL     1       2.549   4.588  17.885  0.00  0.00    +0.000 A 
ATOM      8  C   UNL     1       3.144   5.844  17.982  0.00  0.00    +0.000 A 
ATOM      9  C   UNL     1       4.508   5.976  17.621  0.00  0.00    +0.000 A 
ATOM     10  C   UNL     1       5.198   7.209  17.612  0.00  0.00    +0.000 A 
ATOM     11  C   UNL     1       6.552   7.299  17.286  0.00  0.00    +0.000 A 
ATOM     12  C   UNL     1       7.222   6.144  16.902  0.00  0.00    +0.000 A 
ATOM     13  C   UNL     1       6.550   4.916  16.909  0.00  0.00    +0.000 A 
ATOM     14  C   UNL     1       5.212   4.808  17.267  0.00  0.00    +0.000 A 
ATOM     15  N   UNL     1       4.641   3.594  17.243  0.00  0.00    +0.000 NA
BRANCH   8  16
ATOM     16  N   UNL     1       2.313   6.959  18.215  0.00  0.00    +0.000 N 
ATOM     17  H   UNL     1       2.792   7.851  18.150  0.00  0.00    +0.000 HD
ATOM     18  H   UNL     1       1.459   6.961  17.663  0.00  0.00    +0.000 HD
ENDBRANCH   8  16
ENDBRANCH   1  11
BRANCH   2  19
ATOM     19  C   UNL     1       8.819  10.203  18.177  0.00  0.00    +0.000 A 
ATOM     20  C   UNL     1      10.061  10.403  18.787  0.00  0.00    +0.000 A 
ATOM     21  C   UNL     1      10.651  11.665  18.800  0.00  0.00    +0.000 A 
ATOM     22  C   UNL     1      10.038  12.768  18.182  0.00  0.00    +0.000 A 
ATOM     23  C   UNL     1       8.796  12.546  17.556  0.00  0.00    +0.000 A 
ATOM     24  C   UNL     1       8.186  11.280  17.552  0.00  0.00    +0.000 A 
BRANCH  22  25
ATOM     25  C   UNL     1      10.688  14.099  18.209  0.00  0.00    +0.000 A 
ATOM     26  C   UNL     1      10.873  14.793  19.420  0.00  0.00    +0.000 A 
ATOM     27  C   UNL     1      11.425  16.076  19.454  0.00  0.00    +0.000 A 
ATOM     28  C   UNL     1      11.828  16.687  18.274  0.00  0.00    +0.000 A 
ATOM     29  C   UNL     1      11.682  16.016  17.064  0.00  0.00    +0.000 A 
ATOM     30  C   UNL     1      11.114  14.739  17.032  0.00  0.00    +0.000 A 
ENDBRANCH  22  25
ENDBRANCH   2  19
TORSDOF 4
ENDMDL
MODEL 4
REMARK VINA RESULT:      -8.1      8.012     11.669
REMARK  Name = 
REMARK  5 active torsions:
REMARK  status: ('A' for Active; 'I' for Inactive)
REMARK    1  A    between atoms: C_1  and  C_2
REMARK    2  A    between atoms: C_4  and  N_5
REMARK    3  A    between atoms: C_8  and  N_9
REMARK    4  A    between atoms: C_10  and  C_12
REMARK    5  A    between atoms: C_15  and  C_16
REMARK                            x       y       z     vdW  Elec       q    Type
REMARK                         _______ _______ _______ _____ _____    ______ ____
ROOT
ATOM      1  N   UNL     1      -0.715  11.179  20.238  0.00  0.00    +0.000 N 
ATOM      2  C   UNL     1       0.418  10.600  20.784  0.00  0.00    +0.000 C 
ATOM      3  O   UNL     1       0.928  10.899  21.863  0.00  0.00    +0.000 OA
ATOM      4  H   UNL     1      -1.114  10.774  19.403  0.00  0.00    +0.000 HD
ENDROOT
BRANCH   1  11
ATOM      5  C   UNL     1      -4.920  16.810  23.719  0.00  0.00    +0.000 C 
ATOM      6  C   UNL     1      -4.274  15.538  23.265  0.00  0.00    +0.000 A 
ATOM      7  C   UNL     1      -4.507  14.343  23.930  0.00  0.00    +0.000 A 
ATOM      8  C   UNL     1      -3.907  13.175  23.466  0.00  0.00    +0.000 A 
ATOM      9  C   UNL     1      -2.994  13.266  22.387  0.00  0.00    +0.000 A 
ATOM     10  C   UNL     1      -2.273  12.162  21.877  0.00  0.00    +0.000 A 
ATOM     11  C   UNL     1      -1.407  12.280  20.788  0.00  0.00    +0.000 A 
ATOM     12  C   UNL     1      -1.207  13.536  20.231  0.00  0.00    +0.000 A 
ATOM     13  C   UNL     1      -1.916  14.638  20.726  0.00  0.00    +0.000 A 
ATOM     14  C   UNL     1      -2.808  14.526  21.784  0.00  0.00    +0.000 A 
ATOM     15  N   UNL     1      -3.445  15.632  22.201  0.00  0.00    +0.000 NA
BRANCH   8  16
ATOM     16  N   UNL     1      -4.061  11.998  24.228  0.00  0.00    +0.000 N 
ATOM     17  H   UNL     1      -4.422  12.157  25.163  0.00  0.00    +0.000 HD
ATOM     18  H   UNL     1      -4.582  11.264  23.755  0.00  0.00    +0.000 HD
ENDBRANCH   8  16
ENDBRANCH   1  11
BRANCH   2  19
ATOM     19  C   UNL     1       1.079   9.531  19.995  0.00  0.00    +0.000 A 
ATOM     20  C   UNL     1       1.409   8.358  20.681  0.00  0.00    +0.000 A 
ATOM     21  C   UNL     1       2.038   7.304  20.022  0.00  0.00    +0.000 A 
ATOM     22  C   UNL     1       2.337   7.369  18.651  0.00  0.00    +0.000 A 
ATOM     23  C   UNL     1       1.979   8.549  17.970  0.00  0.00    +0.000 A 
ATOM     24  C   UNL     1       1.360   9.624  18.630  0.00  0.00    +0.000 A 
BRANCH  22  25
ATOM     25  C   UNL     1       3.004   6.233  17.974  0.00  0.00    +0.000 A 
ATOM     26  C   UNL     1       2.410   4.956  17.942  0.00  0.00    +0.000 A 
ATOM     27  C   UNL     1       3.056   3.860  17.365  0.00  0.00    +0.000 A 
ATOM     28  C   UNL     1       4.307   4.022  16.782  0.00  0.00    +0.000 A 
ATOM     29  C   UNL     1       4.907   5.277  16.774  0.00  0.00    +0.000 A 
ATOM     30  C   UNL     1       4.265   6.368  17.368  0.00  0.00    +0.000 A 
ENDBRANCH  22  25
ENDBRANCH   2  19
TORSDOF 4
ENDMDL
MODEL 5
REMARK VINA RESULT:      -8.1      6.070     11.317
REMARK  Name = 
REMARK  5 active torsions:
REMARK  status: ('A' for Active; 'I' for Inactive)
REMARK    1  A    between atoms: C_1  and  C_2
REMARK    2  A    between atoms: C_4  and  N_5
REMARK    3  A    between atoms: C_8  and  N_9
REMARK    4  A    between atoms: C_10  and  C_12
REMARK    5  A    between atoms: C_15  and  C_16
REMARK                            x       y       z     vdW  Elec       q    Type
REMARK                         _______ _______ _______ _____ _____    ______ ____
ROOT
ATOM      1  N   UNL     1       1.271  10.653  18.756  0.00  0.00    +0.000 N 
ATOM      2  C   UNL     1       1.266   9.866  19.896  0.00  0.00    +0.000 C 
ATOM      3  O   UNL     1       0.999  10.251  21.032  0.00  0.00    +0.000 OA
ATOM      4  H   UNL     1       1.387  10.206  17.857  0.00  0.00    +0.000 HD
ENDROOT
BRANCH   1  11
ATOM      5  C   UNL     1       0.881  18.482  18.526  0.00  0.00    +0.000 C 
ATOM      6  C   UNL     1       1.271  17.037  18.495  0.00  0.00    +0.000 A 
ATOM      7  C   UNL     1       2.542  16.651  18.096  0.00  0.00    +0.000 A 
ATOM      8  C   UNL     1       2.877  15.298  18.101  0.00  0.00    +0.000 A 
ATOM      9  C   UNL     1       1.871  14.353  18.416  0.00  0.00    +0.000 A 
ATOM     10  C   UNL     1       2.074  12.954  18.385  0.00  0.00    +0.000 A 
ATOM     11  C   UNL     1       1.070  12.051  18.737  0.00  0.00    +0.000 A 
ATOM     12  C   UNL     1      -0.184  12.546  19.069  0.00  0.00    +0.000 A 
ATOM     13  C   UNL     1      -0.399  13.929  19.105  0.00  0.00    +0.000 A 
ATOM     14  C   UNL     1       0.603  14.840  18.793  0.00  0.00    +0.000 A 
ATOM     15  N   UNL     1       0.314  16.149  18.847  0.00  0.00    +0.000 NA
BRANCH   8  16
ATOM     16  N   UNL     1       4.132  14.921  17.578  0.00  0.00    +0.000 N 
ATOM     17  H   UNL     1       4.757  15.700  17.404  0.00  0.00    +0.000 HD
ATOM     18  H   UNL     1       4.598  14.189  18.108  0.00  0.00    +0.000 HD
ENDBRANCH   8  16
ENDBRANCH   1  11
BRANCH   2  19
ATOM     19  C   UNL     1       1.620   8.434  19.730  0.00  0.00    +0.000 A 
ATOM     20  C   UNL     1       2.152   8.060  18.492  0.00  0.00    +0.000 A 
ATOM     21  C   UNL     1       2.506   6.735  18.244  0.00  0.00    +0.000 A 
ATOM     22  C   UNL     1       2.369   5.742  19.228  0.00  0.00    +0.000 A 
ATOM     23  C   UNL     1       1.851   6.140  20.476  0.00  0.00    +0.000 A 
ATOM     24  C   UNL     1       1.475   7.470  20.729  0.00  0.00    +0.000 A 
BRANCH  22  25
ATOM     25  C   UNL     1       2.756   4.342  18.939  0.00  0.00    +0.000 A 
ATOM     26  C   UNL     1       2.159   3.627  17.882  0.00  0.00    +0.000 A 
ATOM     27  C   UNL     1       2.466   2.286  17.637  0.00  0.00    +0.000 A 
ATOM     28  C   UNL     1       3.398   1.633  18.433  0.00  0.00    +0.000 A 
ATOM     29  C   UNL     1       4.024   2.320  19.468  0.00  0.00    +0.000 A 
ATOM     30  C   UNL     1       3.702   3.657  19.721  0.00  0.00    +0.000 A 
ENDBRANCH  22  25
ENDBRANCH   2  19
TORSDOF 4
ENDMDL
MODEL 6
REMARK VINA RESULT:      -8.1      6.460      9.331
REMARK  Name = 
REMARK  5 active torsions:
REMARK  status: ('A' for Active; 'I' for Inactive)
REMARK    1  A    between atoms: C_1  and  C_2
REMARK    2  A    between atoms: C_4  and  N_5
REMARK    3  A    between atoms: C_8  and  N_9
REMARK    4  A    between atoms: C_10  and  C_12
REMARK    5  A    between atoms: C_15  and  C_16
REMARK                            x       y       z     vdW  Elec       q    Type
REMARK                         _______ _______ _______ _____ _____    ______ ____
ROOT
ATOM      1  N   UNL     1       2.196   7.791  18.599  0.00  0.00    +0.000 N 
ATOM      2  C   UNL     1       2.957   6.662  18.851  0.00  0.00    +0.000 C 
ATOM      3  O   UNL     1       3.079   6.108  19.942  0.00  0.00    +0.000 OA
ATOM      4  H   UNL     1       2.072   8.090  17.642  0.00  0.00    +0.000 HD
ENDROOT
BRANCH   1  11
ATOM      5  C   UNL     1      -1.708  12.481  23.525  0.00  0.00    +0.000 C 
ATOM      6  C   UNL     1      -1.058  11.804  22.359  0.00  0.00    +0.000 A 
ATOM      7  C   UNL     1      -1.248  12.272  21.067  0.00  0.00    +0.000 A 
ATOM      8  C   UNL     1      -0.608  11.630  20.008  0.00  0.00    +0.000 A 
ATOM      9  C   UNL     1       0.134  10.455  20.278  0.00  0.00    +0.000 A 
ATOM     10  C   UNL     1       0.766   9.682  19.277  0.00  0.00    +0.000 A 
ATOM     11  C   UNL     1       1.521   8.548  19.582  0.00  0.00    +0.000 A 
ATOM     12  C   UNL     1       1.600   8.138  20.907  0.00  0.00    +0.000 A 
ATOM     13  C   UNL     1       0.980   8.895  21.907  0.00  0.00    +0.000 A 
ATOM     14  C   UNL     1       0.257  10.047  21.621  0.00  0.00    +0.000 A 
ATOM     15  N   UNL     1      -0.310  10.713  22.638  0.00  0.00    +0.000 NA
BRANCH   8  16
ATOM     16  N   UNL     1      -0.912  12.048  18.695  0.00  0.00    +0.000 N 
ATOM     17  H   UNL     1      -1.903  12.033  18.476  0.00  0.00    +0.000 HD
ATOM     18  H   UNL     1      -0.494  12.938  18.437  0.00  0.00    +0.000 HD
ENDBRANCH   8  16
ENDBRANCH   1  11
BRANCH   2  19
ATOM     19  C   UNL     1       3.695   6.074  17.705  0.00  0.00    +0.000 A 
ATOM     20  C   UNL     1       4.357   6.969  16.861  0.00  0.00    +0.000 A 
ATOM     21  C   UNL     1       5.069   6.508  15.756  0.00  0.00    +0.000 A 
ATOM     22  C   UNL     1       5.168   5.137  15.467  0.00  0.00    +0.000 A 
ATOM     23  C   UNL     1       4.510   4.246  16.338  0.00  0.00    +0.000 A 
ATOM     24  C   UNL     1       3.777   4.704  17.445  0.00  0.00    +0.000 A 
BRANCH  22  25
ATOM     25  C   UNL     1       5.932   4.673  14.286  0.00  0.00    +0.000 A 
ATOM     26  C   UNL     1       7.182   5.237  13.962  0.00  0.00    +0.000 A 
ATOM     27  C   UNL     1       7.885   4.855  12.816  0.00  0.00    +0.000 A 
ATOM     28  C   UNL     1       7.363   3.879  11.977  0.00  0.00    +0.000 A 
ATOM     29  C   UNL     1       6.143   3.285  12.284  0.00  0.00    +0.000 A 
ATOM     30  C   UNL     1       5.435   3.681  13.423  0.00  0.00    +0.000 A 
ENDBRANCH  22  25
ENDBRANCH   2  19
TORSDOF 4
ENDMDL
MODEL 7
REMARK VINA RESULT:      -8.0      8.063     11.540
REMARK  Name = 
REMARK  5 active torsions:
REMARK  status: ('A' for Active; 'I' for Inactive)
REMARK    1  A    between atoms: C_1  and  C_2
REMARK    2  A    between atoms: C_4  and  N_5
REMARK    3  A    between atoms: C_8  and  N_9
REMARK    4  A    between atoms: C_10  and  C_12
REMARK    5  A    between atoms: C_15  and  C_16
REMARK                            x       y       z     vdW  Elec       q    Type
REMARK                         _______ _______ _______ _____ _____    ______ ____
ROOT
ATOM      1  N   UNL     1      -0.327  11.291  20.672  0.00  0.00    +0.000 N 
ATOM      2  C   UNL     1       0.111  10.075  21.169  0.00  0.00    +0.000 C 
ATOM      3  O   UNL     1      -0.103   9.642  22.299  0.00  0.00    +0.000 OA
ATOM      4  H   UNL     1      -0.195  11.492  19.691  0.00  0.00    +0.000 HD
ENDROOT
BRANCH   1  11
ATOM      5  C   UNL     1      -4.718  16.480  24.583  0.00  0.00    +0.000 C 
ATOM      6  C   UNL     1      -4.171  15.369  23.743  0.00  0.00    +0.000 A 
ATOM      7  C   UNL     1      -5.012  14.426  23.172  0.00  0.00    +0.000 A 
ATOM      8  C   UNL     1      -4.470  13.418  22.377  0.00  0.00    +0.000 A 
ATOM      9  C   UNL     1      -3.060  13.331  22.265  0.00  0.00    +0.000 A 
ATOM     10  C   UNL     1      -2.395  12.312  21.546  0.00  0.00    +0.000 A 
ATOM     11  C   UNL     1      -1.005  12.275  21.425  0.00  0.00    +0.000 A 
ATOM     12  C   UNL     1      -0.254  13.241  22.084  0.00  0.00    +0.000 A 
ATOM     13  C   UNL     1      -0.901  14.256  22.798  0.00  0.00    +0.000 A 
ATOM     14  C   UNL     1      -2.285  14.325  22.895  0.00  0.00    +0.000 A 
ATOM     15  N   UNL     1      -2.826  15.328  23.603  0.00  0.00    +0.000 NA
BRANCH   8  16
ATOM     16  N   UNL     1      -5.330  12.404  21.908  0.00  0.00    +0.000 N 
ATOM     17  H   UNL     1      -6.218  12.746  21.557  0.00  0.00    +0.000 HD
ATOM     18  H   UNL     1      -4.895  11.767  21.244  0.00  0.00    +0.000 HD
ENDBRANCH   8  16
ENDBRANCH   1  11
BRANCH   2  19
ATOM     19  C   UNL     1       0.916   9.223  20.257  0.00  0.00    +0.000 A 
ATOM     20  C   UNL     1       1.403   8.024  20.786  0.00  0.00    +0.000 A 
ATOM     21  C   UNL     1       2.174   7.166  20.005  0.00  0.00    +0.000 A 
ATOM     22  C   UNL     1       2.466   7.458  18.663  0.00  0.00    +0.000 A 
ATOM     23  C   UNL     1       1.952   8.660  18.139  0.00  0.00    +0.000 A 
ATOM     24  C   UNL     1       1.187   9.540  18.924  0.00  0.00    +0.000 A 
BRANCH  22  25
ATOM     25  C   UNL     1       3.286   6.527  17.854  0.00  0.00    +0.000 A 
ATOM     26  C   UNL     1       3.027   5.142  17.854  0.00  0.00    +0.000 A 
ATOM     27  C   UNL     1       3.832   4.244  17.148  0.00  0.00    +0.000 A 
ATOM     28  C   UNL     1       4.905   4.715  16.403  0.00  0.00    +0.000 A 
ATOM     29  C   UNL     1       5.170   6.080  16.362  0.00  0.00    +0.000 A 
ATOM     30  C   UNL     1       4.373   6.974  17.083  0.00  0.00    +0.000 A 
ENDBRANCH  22  25
ENDBRANCH   2  19
TORSDOF 4
ENDMDL
MODEL 8
REMARK VINA RESULT:      -8.0      8.024     11.702
REMARK  Name = 
REMARK  5 active torsions:
REMARK  status: ('A' for Active; 'I' for Inactive)
REMARK    1  A    between atoms: C_1  and  C_2
REMARK    2  A    between atoms: C_4  and  N_5
REMARK    3  A    between atoms: C_8  and  N_9
REMARK    4  A    between atoms: C_10  and  C_12
REMARK    5  A    between atoms: C_15  and  C_16
REMARK                            x       y       z     vdW  Elec       q    Type
REMARK                         _______ _______ _______ _____ _____    ______ ____
ROOT
ATOM      1  N   UNL     1       0.417  11.324  21.271  0.00  0.00    +0.000 N 
ATOM      2  C   UNL     1       0.348  11.047  19.915  0.00  0.00    +0.000 C 
ATOM      3  O   UNL     1      -0.217  11.738  19.069  0.00  0.00    +0.000 OA
ATOM      4  H   UNL     1       1.009  10.751  21.855  0.00  0.00    +0.000 HD
ENDROOT
BRANCH   1  11
ATOM      5  C   UNL     1      -3.809  16.808  24.955  0.00  0.00    +0.000 C 
ATOM      6  C   UNL     1      -3.253  15.565  24.333  0.00  0.00    +0.000 A 
ATOM      7  C   UNL     1      -3.891  14.343  24.489  0.00  0.00    +0.000 A 
ATOM      8  C   UNL     1      -3.357  13.211  23.877  0.00  0.00    +0.000 A 
ATOM      9  C   UNL     1      -2.118  13.329  23.200  0.00  0.00    +0.000 A 
ATOM     10  C   UNL     1      -1.446  12.238  22.603  0.00  0.00    +0.000 A 
ATOM     11  C   UNL     1      -0.244  12.395  21.912  0.00  0.00    +0.000 A 
ATOM     12  C   UNL     1       0.335  13.657  21.864  0.00  0.00    +0.000 A 
ATOM     13  C   UNL     1      -0.320  14.746  22.450  0.00  0.00    +0.000 A 
ATOM     14  C   UNL     1      -1.536  14.609  23.108  0.00  0.00    +0.000 A 
ATOM     15  N   UNL     1      -2.096  15.703  23.647  0.00  0.00    +0.000 NA
BRANCH   8  16
ATOM     16  N   UNL     1      -3.954  11.962  24.149  0.00  0.00    +0.000 N 
ATOM     17  H   UNL     1      -4.701  11.715  23.508  0.00  0.00    +0.000 HD
ATOM     18  H   UNL     1      -3.289  11.199  24.248  0.00  0.00    +0.000 HD
ENDBRANCH   8  16
ENDBRANCH   1  11
BRANCH   2  19
ATOM     19  C   UNL     1       1.009   9.804  19.445  0.00  0.00    +0.000 A 
ATOM     20  C   UNL     1       1.233   8.812  20.405  0.00  0.00    +0.000 A 
ATOM     21  C   UNL     1       1.854   7.615  20.056  0.00  0.00    +0.000 A 
ATOM     22  C   UNL     1       2.251   7.352  18.735  0.00  0.00    +0.000 A 
ATOM     23  C   UNL     1       2.000   8.353  17.776  0.00  0.00    +0.000 A 
ATOM     24  C   UNL     1       1.389   9.570  18.122  0.00  0.00    +0.000 A 
BRANCH  22  25
ATOM     25  C   UNL     1       2.907   6.070  18.390  0.00  0.00    +0.000 A 
ATOM     26  C   UNL     1       2.168   4.994  17.859  0.00  0.00    +0.000 A 
ATOM     27  C   UNL     1       2.761   3.758  17.590  0.00  0.00    +0.000 A 
ATOM     28  C   UNL     1       4.118   3.575  17.824  0.00  0.00    +0.000 A 
ATOM     29  C   UNL     1       4.880   4.627  18.323  0.00  0.00    +0.000 A 
ATOM     30  C   UNL     1       4.280   5.858  18.607  0.00  0.00    +0.000 A 
ENDBRANCH  22  25
ENDBRANCH   2  19
TORSDOF 4
ENDMDL
MODEL 9
REMARK VINA RESULT:      -7.9      7.601     11.219
REMARK  Name = 
REMARK  5 active torsions:
REMARK  status: ('A' for Active; 'I' for Inactive)
REMARK    1  A    between atoms: C_1  and  C_2
REMARK    2  A    between atoms: C_4  and  N_5
REMARK    3  A    between atoms: C_8  and  N_9
REMARK    4  A    between atoms: C_10  and  C_12
REMARK    5  A    between atoms: C_15  and  C_16
REMARK                            x       y       z     vdW  Elec       q    Type
REMARK                         _______ _______ _______ _____ _____    ______ ____
ROOT
ATOM      1  N   UNL     1       0.569  10.691  21.187  0.00  0.00    +0.000 N 
ATOM      2  C   UNL     1       0.248  10.158  19.949  0.00  0.00    +0.000 C 
ATOM      3  O   UNL     1      -0.717  10.478  19.259  0.00  0.00    +0.000 OA
ATOM      4  H   UNL     1       1.451  10.440  21.610  0.00  0.00    +0.000 HD
ENDROOT
BRANCH   1  11
ATOM      5  C   UNL     1      -3.364  16.345  24.937  0.00  0.00    +0.000 C 
ATOM      6  C   UNL     1      -2.423  15.514  24.121  0.00  0.00    +0.000 A 
ATOM      7  C   UNL     1      -1.437  16.107  23.346  0.00  0.00    +0.000 A 
ATOM      8  C   UNL     1      -0.565  15.302  22.617  0.00  0.00    +0.000 A 
ATOM      9  C   UNL     1      -0.782  13.902  22.611  0.00  0.00    +0.000 A 
ATOM     10  C   UNL     1      -0.007  12.993  21.855  0.00  0.00    +0.000 A 
ATOM     11  C   UNL     1      -0.225  11.615  21.900  0.00  0.00    +0.000 A 
ATOM     12  C   UNL     1      -1.276  11.133  22.670  0.00  0.00    +0.000 A 
ATOM     13  C   UNL     1      -2.050  12.022  23.425  0.00  0.00    +0.000 A 
ATOM     14  C   UNL     1      -1.819  13.392  23.417  0.00  0.00    +0.000 A 
ATOM     15  N   UNL     1      -2.610  14.176  24.167  0.00  0.00    +0.000 NA
BRANCH   8  16
ATOM     16  N   UNL     1       0.348  15.928  21.744  0.00  0.00    +0.000 N 
ATOM     17  H   UNL     1       1.266  16.081  22.148  0.00  0.00    +0.000 HD
ATOM     18  H   UNL     1       0.420  15.484  20.831  0.00  0.00    +0.000 HD
ENDBRANCH   8  16
ENDBRANCH   1  11
BRANCH   2  19
ATOM     19  C   UNL     1       1.147   9.105  19.414  0.00  0.00    +0.000 A 
ATOM     20  C   UNL     1       1.590   9.269  18.098  0.00  0.00    +0.000 A 
ATOM     21  C   UNL     1       2.430   8.326  17.510  0.00  0.00    +0.000 A 
ATOM     22  C   UNL     1       2.879   7.199  18.219  0.00  0.00    +0.000 A 
ATOM     23  C   UNL     1       2.439   7.059  19.550  0.00  0.00    +0.000 A 
ATOM     24  C   UNL     1       1.579   7.996  20.145  0.00  0.00    +0.000 A 
BRANCH  22  25
ATOM     25  C   UNL     1       3.774   6.213  17.570  0.00  0.00    +0.000 A 
ATOM     26  C   UNL     1       4.829   6.628  16.734  0.00  0.00    +0.000 A 
ATOM     27  C   UNL     1       5.640   5.709  16.064  0.00  0.00    +0.000 A 
ATOM     28  C   UNL     1       5.429   4.347  16.235  0.00  0.00    +0.000 A 
ATOM     29  C   UNL     1       4.413   3.906  17.076  0.00  0.00    +0.000 A 
ATOM     30  C   UNL     1       3.592   4.828  17.731  0.00  0.00    +0.000 A 
ENDBRANCH  22  25
ENDBRANCH   2  19
TORSDOF 4
ENDMDL
