MODEL 1
REMARK VINA RESULT:      -7.9      0.000      0.000
REMARK  Name = 
REMARK  3 active torsions:
REMARK  status: ('A' for Active; 'I' for Inactive)
REMARK    1  A    between atoms: C_2  and  C_16
REMARK    2  A    between atoms: N_3  and  N_4
REMARK    3  A    between atoms: C_5  and  C_6
REMARK                            x       y       z     vdW  Elec       q    Type
REMARK                         _______ _______ _______ _____ _____    ______ ____
ROOT
ATOM      1  O   UNL     1       7.997   6.129  18.720  0.00  0.00    +0.000 OA
ATOM      2  C   UNL     1       7.085   6.391  17.935  0.00  0.00    +0.000 C 
ATOM      3  N   UNL     1       6.984   7.586  17.236  0.00  0.00    +0.000 N 
ATOM      4  H   UNL     1       6.259   7.741  16.543  0.00  0.00    +0.000 HD
ENDROOT
BRANCH   2   5
ATOM      5  C   UNL     1       6.020   5.363  17.764  0.00  0.00    +0.000 A 
ATOM      6  C   UNL     1       5.357   4.966  18.943  0.00  0.00    +0.000 A 
ATOM      7  C   UNL     1       4.450   3.904  18.943  0.00  0.00    +0.000 A 
ATOM      8  C   UNL     1       4.191   3.230  17.756  0.00  0.00    +0.000 A 
ATOM      9 CL   UNL     1       3.136   1.871  17.759  0.00  0.00    +0.000 Cl
ATOM     10  C   UNL     1       4.805   3.631  16.569  0.00  0.00    +0.000 A 
ATOM     11  C   UNL     1       5.719   4.697  16.569  0.00  0.00    +0.000 A 
ATOM     12 CL   UNL     1       6.469   5.073  15.059  0.00  0.00    +0.000 Cl
ENDBRANCH   2   5
BRANCH   3  13
ATOM     13  N   UNL     1       7.969   8.513  17.412  0.00  0.00    +0.000 NA
ATOM     14  C   UNL     1       7.687   9.584  18.078  0.00  0.00    +0.000 C 
BRANCH  14  15
ATOM     15  C   UNL     1       8.721  10.636  18.276  0.00  0.00    +0.000 A 
ATOM     16  C   UNL     1       8.630  11.848  17.514  0.00  0.00    +0.000 A 
ATOM     17  C   UNL     1       9.538  12.919  17.628  0.00  0.00    +0.000 A 
ATOM     18  C   UNL     1      10.538  12.659  18.564  0.00  0.00    +0.000 A 
ATOM     19  C   UNL     1      10.669  11.452  19.347  0.00  0.00    +0.000 A 
ATOM     20  C   UNL     1       9.745  10.394  19.217  0.00  0.00    +0.000 A 
ATOM     21  N   UNL     1      11.744  11.536  20.142  0.00  0.00    +0.000 NA
ATOM     22  O   UNL     1      12.333  12.774  19.904  0.00  0.00    +0.000 OA
ATOM     23  N   UNL     1      11.553  13.459  18.916  0.00  0.00    +0.000 N 
ATOM     24  O   UNL     1      11.938  14.602  18.582  0.00  0.00    +0.000 OA
ENDBRANCH  14  15
ENDBRANCH   3  13
TORSDOF 3
ENDMDL
MODEL 2
REMARK VINA RESULT:      -7.8      6.617      8.877
REMARK  Name = 
REMARK  3 active torsions:
REMARK  status: ('A' for Active; 'I' for Inactive)
REMARK    1  A    between atoms: C_2  and  C_16
REMARK    2  A    between atoms: N_3  and  N_4
REMARK    3  A    between atoms: C_5  and  C_6
REMARK                            x       y       z     vdW  Elec       q    Type
REMARK                         _______ _______ _______ _____ _____    ______ ____
ROOT
ATOM      1  O   UNL     1       1.660  10.110  17.401  0.00  0.00    +0.000 OA
ATOM      2  C   UNL     1       0.911   9.635  18.256  0.00  0.00    +0.000 C 
ATOM      3  N   UNL     1       1.247   8.561  19.068  0.00  0.00    +0.000 N 
ATOM      4  H   UNL     1       0.636   8.240  19.811  0.00  0.00    +0.000 HD
ENDROOT
BRANCH   2   5
ATOM      5  C   UNL     1      -0.442  10.243  18.388  0.00  0.00    +0.000 A 
ATOM      6  C   UNL     1      -1.452   9.671  17.587  0.00  0.00    +0.000 A 
ATOM      7  C   UNL     1      -2.723  10.243  17.503  0.00  0.00    +0.000 A 
ATOM      8  C   UNL     1      -2.999  11.398  18.225  0.00  0.00    +0.000 A 
ATOM      9 CL   UNL     1      -4.535  12.157  18.067  0.00  0.00    +0.000 Cl
ATOM     10  C   UNL     1      -2.028  11.959  19.054  0.00  0.00    +0.000 A 
ATOM     11  C   UNL     1      -0.749  11.385  19.139  0.00  0.00    +0.000 A 
ATOM     12 CL   UNL     1       0.398  12.194  20.147  0.00  0.00    +0.000 Cl
ENDBRANCH   2   5
BRANCH   3  13
ATOM     13  N   UNL     1       2.491   8.018  18.927  0.00  0.00    +0.000 NA
ATOM     14  C   UNL     1       2.636   7.032  18.104  0.00  0.00    +0.000 C 
BRANCH  14  15
ATOM     15  C   UNL     1       3.968   6.390  17.933  0.00  0.00    +0.000 A 
ATOM     16  C   UNL     1       4.587   5.769  19.067  0.00  0.00    +0.000 A 
ATOM     17  C   UNL     1       5.836   5.117  19.023  0.00  0.00    +0.000 A 
ATOM     18  C   UNL     1       6.399   5.152  17.748  0.00  0.00    +0.000 A 
ATOM     19  C   UNL     1       5.812   5.772  16.582  0.00  0.00    +0.000 A 
ATOM     20  C   UNL     1       4.559   6.416  16.651  0.00  0.00    +0.000 A 
ATOM     21  N   UNL     1       6.625   5.623  15.527  0.00  0.00    +0.000 NA
ATOM     22  O   UNL     1       7.741   4.918  15.966  0.00  0.00    +0.000 OA
ATOM     23  N   UNL     1       7.570   4.631  17.360  0.00  0.00    +0.000 N 
ATOM     24  O   UNL     1       8.486   3.991  17.923  0.00  0.00    +0.000 OA
ENDBRANCH  14  15
ENDBRANCH   3  13
TORSDOF 3
ENDMDL
MODEL 3
REMARK VINA RESULT:      -7.6      3.923      9.310
REMARK  Name = 
REMARK  3 active torsions:
REMARK  status: ('A' for Active; 'I' for Inactive)
REMARK    1  A    between atoms: C_2  and  C_16
REMARK    2  A    between atoms: N_3  and  N_4
REMARK    3  A    between atoms: C_5  and  C_6
REMARK                            x       y       z     vdW  Elec       q    Type
REMARK                         _______ _______ _______ _____ _____    ______ ____
ROOT
ATOM      1  O   UNL     1       9.144   9.918  19.971  0.00  0.00    +0.000 OA
ATOM      2  C   UNL     1       9.241  10.265  18.793  0.00  0.00    +0.000 C 
ATOM      3  N   UNL     1       8.730   9.539  17.727  0.00  0.00    +0.000 N 
ATOM      4  H   UNL     1       8.764   9.888  16.775  0.00  0.00    +0.000 HD
ENDROOT
BRANCH   2   5
ATOM      5  C   UNL     1       9.983  11.527  18.516  0.00  0.00    +0.000 A 
ATOM      6  C   UNL     1      11.280  11.609  19.065  0.00  0.00    +0.000 A 
ATOM      7  C   UNL     1      12.017  12.793  19.009  0.00  0.00    +0.000 A 
ATOM      8  C   UNL     1      11.466  13.911  18.397  0.00  0.00    +0.000 A 
ATOM      9 CL   UNL     1      12.333  15.397  18.393  0.00  0.00    +0.000 Cl
ATOM     10  C   UNL     1      10.201  13.842  17.812  0.00  0.00    +0.000 A 
ATOM     11  C   UNL     1       9.457  12.652  17.869  0.00  0.00    +0.000 A 
ATOM     12 CL   UNL     1       7.879  12.692  17.167  0.00  0.00    +0.000 Cl
ENDBRANCH   2   5
BRANCH   3  13
ATOM     13  N   UNL     1       8.058   8.384  18.005  0.00  0.00    +0.000 NA
ATOM     14  C   UNL     1       7.259   7.912  17.106  0.00  0.00    +0.000 C 
BRANCH  14  15
ATOM     15  C   UNL     1       6.485   6.668  17.372  0.00  0.00    +0.000 A 
ATOM     16  C   UNL     1       5.706   6.099  16.312  0.00  0.00    +0.000 A 
ATOM     17  C   UNL     1       4.947   4.918  16.439  0.00  0.00    +0.000 A 
ATOM     18  C   UNL     1       5.040   4.372  17.719  0.00  0.00    +0.000 A 
ATOM     19  C   UNL     1       5.808   4.917  18.816  0.00  0.00    +0.000 A 
ATOM     20  C   UNL     1       6.562   6.099  18.662  0.00  0.00    +0.000 A 
ATOM     21  N   UNL     1       5.669   4.143  19.900  0.00  0.00    +0.000 NA
ATOM     22  O   UNL     1       4.823   3.095  19.550  0.00  0.00    +0.000 OA
ATOM     23  N   UNL     1       4.450   3.261  18.176  0.00  0.00    +0.000 N 
ATOM     24  O   UNL     1       3.689   2.396  17.688  0.00  0.00    +0.000 OA
ENDBRANCH  14  15
ENDBRANCH   3  13
TORSDOF 3
ENDMDL
MODEL 4
REMARK VINA RESULT:      -7.6      6.311      8.073
REMARK  Name = 
REMARK  3 active torsions:
REMARK  status: ('A' for Active; 'I' for Inactive)
REMARK    1  A    between atoms: C_2  and  C_16
REMARK    2  A    between atoms: N_3  and  N_4
REMARK    3  A    between atoms: C_5  and  C_6
REMARK                            x       y       z     vdW  Elec       q    Type
REMARK                         _______ _______ _______ _____ _____    ______ ____
ROOT
ATOM      1  O   UNL     1       4.376   5.896  19.225  0.00  0.00    +0.000 OA
ATOM      2  C   UNL     1       3.974   6.084  18.076  0.00  0.00    +0.000 C 
ATOM      3  N   UNL     1       2.893   6.894  17.757  0.00  0.00    +0.000 N 
ATOM      4  H   UNL     1       2.633   7.086  16.796  0.00  0.00    +0.000 HD
ENDROOT
BRANCH   2   5
ATOM      5  C   UNL     1       4.684   5.366  16.982  0.00  0.00    +0.000 A 
ATOM      6  C   UNL     1       5.330   6.184  16.030  0.00  0.00    +0.000 A 
ATOM      7  C   UNL     1       5.899   5.642  14.876  0.00  0.00    +0.000 A 
ATOM      8  C   UNL     1       5.832   4.271  14.662  0.00  0.00    +0.000 A 
ATOM      9 CL   UNL     1       6.460   3.603  13.206  0.00  0.00    +0.000 Cl
ATOM     10  C   UNL     1       5.234   3.439  15.608  0.00  0.00    +0.000 A 
ATOM     11  C   UNL     1       4.660   3.982  16.769  0.00  0.00    +0.000 A 
ATOM     12 CL   UNL     1       3.891   2.871  17.845  0.00  0.00    +0.000 Cl
ENDBRANCH   2   5
BRANCH   3  13
ATOM     13  N   UNL     1       2.256   7.539  18.778  0.00  0.00    +0.000 NA
ATOM     14  C   UNL     1       1.646   8.647  18.513  0.00  0.00    +0.000 C 
BRANCH  14  15
ATOM     15  C   UNL     1       0.957   9.400  19.596  0.00  0.00    +0.000 A 
ATOM     16  C   UNL     1       0.100  10.493  19.242  0.00  0.00    +0.000 A 
ATOM     17  C   UNL     1      -0.617  11.266  20.177  0.00  0.00    +0.000 A 
ATOM     18  C   UNL     1      -0.389  10.846  21.487  0.00  0.00    +0.000 A 
ATOM     19  C   UNL     1       0.471   9.756  21.887  0.00  0.00    +0.000 A 
ATOM     20  C   UNL     1       1.175   8.994  20.931  0.00  0.00    +0.000 A 
ATOM     21  N   UNL     1       0.461   9.631  23.220  0.00  0.00    +0.000 NA
ATOM     22  O   UNL     1      -0.386  10.616  23.718  0.00  0.00    +0.000 OA
ATOM     23  N   UNL     1      -0.909  11.359  22.609  0.00  0.00    +0.000 N 
ATOM     24  O   UNL     1      -1.701  12.290  22.874  0.00  0.00    +0.000 OA
ENDBRANCH  14  15
ENDBRANCH   3  13
TORSDOF 3
ENDMDL
MODEL 5
REMARK VINA RESULT:      -7.5      4.003      9.494
REMARK  Name = 
REMARK  3 active torsions:
REMARK  status: ('A' for Active; 'I' for Inactive)
REMARK    1  A    between atoms: C_2  and  C_16
REMARK    2  A    between atoms: N_3  and  N_4
REMARK    3  A    between atoms: C_5  and  C_6
REMARK                            x       y       z     vdW  Elec       q    Type
REMARK                         _______ _______ _______ _____ _____    ______ ____
ROOT
ATOM      1  O   UNL     1       9.046  10.839  20.101  0.00  0.00    +0.000 OA
ATOM      2  C   UNL     1       9.340  10.978  18.913  0.00  0.00    +0.000 C 
ATOM      3  N   UNL     1       9.100  10.020  17.939  0.00  0.00    +0.000 N 
ATOM      4  H   UNL     1       9.288  10.194  16.957  0.00  0.00    +0.000 HD
ENDROOT
BRANCH   2   5
ATOM      5  C   UNL     1      10.022  12.245  18.526  0.00  0.00    +0.000 A 
ATOM      6  C   UNL     1      11.403  12.307  18.805  0.00  0.00    +0.000 A 
ATOM      7  C   UNL     1      12.125  13.490  18.633  0.00  0.00    +0.000 A 
ATOM      8  C   UNL     1      11.471  14.626  18.173  0.00  0.00    +0.000 A 
ATOM      9 CL   UNL     1      12.333  16.109  18.033  0.00  0.00    +0.000 Cl
ATOM     10  C   UNL     1      10.115  14.577  17.853  0.00  0.00    +0.000 A 
ATOM     11  C   UNL     1       9.387  13.389  18.027  0.00  0.00    +0.000 A 
ATOM     12 CL   UNL     1       7.700  13.453  17.658  0.00  0.00    +0.000 Cl
ENDBRANCH   2   5
BRANCH   3  13
ATOM     13  N   UNL     1       8.477   8.866  18.318  0.00  0.00    +0.000 NA
ATOM     14  C   UNL     1       7.733   8.261  17.452  0.00  0.00    +0.000 C 
BRANCH  14  15
ATOM     15  C   UNL     1       7.014   7.012  17.826  0.00  0.00    +0.000 A 
ATOM     16  C   UNL     1       7.458   6.275  18.972  0.00  0.00    +0.000 A 
ATOM     17  C   UNL     1       6.847   5.091  19.432  0.00  0.00    +0.000 A 
ATOM     18  C   UNL     1       5.764   4.719  18.636  0.00  0.00    +0.000 A 
ATOM     19  C   UNL     1       5.289   5.429  17.471  0.00  0.00    +0.000 A 
ATOM     20  C   UNL     1       5.916   6.614  17.033  0.00  0.00    +0.000 A 
ATOM     21  N   UNL     1       4.235   4.791  16.945  0.00  0.00    +0.000 NA
ATOM     22  O   UNL     1       3.999   3.670  17.735  0.00  0.00    +0.000 OA
ATOM     23  N   UNL     1       4.968   3.654  18.790  0.00  0.00    +0.000 N 
ATOM     24  O   UNL     1       4.900   2.708  19.607  0.00  0.00    +0.000 OA
ENDBRANCH  14  15
ENDBRANCH   3  13
TORSDOF 3
ENDMDL
MODEL 6
REMARK VINA RESULT:      -7.4      6.964      9.487
REMARK  Name = 
REMARK  3 active torsions:
REMARK  status: ('A' for Active; 'I' for Inactive)
REMARK    1  A    between atoms: C_2  and  C_16
REMARK    2  A    between atoms: N_3  and  N_4
REMARK    3  A    between atoms: C_5  and  C_6
REMARK                            x       y       z     vdW  Elec       q    Type
REMARK                         _______ _______ _______ _____ _____    ______ ____
ROOT
ATOM      1  O   UNL     1       1.231  10.846  18.687  0.00  0.00    +0.000 OA
ATOM      2  C   UNL     1       0.836  10.187  19.649  0.00  0.00    +0.000 C 
ATOM      3  N   UNL     1       1.177   8.860  19.872  0.00  0.00    +0.000 N 
ATOM      4  H   UNL     1       0.893   8.368  20.712  0.00  0.00    +0.000 HD
ENDROOT
BRANCH   2   5
ATOM      5  C   UNL     1      -0.087  10.864  20.603  0.00  0.00    +0.000 A 
ATOM      6  C   UNL     1       0.001  10.442  21.946  0.00  0.00    +0.000 A 
ATOM      7  C   UNL     1      -0.909  10.885  22.907  0.00  0.00    +0.000 A 
ATOM      8  C   UNL     1      -1.920  11.763  22.534  0.00  0.00    +0.000 A 
ATOM      9 CL   UNL     1      -3.094  12.253  23.692  0.00  0.00    +0.000 Cl
ATOM     10  C   UNL     1      -2.002  12.225  21.221  0.00  0.00    +0.000 A 
ATOM     11  C   UNL     1      -1.088  11.779  20.253  0.00  0.00    +0.000 A 
ATOM     12 CL   UNL     1      -1.317  12.365  18.644  0.00  0.00    +0.000 Cl
ENDBRANCH   2   5
BRANCH   3  13
ATOM     13  N   UNL     1       2.021   8.260  18.983  0.00  0.00    +0.000 NA
ATOM     14  C   UNL     1       2.341   7.025  19.184  0.00  0.00    +0.000 C 
BRANCH  14  15
ATOM     15  C   UNL     1       3.278   6.334  18.256  0.00  0.00    +0.000 A 
ATOM     16  C   UNL     1       3.057   4.950  17.955  0.00  0.00    +0.000 A 
ATOM     17  C   UNL     1       3.864   4.196  17.080  0.00  0.00    +0.000 A 
ATOM     18  C   UNL     1       4.906   4.954  16.546  0.00  0.00    +0.000 A 
ATOM     19  C   UNL     1       5.167   6.348  16.828  0.00  0.00    +0.000 A 
ATOM     20  C   UNL     1       4.342   7.081  17.706  0.00  0.00    +0.000 A 
ATOM     21  N   UNL     1       6.248   6.756  16.150  0.00  0.00    +0.000 NA
ATOM     22  O   UNL     1       6.713   5.665  15.424  0.00  0.00    +0.000 OA
ATOM     23  N   UNL     1       5.850   4.551  15.686  0.00  0.00    +0.000 N 
ATOM     24  O   UNL     1       6.119   3.476  15.105  0.00  0.00    +0.000 OA
ENDBRANCH  14  15
ENDBRANCH   3  13
TORSDOF 3
ENDMDL
MODEL 7
REMARK VINA RESULT:      -7.3      6.942      8.480
REMARK  Name = 
REMARK  3 active torsions:
REMARK  status: ('A' for Active; 'I' for Inactive)
REMARK    1  A    between atoms: C_2  and  C_16
REMARK    2  A    between atoms: N_3  and  N_4
REMARK    3  A    between atoms: C_5  and  C_6
REMARK                            x       y       z     vdW  Elec       q    Type
REMARK                         _______ _______ _______ _____ _____    ______ ____
ROOT
ATOM      1  O   UNL     1       3.249   6.291  19.465  0.00  0.00    +0.000 OA
ATOM      2  C   UNL     1       3.370   6.740  18.324  0.00  0.00    +0.000 C 
ATOM      3  N   UNL     1       2.806   7.934  17.898  0.00  0.00    +0.000 N 
ATOM      4  H   UNL     1       2.985   8.311  16.973  0.00  0.00    +0.000 HD
ENDROOT
BRANCH   2   5
ATOM      5  C   UNL     1       4.145   5.921  17.351  0.00  0.00    +0.000 A 
ATOM      6  C   UNL     1       4.908   6.645  16.411  0.00  0.00    +0.000 A 
ATOM      7  C   UNL     1       5.556   6.003  15.354  0.00  0.00    +0.000 A 
ATOM      8  C   UNL     1       5.450   4.623  15.227  0.00  0.00    +0.000 A 
ATOM      9 CL   UNL     1       6.177   3.832  13.884  0.00  0.00    +0.000 Cl
ATOM     10  C   UNL     1       4.734   3.882  16.167  0.00  0.00    +0.000 A 
ATOM     11  C   UNL     1       4.080   4.527  17.230  0.00  0.00    +0.000 A 
ATOM     12 CL   UNL     1       3.170   3.523  18.302  0.00  0.00    +0.000 Cl
ENDBRANCH   2   5
BRANCH   3  13
ATOM     13  N   UNL     1       2.097   8.665  18.807  0.00  0.00    +0.000 NA
ATOM     14  C   UNL     1       1.044   9.292  18.397  0.00  0.00    +0.000 C 
BRANCH  14  15
ATOM     15  C   UNL     1       0.251  10.122  19.345  0.00  0.00    +0.000 A 
ATOM     16  C   UNL     1      -0.813  10.933  18.831  0.00  0.00    +0.000 A 
ATOM     17  C   UNL     1      -1.641  11.746  19.631  0.00  0.00    +0.000 A 
ATOM     18  C   UNL     1      -1.299  11.671  20.980  0.00  0.00    +0.000 A 
ATOM     19  C   UNL     1      -0.232  10.872  21.539  0.00  0.00    +0.000 A 
ATOM     20  C   UNL     1       0.582  10.065  20.717  0.00  0.00    +0.000 A 
ATOM     21  N   UNL     1      -0.180  11.042  22.866  0.00  0.00    +0.000 NA
ATOM     22  O   UNL     1      -1.189  11.938  23.205  0.00  0.00    +0.000 OA
ATOM     23  N   UNL     1      -1.878  12.311  22.004  0.00  0.00    +0.000 N 
ATOM     24  O   UNL     1      -2.829  13.115  22.123  0.00  0.00    +0.000 OA
ENDBRANCH  14  15
ENDBRANCH   3  13
TORSDOF 3
ENDMDL
MODEL 8
REMARK VINA RESULT:      -7.3      6.911      9.113
REMARK  Name = 
REMARK  3 active torsions:
REMARK  status: ('A' for Active; 'I' for Inactive)
REMARK    1  A    between atoms: C_2  and  C_16
REMARK    2  A    between atoms: N_3  and  N_4
REMARK    3  A    between atoms: C_5  and  C_6
REMARK                            x       y       z     vdW  Elec       q    Type
REMARK                         _______ _______ _______ _____ _____    ______ ____
ROOT
ATOM      1  O   UNL     1       1.892  11.437  18.435  0.00  0.00    +0.000 OA
ATOM      2  C   UNL     1       0.944  10.717  18.752  0.00  0.00    +0.000 C 
ATOM      3  N   UNL     1       1.011   9.332  18.815  0.00  0.00    +0.000 N 
ATOM      4  H   UNL     1       0.233   8.774  19.149  0.00  0.00    +0.000 HD
ENDROOT
BRANCH   2   5
ATOM      5  C   UNL     1      -0.351  11.391  19.050  0.00  0.00    +0.000 A 
ATOM      6  C   UNL     1      -0.350  12.255  20.164  0.00  0.00    +0.000 A 
ATOM      7  C   UNL     1      -1.531  12.827  20.640  0.00  0.00    +0.000 A 
ATOM      8  C   UNL     1      -2.732  12.542  20.001  0.00  0.00    +0.000 A 
ATOM      9 CL   UNL     1      -4.203  13.177  20.626  0.00  0.00    +0.000 Cl
ATOM     10  C   UNL     1      -2.751  11.722  18.873  0.00  0.00    +0.000 A 
ATOM     11  C   UNL     1      -1.564  11.145  18.394  0.00  0.00    +0.000 A 
ATOM     12 CL   UNL     1      -1.709  10.096  17.029  0.00  0.00    +0.000 Cl
ENDBRANCH   2   5
BRANCH   3  13
ATOM     13  N   UNL     1       2.207   8.738  18.534  0.00  0.00    +0.000 NA
ATOM     14  C   UNL     1       2.208   7.480  18.239  0.00  0.00    +0.000 C 
BRANCH  14  15
ATOM     15  C   UNL     1       3.490   6.781  17.948  0.00  0.00    +0.000 A 
ATOM     16  C   UNL     1       4.086   6.939  16.654  0.00  0.00    +0.000 A 
ATOM     17  C   UNL     1       5.303   6.341  16.269  0.00  0.00    +0.000 A 
ATOM     18  C   UNL     1       5.856   5.575  17.295  0.00  0.00    +0.000 A 
ATOM     19  C   UNL     1       5.286   5.386  18.610  0.00  0.00    +0.000 A 
ATOM     20  C   UNL     1       4.067   5.997  18.971  0.00  0.00    +0.000 A 
ATOM     21  N   UNL     1       6.076   4.588  19.340  0.00  0.00    +0.000 NA
ATOM     22  O   UNL     1       7.160   4.241  18.540  0.00  0.00    +0.000 OA
ATOM     23  N   UNL     1       6.999   4.878  17.266  0.00  0.00    +0.000 N 
ATOM     24  O   UNL     1       7.894   4.678  16.415  0.00  0.00    +0.000 OA
ENDBRANCH  14  15
ENDBRANCH   3  13
TORSDOF 3
ENDMDL
MODEL 9
REMARK VINA RESULT:      -7.3      7.274     10.255
REMARK  Name = 
REMARK  3 active torsions:
REMARK  status: ('A' for Active; 'I' for Inactive)
REMARK    1  A    between atoms: C_2  and  C_16
REMARK    2  A    between atoms: N_3  and  N_4
REMARK    3  A    between atoms: C_5  and  C_6
REMARK                            x       y       z     vdW  Elec       q    Type
REMARK                         _______ _______ _______ _____ _____    ______ ____
ROOT
ATOM      1  O   UNL     1       0.866   9.884  19.876  0.00  0.00    +0.000 OA
ATOM      2  C   UNL     1       1.152  10.376  18.783  0.00  0.00    +0.000 C 
ATOM      3  N   UNL     1       1.620   9.642  17.702  0.00  0.00    +0.000 N 
ATOM      4  H   UNL     1       1.777  10.066  16.795  0.00  0.00    +0.000 HD
ENDROOT
BRANCH   2   5
ATOM      5  C   UNL     1       1.008  11.852  18.644  0.00  0.00    +0.000 A 
ATOM      6  C   UNL     1       2.213  12.584  18.602  0.00  0.00    +0.000 A 
ATOM      7  C   UNL     1       2.215  13.980  18.628  0.00  0.00    +0.000 A 
ATOM      8  C   UNL     1       1.006  14.662  18.692  0.00  0.00    +0.000 A 
ATOM      9 CL   UNL     1       1.000  16.379  18.804  0.00  0.00    +0.000 Cl
ATOM     10  C   UNL     1      -0.199  13.960  18.693  0.00  0.00    +0.000 A 
ATOM     11  C   UNL     1      -0.203  12.556  18.669  0.00  0.00    +0.000 A 
ATOM     12 CL   UNL     1      -1.747  11.785  18.736  0.00  0.00    +0.000 Cl
ENDBRANCH   2   5
BRANCH   3  13
ATOM     13  N   UNL     1       1.746   8.292  17.855  0.00  0.00    +0.000 NA
ATOM     14  C   UNL     1       2.900   7.822  18.198  0.00  0.00    +0.000 C 
BRANCH  14  15
ATOM     15  C   UNL     1       3.095   6.354  18.353  0.00  0.00    +0.000 A 
ATOM     16  C   UNL     1       2.061   5.468  17.905  0.00  0.00    +0.000 A 
ATOM     17  C   UNL     1       2.139   4.063  17.984  0.00  0.00    +0.000 A 
ATOM     18  C   UNL     1       3.337   3.638  18.555  0.00  0.00    +0.000 A 
ATOM     19  C   UNL     1       4.401   4.496  19.025  0.00  0.00    +0.000 A 
ATOM     20  C   UNL     1       4.300   5.900  18.931  0.00  0.00    +0.000 A 
ATOM     21  N   UNL     1       5.402   3.756  19.518  0.00  0.00    +0.000 NA
ATOM     22  O   UNL     1       5.028   2.422  19.389  0.00  0.00    +0.000 OA
ATOM     23  N   UNL     1       3.733   2.378  18.777  0.00  0.00    +0.000 N 
ATOM     24  O   UNL     1       3.239   1.246  18.577  0.00  0.00    +0.000 OA
ENDBRANCH  14  15
ENDBRANCH   3  13
TORSDOF 3
ENDMDL
