MODEL 1
REMARK VINA RESULT:      -8.4      0.000      0.000
REMARK  Name = 
REMARK  11 active torsions:
REMARK  status: ('A' for Active; 'I' for Inactive)
REMARK    1  A    between atoms: C_1  and  O_2
REMARK    2  A    between atoms: O_2  and  C_3
REMARK    3  A    between atoms: C_7  and  C_8
REMARK    4  A    between atoms: C_10  and  S_11
REMARK    5  A    between atoms: S_11  and  C_12
REMARK    6  A    between atoms: C_12  and  C_13
REMARK    7  A    between atoms: N_15  and  C_16
REMARK    8  A    between atoms: C_19  and  S_20
REMARK    9  A    between atoms: S_20  and  N_21
REMARK   10  A    between atoms: C_27  and  O_28
REMARK   11  A    between atoms: C_29  and  C_30
REMARK                            x       y       z     vdW  Elec       q    Type
REMARK                         _______ _______ _______ _____ _____    ______ ____
ROOT
ATOM      1  C   UNL     1       5.816   4.387  16.321  0.00  0.00    +0.000 A 
ATOM      2  N   UNL     1       4.954   3.369  16.637  0.00  0.00    +0.000 NA
ATOM      3  C   UNL     1       4.568   3.230  17.912  0.00  0.00    +0.000 A 
ATOM      4  N   UNL     1       4.997   4.006  18.914  0.00  0.00    +0.000 NA
ATOM      5  C   UNL     1       5.839   4.989  18.563  0.00  0.00    +0.000 A 
ATOM      6  C   UNL     1       6.282   5.260  17.291  0.00  0.00    +0.000 A 
ENDROOT
BRANCH   1  11
ATOM      7  C   UNL     1       5.877   3.579  12.602  0.00  0.00    +0.000 A 
ATOM      8  C   UNL     1       7.021   4.257  12.186  0.00  0.00    +0.000 A 
ATOM      9  C   UNL     1       7.748   5.020  13.088  0.00  0.00    +0.000 A 
ATOM     10  C   UNL     1       7.355   5.074  14.423  0.00  0.00    +0.000 A 
ATOM     11  C   UNL     1       6.206   4.407  14.888  0.00  0.00    +0.000 A 
ATOM     12  C   UNL     1       5.462   3.679  13.934  0.00  0.00    +0.000 A 
BRANCH   7  14
ATOM     13  C   UNL     1       3.928   3.172  11.307  0.00  0.00    +0.000 C 
ATOM     14  O   UNL     1       5.272   2.833  11.628  0.00  0.00    +0.000 OA
ENDBRANCH   7  14
ENDBRANCH   1  11
BRANCH   5  15
ATOM     15  O   UNL     1       6.252   5.746  19.616  0.00  0.00    +0.000 OA
ATOM     16  H   UNL     1       5.926   5.237  20.378  0.00  0.00    +0.000 HD
ENDBRANCH   5  15
BRANCH   6  17
ATOM     17  C   UNL     1       7.150   6.374  17.053  0.00  0.00    +0.000 C 
ATOM     18  N   UNL     1       7.880   7.252  16.875  0.00  0.00    +0.000 NA
ENDBRANCH   6  17
BRANCH   3  19
ATOM     19  S   UNL     1       3.460   1.910  18.356  0.00  0.00    +0.000 S 
BRANCH  19  20
ATOM     20  C   UNL     1       2.433   2.709  19.627  0.00  0.00    +0.000 C 
BRANCH  20  21
ATOM     21  C   UNL     1       1.954   4.078  19.192  0.00  0.00    +0.000 C 
ATOM     22  O   UNL     1       1.185   4.166  18.235  0.00  0.00    +0.000 OA
ATOM     23  N   UNL     1       2.423   5.140  19.959  0.00  0.00    +0.000 N 
ATOM     24  H   UNL     1       3.168   4.945  20.620  0.00  0.00    +0.000 HD
BRANCH  23  25
ATOM     25  C   UNL     1       2.078   6.497  19.756  0.00  0.00    +0.000 A 
ATOM     26  C   UNL     1       1.452   7.258  20.749  0.00  0.00    +0.000 A 
ATOM     27  C   UNL     1       1.111   8.590  20.538  0.00  0.00    +0.000 A 
ATOM     28  C   UNL     1       1.410   9.183  19.318  0.00  0.00    +0.000 A 
ATOM     29  C   UNL     1       2.026   8.448  18.301  0.00  0.00    +0.000 A 
ATOM     30  C   UNL     1       2.374   7.107  18.527  0.00  0.00    +0.000 A 
BRANCH  28  31
ATOM     31  S   UNL     1       1.023  10.891  19.093  0.00  0.00    +0.000 S 
ATOM     32  O   UNL     1      -0.265  11.007  18.446  0.00  0.00    +0.000 OA
ATOM     33  O   UNL     1       1.363  11.624  20.289  0.00  0.00    +0.000 OA
BRANCH  31  34
ATOM     34  N   UNL     1       2.168  11.319  17.943  0.00  0.00    +0.000 NA
ATOM     35  H   UNL     1       2.337  10.541  17.306  0.00  0.00    +0.000 HD
ATOM     36  H   UNL     1       1.908  12.194  17.488  0.00  0.00    +0.000 HD
ENDBRANCH  31  34
ENDBRANCH  28  31
ENDBRANCH  23  25
ENDBRANCH  20  21
ENDBRANCH  19  20
ENDBRANCH   3  19
TORSDOF 10
ENDMDL
MODEL 2
REMARK VINA RESULT:      -8.2      0.808      1.174
REMARK  Name = 
REMARK  11 active torsions:
REMARK  status: ('A' for Active; 'I' for Inactive)
REMARK    1  A    between atoms: C_1  and  O_2
REMARK    2  A    between atoms: O_2  and  C_3
REMARK    3  A    between atoms: C_7  and  C_8
REMARK    4  A    between atoms: C_10  and  S_11
REMARK    5  A    between atoms: S_11  and  C_12
REMARK    6  A    between atoms: C_12  and  C_13
REMARK    7  A    between atoms: N_15  and  C_16
REMARK    8  A    between atoms: C_19  and  S_20
REMARK    9  A    between atoms: S_20  and  N_21
REMARK   10  A    between atoms: C_27  and  O_28
REMARK   11  A    between atoms: C_29  and  C_30
REMARK                            x       y       z     vdW  Elec       q    Type
REMARK                         _______ _______ _______ _____ _____    ______ ____
ROOT
ATOM      1  C   UNL     1       5.861   4.390  16.480  0.00  0.00    +0.000 A 
ATOM      2  N   UNL     1       4.985   3.401  16.842  0.00  0.00    +0.000 NA
ATOM      3  C   UNL     1       4.669   3.267  18.137  0.00  0.00    +0.000 A 
ATOM      4  N   UNL     1       5.181   4.023  19.115  0.00  0.00    +0.000 NA
ATOM      5  C   UNL     1       6.034   4.980  18.719  0.00  0.00    +0.000 A 
ATOM      6  C   UNL     1       6.411   5.242  17.424  0.00  0.00    +0.000 A 
ENDROOT
BRANCH   1  11
ATOM      7  C   UNL     1       5.675   3.606  12.760  0.00  0.00    +0.000 A 
ATOM      8  C   UNL     1       6.819   4.241  12.281  0.00  0.00    +0.000 A 
ATOM      9  C   UNL     1       7.627   4.969  13.143  0.00  0.00    +0.000 A 
ATOM     10  C   UNL     1       7.314   5.029  14.499  0.00  0.00    +0.000 A 
ATOM     11  C   UNL     1       6.168   4.405  15.026  0.00  0.00    +0.000 A 
ATOM     12  C   UNL     1       5.342   3.714  14.115  0.00  0.00    +0.000 A 
BRANCH   7  14
ATOM     13  C   UNL     1       5.617   1.719  11.318  0.00  0.00    +0.000 C 
ATOM     14  O   UNL     1       4.985   2.892  11.819  0.00  0.00    +0.000 OA
ENDBRANCH   7  14
ENDBRANCH   1  11
BRANCH   5  15
ATOM     15  O   UNL     1       6.533   5.717  19.749  0.00  0.00    +0.000 OA
ATOM     16  H   UNL     1       5.897   5.534  20.462  0.00  0.00    +0.000 HD
ENDBRANCH   5  15
BRANCH   6  17
ATOM     17  C   UNL     1       7.302   6.328  17.140  0.00  0.00    +0.000 C 
ATOM     18  N   UNL     1       7.991   7.222  16.893  0.00  0.00    +0.000 NA
ENDBRANCH   6  17
BRANCH   3  19
ATOM     19  S   UNL     1       3.545   1.983  18.639  0.00  0.00    +0.000 S 
BRANCH  19  20
ATOM     20  C   UNL     1       2.828   2.697  20.151  0.00  0.00    +0.000 C 
BRANCH  20  21
ATOM     21  C   UNL     1       2.065   3.975  19.869  0.00  0.00    +0.000 C 
ATOM     22  O   UNL     1       0.885   3.902  19.529  0.00  0.00    +0.000 OA
ATOM     23  N   UNL     1       2.788   5.149  20.055  0.00  0.00    +0.000 N 
ATOM     24  H   UNL     1       3.791   5.064  20.187  0.00  0.00    +0.000 HD
BRANCH  23  25
ATOM     25  C   UNL     1       2.267   6.453  19.884  0.00  0.00    +0.000 A 
ATOM     26  C   UNL     1       2.438   7.169  18.694  0.00  0.00    +0.000 A 
ATOM     27  C   UNL     1       1.926   8.453  18.538  0.00  0.00    +0.000 A 
ATOM     28  C   UNL     1       1.216   9.033  19.581  0.00  0.00    +0.000 A 
ATOM     29  C   UNL     1       1.035   8.350  20.786  0.00  0.00    +0.000 A 
ATOM     30  C   UNL     1       1.548   7.050  20.931  0.00  0.00    +0.000 A 
BRANCH  28  31
ATOM     31  S   UNL     1       0.524  10.640  19.339  0.00  0.00    +0.000 S 
ATOM     32  O   UNL     1      -0.546  10.846  20.288  0.00  0.00    +0.000 OA
ATOM     33  O   UNL     1       1.587  11.597  19.141  0.00  0.00    +0.000 OA
BRANCH  31  34
ATOM     34  N   UNL     1      -0.206  10.439  17.841  0.00  0.00    +0.000 NA
ATOM     35  H   UNL     1       0.329  10.921  17.119  0.00  0.00    +0.000 HD
ATOM     36  H   UNL     1      -0.376   9.450  17.657  0.00  0.00    +0.000 HD
ENDBRANCH  31  34
ENDBRANCH  28  31
ENDBRANCH  23  25
ENDBRANCH  20  21
ENDBRANCH  19  20
ENDBRANCH   3  19
TORSDOF 10
ENDMDL
MODEL 3
REMARK VINA RESULT:      -8.1      4.651      8.059
REMARK  Name = 
REMARK  11 active torsions:
REMARK  status: ('A' for Active; 'I' for Inactive)
REMARK    1  A    between atoms: C_1  and  O_2
REMARK    2  A    between atoms: O_2  and  C_3
REMARK    3  A    between atoms: C_7  and  C_8
REMARK    4  A    between atoms: C_10  and  S_11
REMARK    5  A    between atoms: S_11  and  C_12
REMARK    6  A    between atoms: C_12  and  C_13
REMARK    7  A    between atoms: N_15  and  C_16
REMARK    8  A    between atoms: C_19  and  S_20
REMARK    9  A    between atoms: S_20  and  N_21
REMARK   10  A    between atoms: C_27  and  O_28
REMARK   11  A    between atoms: C_29  and  C_30
REMARK                            x       y       z     vdW  Elec       q    Type
REMARK                         _______ _______ _______ _____ _____    ______ ____
ROOT
ATOM      1  C   UNL     1       3.441   6.054  18.761  0.00  0.00    +0.000 A 
ATOM      2  N   UNL     1       4.681   6.295  18.230  0.00  0.00    +0.000 NA
ATOM      3  C   UNL     1       5.531   5.269  18.098  0.00  0.00    +0.000 A 
ATOM      4  N   UNL     1       5.260   4.016  18.482  0.00  0.00    +0.000 NA
ATOM      5  C   UNL     1       4.036   3.823  18.997  0.00  0.00    +0.000 A 
ATOM      6  C   UNL     1       3.063   4.780  19.153  0.00  0.00    +0.000 A 
ENDROOT
BRANCH   1  11
ATOM      7  C   UNL     1       1.111   8.663  20.263  0.00  0.00    +0.000 A 
ATOM      8  C   UNL     1       0.864   9.484  19.165  0.00  0.00    +0.000 A 
ATOM      9  C   UNL     1       1.487   9.234  17.951  0.00  0.00    +0.000 A 
ATOM     10  C   UNL     1       2.330   8.133  17.820  0.00  0.00    +0.000 A 
ATOM     11  C   UNL     1       2.609   7.278  18.901  0.00  0.00    +0.000 A 
ATOM     12  C   UNL     1       1.998   7.588  20.135  0.00  0.00    +0.000 A 
BRANCH   7  14
ATOM     13  C   UNL     1       1.172   9.325  22.544  0.00  0.00    +0.000 C 
ATOM     14  O   UNL     1       0.409   8.992  21.390  0.00  0.00    +0.000 OA
ENDBRANCH   7  14
ENDBRANCH   1  11
BRANCH   5  15
ATOM     15  O   UNL     1       3.810   2.536  19.380  0.00  0.00    +0.000 OA
ATOM     16  H   UNL     1       4.391   2.445  20.155  0.00  0.00    +0.000 HD
ENDBRANCH   5  15
BRANCH   6  17
ATOM     17  C   UNL     1       1.780   4.422  19.680  0.00  0.00    +0.000 C 
ATOM     18  N   UNL     1       0.762   4.121  20.137  0.00  0.00    +0.000 NA
ENDBRANCH   6  17
BRANCH   3  19
ATOM     19  S   UNL     1       7.153   5.552  17.424  0.00  0.00    +0.000 S 
BRANCH  19  20
ATOM     20  C   UNL     1       7.896   6.617  18.697  0.00  0.00    +0.000 C 
BRANCH  20  21
ATOM     21  C   UNL     1       8.222   7.997  18.165  0.00  0.00    +0.000 C 
ATOM     22  O   UNL     1       7.942   8.267  16.998  0.00  0.00    +0.000 OA
ATOM     23  N   UNL     1       8.801   8.865  19.086  0.00  0.00    +0.000 N 
ATOM     24  H   UNL     1       9.117   8.469  19.965  0.00  0.00    +0.000 HD
BRANCH  23  25
ATOM     25  C   UNL     1       9.154  10.208  18.816  0.00  0.00    +0.000 A 
ATOM     26  C   UNL     1      10.337  10.774  19.305  0.00  0.00    +0.000 A 
ATOM     27  C   UNL     1      10.673  12.098  19.040  0.00  0.00    +0.000 A 
ATOM     28  C   UNL     1       9.823  12.872  18.260  0.00  0.00    +0.000 A 
ATOM     29  C   UNL     1       8.629  12.340  17.765  0.00  0.00    +0.000 A 
ATOM     30  C   UNL     1       8.303  11.000  18.031  0.00  0.00    +0.000 A 
BRANCH  28  31
ATOM     31  S   UNL     1      10.299  14.531  17.886  0.00  0.00    +0.000 S 
ATOM     32  O   UNL     1      10.568  15.238  19.117  0.00  0.00    +0.000 OA
ATOM     33  O   UNL     1      11.215  14.530  16.771  0.00  0.00    +0.000 OA
BRANCH  31  34
ATOM     34  N   UNL     1       8.851  15.142  17.298  0.00  0.00    +0.000 NA
ATOM     35  H   UNL     1       8.957  15.430  16.326  0.00  0.00    +0.000 HD
ATOM     36  H   UNL     1       8.090  14.483  17.467  0.00  0.00    +0.000 HD
ENDBRANCH  31  34
ENDBRANCH  28  31
ENDBRANCH  23  25
ENDBRANCH  20  21
ENDBRANCH  19  20
ENDBRANCH   3  19
TORSDOF 10
ENDMDL
MODEL 4
REMARK VINA RESULT:      -8.1      4.632      7.994
REMARK  Name = 
REMARK  11 active torsions:
REMARK  status: ('A' for Active; 'I' for Inactive)
REMARK    1  A    between atoms: C_1  and  O_2
REMARK    2  A    between atoms: O_2  and  C_3
REMARK    3  A    between atoms: C_7  and  C_8
REMARK    4  A    between atoms: C_10  and  S_11
REMARK    5  A    between atoms: S_11  and  C_12
REMARK    6  A    between atoms: C_12  and  C_13
REMARK    7  A    between atoms: N_15  and  C_16
REMARK    8  A    between atoms: C_19  and  S_20
REMARK    9  A    between atoms: S_20  and  N_21
REMARK   10  A    between atoms: C_27  and  O_28
REMARK   11  A    between atoms: C_29  and  C_30
REMARK                            x       y       z     vdW  Elec       q    Type
REMARK                         _______ _______ _______ _____ _____    ______ ____
ROOT
ATOM      1  C   UNL     1       3.420   5.844  19.113  0.00  0.00    +0.000 A 
ATOM      2  N   UNL     1       4.506   6.276  18.398  0.00  0.00    +0.000 NA
ATOM      3  C   UNL     1       5.436   5.380  18.044  0.00  0.00    +0.000 A 
ATOM      4  N   UNL     1       5.393   4.084  18.373  0.00  0.00    +0.000 NA
ATOM      5  C   UNL     1       4.314   3.703  19.074  0.00  0.00    +0.000 A 
ATOM      6  C   UNL     1       3.276   4.513  19.466  0.00  0.00    +0.000 A 
ENDROOT
BRANCH   1  11
ATOM      7  C   UNL     1       1.411   9.073  18.931  0.00  0.00    +0.000 A 
ATOM      8  C   UNL     1       0.871   9.140  20.214  0.00  0.00    +0.000 A 
ATOM      9  C   UNL     1       1.106   8.122  21.126  0.00  0.00    +0.000 A 
ATOM     10  C   UNL     1       1.920   7.049  20.770  0.00  0.00    +0.000 A 
ATOM     11  C   UNL     1       2.485   6.938  19.486  0.00  0.00    +0.000 A 
ATOM     12  C   UNL     1       2.187   7.966  18.567  0.00  0.00    +0.000 A 
BRANCH   7  14
ATOM     13  C   UNL     1       1.723  11.392  18.526  0.00  0.00    +0.000 C 
ATOM     14  O   UNL     1       1.137  10.155  18.141  0.00  0.00    +0.000 OA
ENDBRANCH   7  14
ENDBRANCH   1  11
BRANCH   5  15
ATOM     15  O   UNL     1       4.318   2.378  19.391  0.00  0.00    +0.000 OA
ATOM     16  H   UNL     1       3.766   2.355  20.191  0.00  0.00    +0.000 HD
ENDBRANCH   5  15
BRANCH   6  17
ATOM     17  C   UNL     1       2.161   3.960  20.176  0.00  0.00    +0.000 C 
ATOM     18  N   UNL     1       1.282   3.518  20.782  0.00  0.00    +0.000 NA
ENDBRANCH   6  17
BRANCH   3  19
ATOM     19  S   UNL     1       6.865   5.911  17.125  0.00  0.00    +0.000 S 
BRANCH  19  20
ATOM     20  C   UNL     1       7.878   6.666  18.433  0.00  0.00    +0.000 C 
BRANCH  20  21
ATOM     21  C   UNL     1       8.108   8.144  18.191  0.00  0.00    +0.000 C 
ATOM     22  O   UNL     1       7.542   8.689  17.244  0.00  0.00    +0.000 OA
ATOM     23  N   UNL     1       8.943   8.771  19.110  0.00  0.00    +0.000 N 
ATOM     24  H   UNL     1       9.463   8.178  19.749  0.00  0.00    +0.000 HD
BRANCH  23  25
ATOM     25  C   UNL     1       9.267  10.148  19.098  0.00  0.00    +0.000 A 
ATOM     26  C   UNL     1       9.528  10.836  17.908  0.00  0.00    +0.000 A 
ATOM     27  C   UNL     1       9.851  12.190  17.906  0.00  0.00    +0.000 A 
ATOM     28  C   UNL     1       9.902  12.878  19.112  0.00  0.00    +0.000 A 
ATOM     29  C   UNL     1       9.656  12.218  20.319  0.00  0.00    +0.000 A 
ATOM     30  C   UNL     1       9.322  10.854  20.309  0.00  0.00    +0.000 A 
BRANCH  28  31
ATOM     31  S   UNL     1      10.255  14.608  19.081  0.00  0.00    +0.000 S 
ATOM     32  O   UNL     1       9.193  15.323  19.751  0.00  0.00    +0.000 OA
ATOM     33  O   UNL     1      11.650  14.820  19.384  0.00  0.00    +0.000 OA
BRANCH  31  34
ATOM     34  N   UNL     1      10.080  14.929  17.443  0.00  0.00    +0.000 NA
ATOM     35  H   UNL     1      10.407  14.137  16.891  0.00  0.00    +0.000 HD
ATOM     36  H   UNL     1       9.126  15.227  17.238  0.00  0.00    +0.000 HD
ENDBRANCH  31  34
ENDBRANCH  28  31
ENDBRANCH  23  25
ENDBRANCH  20  21
ENDBRANCH  19  20
ENDBRANCH   3  19
TORSDOF 10
ENDMDL
MODEL 5
REMARK VINA RESULT:      -8.0      4.722      7.950
REMARK  Name = 
REMARK  11 active torsions:
REMARK  status: ('A' for Active; 'I' for Inactive)
REMARK    1  A    between atoms: C_1  and  O_2
REMARK    2  A    between atoms: O_2  and  C_3
REMARK    3  A    between atoms: C_7  and  C_8
REMARK    4  A    between atoms: C_10  and  S_11
REMARK    5  A    between atoms: S_11  and  C_12
REMARK    6  A    between atoms: C_12  and  C_13
REMARK    7  A    between atoms: N_15  and  C_16
REMARK    8  A    between atoms: C_19  and  S_20
REMARK    9  A    between atoms: S_20  and  N_21
REMARK   10  A    between atoms: C_27  and  O_28
REMARK   11  A    between atoms: C_29  and  C_30
REMARK                            x       y       z     vdW  Elec       q    Type
REMARK                         _______ _______ _______ _____ _____    ______ ____
ROOT
ATOM      1  C   UNL     1       3.458   5.803  18.519  0.00  0.00    +0.000 A 
ATOM      2  N   UNL     1       4.647   6.281  18.034  0.00  0.00    +0.000 NA
ATOM      3  C   UNL     1       5.528   5.409  17.527  0.00  0.00    +0.000 A 
ATOM      4  N   UNL     1       5.337   4.085  17.490  0.00  0.00    +0.000 NA
ATOM      5  C   UNL     1       4.161   3.659  17.975  0.00  0.00    +0.000 A 
ATOM      6  C   UNL     1       3.162   4.450  18.488  0.00  0.00    +0.000 A 
ENDROOT
BRANCH   1  11
ATOM      7  C   UNL     1       1.565   9.082  18.912  0.00  0.00    +0.000 A 
ATOM      8  C   UNL     1       1.101   8.983  20.222  0.00  0.00    +0.000 A 
ATOM      9  C   UNL     1       1.349   7.839  20.968  0.00  0.00    +0.000 A 
ATOM     10  C   UNL     1       2.101   6.804  20.416  0.00  0.00    +0.000 A 
ATOM     11  C   UNL     1       2.588   6.860  19.097  0.00  0.00    +0.000 A 
ATOM     12  C   UNL     1       2.276   8.016  18.350  0.00  0.00    +0.000 A 
BRANCH   7  14
ATOM     13  C   UNL     1      -0.021  10.798  18.487  0.00  0.00    +0.000 C 
ATOM     14  O   UNL     1       1.287  10.273  18.299  0.00  0.00    +0.000 OA
ENDBRANCH   7  14
ENDBRANCH   1  11
BRANCH   5  15
ATOM     15  O   UNL     1       4.016   2.306  17.923  0.00  0.00    +0.000 OA
ATOM     16  H   UNL     1       3.943   2.069  18.864  0.00  0.00    +0.000 HD
ENDBRANCH   5  15
BRANCH   6  17
ATOM     17  C   UNL     1       1.934   3.860  18.933  0.00  0.00    +0.000 C 
ATOM     18  N   UNL     1       0.942   3.411  19.320  0.00  0.00    +0.000 NA
ENDBRANCH   6  17
BRANCH   3  19
ATOM     19  S   UNL     1       7.087   5.998  16.901  0.00  0.00    +0.000 S 
BRANCH  19  20
ATOM     20  C   UNL     1       7.784   6.814  18.369  0.00  0.00    +0.000 C 
BRANCH  20  21
ATOM     21  C   UNL     1       8.017   8.293  18.138  0.00  0.00    +0.000 C 
ATOM     22  O   UNL     1       7.393   8.864  17.245  0.00  0.00    +0.000 OA
ATOM     23  N   UNL     1       8.926   8.891  19.007  0.00  0.00    +0.000 N 
ATOM     24  H   UNL     1       9.482   8.278  19.595  0.00  0.00    +0.000 HD
BRANCH  23  25
ATOM     25  C   UNL     1       9.268  10.263  18.996  0.00  0.00    +0.000 A 
ATOM     26  C   UNL     1       9.056  11.087  20.107  0.00  0.00    +0.000 A 
ATOM     27  C   UNL     1       9.391  12.438  20.085  0.00  0.00    +0.000 A 
ATOM     28  C   UNL     1       9.962  12.978  18.941  0.00  0.00    +0.000 A 
ATOM     29  C   UNL     1      10.179  12.185  17.811  0.00  0.00    +0.000 A 
ATOM     30  C   UNL     1       9.845  10.821  17.845  0.00  0.00    +0.000 A 
BRANCH  28  31
ATOM     31  S   UNL     1      10.434  14.679  18.957  0.00  0.00    +0.000 S 
ATOM     32  O   UNL     1       9.937  15.301  20.163  0.00  0.00    +0.000 OA
ATOM     33  O   UNL     1      11.806  14.803  18.524  0.00  0.00    +0.000 OA
BRANCH  31  34
ATOM     34  N   UNL     1       9.494  15.272  17.699  0.00  0.00    +0.000 NA
ATOM     35  H   UNL     1       8.738  14.623  17.487  0.00  0.00    +0.000 HD
ATOM     36  H   UNL     1       9.195  16.226  17.897  0.00  0.00    +0.000 HD
ENDBRANCH  31  34
ENDBRANCH  28  31
ENDBRANCH  23  25
ENDBRANCH  20  21
ENDBRANCH  19  20
ENDBRANCH   3  19
TORSDOF 10
ENDMDL
MODEL 6
REMARK VINA RESULT:      -7.9      4.306      7.857
REMARK  Name = 
REMARK  11 active torsions:
REMARK  status: ('A' for Active; 'I' for Inactive)
REMARK    1  A    between atoms: C_1  and  O_2
REMARK    2  A    between atoms: O_2  and  C_3
REMARK    3  A    between atoms: C_7  and  C_8
REMARK    4  A    between atoms: C_10  and  S_11
REMARK    5  A    between atoms: S_11  and  C_12
REMARK    6  A    between atoms: C_12  and  C_13
REMARK    7  A    between atoms: N_15  and  C_16
REMARK    8  A    between atoms: C_19  and  S_20
REMARK    9  A    between atoms: S_20  and  N_21
REMARK   10  A    between atoms: C_27  and  O_28
REMARK   11  A    between atoms: C_29  and  C_30
REMARK                            x       y       z     vdW  Elec       q    Type
REMARK                         _______ _______ _______ _____ _____    ______ ____
ROOT
ATOM      1  C   UNL     1       3.492   5.714  19.037  0.00  0.00    +0.000 A 
ATOM      2  N   UNL     1       4.763   5.828  18.538  0.00  0.00    +0.000 NA
ATOM      3  C   UNL     1       5.543   4.739  18.519  0.00  0.00    +0.000 A 
ATOM      4  N   UNL     1       5.172   3.543  18.989  0.00  0.00    +0.000 NA
ATOM      5  C   UNL     1       3.921   3.474  19.469  0.00  0.00    +0.000 A 
ATOM      6  C   UNL     1       3.013   4.505  19.512  0.00  0.00    +0.000 A 
ENDROOT
BRANCH   1  11
ATOM      7  C   UNL     1       1.360   8.620  20.263  0.00  0.00    +0.000 A 
ATOM      8  C   UNL     1       1.152   9.332  19.084  0.00  0.00    +0.000 A 
ATOM      9  C   UNL     1       1.739   8.912  17.900  0.00  0.00    +0.000 A 
ATOM     10  C   UNL     1       2.506   7.749  17.883  0.00  0.00    +0.000 A 
ATOM     11  C   UNL     1       2.745   6.999  19.049  0.00  0.00    +0.000 A 
ATOM     12  C   UNL     1       2.173   7.481  20.246  0.00  0.00    +0.000 A 
BRANCH   7  14
ATOM     13  C   UNL     1      -0.423   9.953  21.092  0.00  0.00    +0.000 C 
ATOM     14  O   UNL     1       0.697   9.115  21.352  0.00  0.00    +0.000 OA
ENDBRANCH   7  14
ENDBRANCH   1  11
BRANCH   5  15
ATOM     15  O   UNL     1       3.592   2.240  19.942  0.00  0.00    +0.000 OA
ATOM     16  H   UNL     1       3.283   2.439  20.842  0.00  0.00    +0.000 HD
ENDBRANCH   5  15
BRANCH   6  17
ATOM     17  C   UNL     1       1.690   4.277  20.015  0.00  0.00    +0.000 C 
ATOM     18  N   UNL     1       0.615   4.076  20.387  0.00  0.00    +0.000 NA
ENDBRANCH   6  17
BRANCH   3  19
ATOM     19  S   UNL     1       7.202   4.858  17.888  0.00  0.00    +0.000 S 
BRANCH  19  20
ATOM     20  C   UNL     1       7.177   6.497  17.102  0.00  0.00    +0.000 C 
BRANCH  20  21
ATOM     21  C   UNL     1       7.898   7.537  17.935  0.00  0.00    +0.000 C 
ATOM     22  O   UNL     1       8.512   7.177  18.938  0.00  0.00    +0.000 OA
ATOM     23  N   UNL     1       7.818   8.840  17.453  0.00  0.00    +0.000 N 
ATOM     24  H   UNL     1       7.157   9.021  16.705  0.00  0.00    +0.000 HD
BRANCH  23  25
ATOM     25  C   UNL     1       8.443   9.960  18.050  0.00  0.00    +0.000 A 
ATOM     26  C   UNL     1       9.304   9.831  19.145  0.00  0.00    +0.000 A 
ATOM     27  C   UNL     1       9.909  10.940  19.729  0.00  0.00    +0.000 A 
ATOM     28  C   UNL     1       9.666  12.203  19.204  0.00  0.00    +0.000 A 
ATOM     29  C   UNL     1       8.803  12.367  18.117  0.00  0.00    +0.000 A 
ATOM     30  C   UNL     1       8.204  11.241  17.529  0.00  0.00    +0.000 A 
BRANCH  28  31
ATOM     31  S   UNL     1      10.492  13.588  19.922  0.00  0.00    +0.000 S 
ATOM     32  O   UNL     1      10.369  14.726  19.040  0.00  0.00    +0.000 OA
ATOM     33  O   UNL     1      10.182  13.657  21.331  0.00  0.00    +0.000 OA
BRANCH  31  34
ATOM     34  N   UNL     1      12.088  13.082  19.820  0.00  0.00    +0.000 NA
ATOM     35  H   UNL     1      12.619  13.706  19.213  0.00  0.00    +0.000 HD
ATOM     36  H   UNL     1      12.483  12.957  20.752  0.00  0.00    +0.000 HD
ENDBRANCH  31  34
ENDBRANCH  28  31
ENDBRANCH  23  25
ENDBRANCH  20  21
ENDBRANCH  19  20
ENDBRANCH   3  19
TORSDOF 10
ENDMDL
MODEL 7
REMARK VINA RESULT:      -7.8      3.479      5.679
REMARK  Name = 
REMARK  11 active torsions:
REMARK  status: ('A' for Active; 'I' for Inactive)
REMARK    1  A    between atoms: C_1  and  O_2
REMARK    2  A    between atoms: O_2  and  C_3
REMARK    3  A    between atoms: C_7  and  C_8
REMARK    4  A    between atoms: C_10  and  S_11
REMARK    5  A    between atoms: S_11  and  C_12
REMARK    6  A    between atoms: C_12  and  C_13
REMARK    7  A    between atoms: N_15  and  C_16
REMARK    8  A    between atoms: C_19  and  S_20
REMARK    9  A    between atoms: S_20  and  N_21
REMARK   10  A    between atoms: C_27  and  O_28
REMARK   11  A    between atoms: C_29  and  C_30
REMARK                            x       y       z     vdW  Elec       q    Type
REMARK                         _______ _______ _______ _____ _____    ______ ____
ROOT
ATOM      1  C   UNL     1       3.433   5.041  19.072  0.00  0.00    +0.000 A 
ATOM      2  N   UNL     1       3.085   6.275  19.554  0.00  0.00    +0.000 NA
ATOM      3  C   UNL     1       1.977   6.383  20.298  0.00  0.00    +0.000 A 
ATOM      4  N   UNL     1       1.160   5.362  20.580  0.00  0.00    +0.000 NA
ATOM      5  C   UNL     1       1.536   4.171  20.089  0.00  0.00    +0.000 A 
ATOM      6  C   UNL     1       2.665   3.921  19.345  0.00  0.00    +0.000 A 
ENDROOT
BRANCH   1  11
ATOM      7  C   UNL     1       5.664   5.036  15.988  0.00  0.00    +0.000 A 
ATOM      8  C   UNL     1       6.929   4.902  16.557  0.00  0.00    +0.000 A 
ATOM      9  C   UNL     1       7.076   4.867  17.936  0.00  0.00    +0.000 A 
ATOM     10  C   UNL     1       5.949   4.923  18.753  0.00  0.00    +0.000 A 
ATOM     11  C   UNL     1       4.652   5.059  18.223  0.00  0.00    +0.000 A 
ATOM     12  C   UNL     1       4.542   5.141  16.818  0.00  0.00    +0.000 A 
BRANCH   7  14
ATOM     13  C   UNL     1       6.522   4.093  13.983  0.00  0.00    +0.000 C 
ATOM     14  O   UNL     1       5.650   5.020  14.620  0.00  0.00    +0.000 OA
ENDBRANCH   7  14
ENDBRANCH   1  11
BRANCH   5  15
ATOM     15  O   UNL     1       0.672   3.165  20.396  0.00  0.00    +0.000 OA
ATOM     16  H   UNL     1       0.078   3.160  19.626  0.00  0.00    +0.000 HD
ENDBRANCH   5  15
BRANCH   6  17
ATOM     17  C   UNL     1       2.966   2.586  18.922  0.00  0.00    +0.000 C 
ATOM     18  N   UNL     1       3.171   1.500  18.584  0.00  0.00    +0.000 NA
ENDBRANCH   6  17
BRANCH   3  19
ATOM     19  S   UNL     1       1.492   7.976  20.927  0.00  0.00    +0.000 S 
BRANCH  19  20
ATOM     20  C   UNL     1       1.310   8.934  19.392  0.00  0.00    +0.000 C 
BRANCH  20  21
ATOM     21  C   UNL     1       1.130  10.413  19.664  0.00  0.00    +0.000 C 
ATOM     22  O   UNL     1       0.845  10.780  20.803  0.00  0.00    +0.000 OA
ATOM     23  N   UNL     1       1.339  11.246  18.569  0.00  0.00    +0.000 N 
ATOM     24  H   UNL     1       1.418  10.806  17.657  0.00  0.00    +0.000 HD
BRANCH  23  25
ATOM     25  C   UNL     1       1.259  12.657  18.602  0.00  0.00    +0.000 A 
ATOM     26  C   UNL     1       2.403  13.463  18.605  0.00  0.00    +0.000 A 
ATOM     27  C   UNL     1       2.314  14.852  18.644  0.00  0.00    +0.000 A 
ATOM     28  C   UNL     1       1.062  15.452  18.666  0.00  0.00    +0.000 A 
ATOM     29  C   UNL     1      -0.100  14.676  18.674  0.00  0.00    +0.000 A 
ATOM     30  C   UNL     1      -0.000  13.276  18.626  0.00  0.00    +0.000 A 
BRANCH  28  31
ATOM     31  S   UNL     1       0.972  17.216  18.654  0.00  0.00    +0.000 S 
ATOM     32  O   UNL     1       0.802  17.693  20.008  0.00  0.00    +0.000 OA
ATOM     33  O   UNL     1       1.977  17.743  17.762  0.00  0.00    +0.000 OA
BRANCH  31  34
ATOM     34  N   UNL     1      -0.501  17.445  17.885  0.00  0.00    +0.000 NA
ATOM     35  H   UNL     1      -0.615  18.424  17.624  0.00  0.00    +0.000 HD
ATOM     36  H   UNL     1      -0.609  16.783  17.116  0.00  0.00    +0.000 HD
ENDBRANCH  31  34
ENDBRANCH  28  31
ENDBRANCH  23  25
ENDBRANCH  20  21
ENDBRANCH  19  20
ENDBRANCH   3  19
TORSDOF 10
ENDMDL
MODEL 8
REMARK VINA RESULT:      -7.8      4.178      6.264
REMARK  Name = 
REMARK  11 active torsions:
REMARK  status: ('A' for Active; 'I' for Inactive)
REMARK    1  A    between atoms: C_1  and  O_2
REMARK    2  A    between atoms: O_2  and  C_3
REMARK    3  A    between atoms: C_7  and  C_8
REMARK    4  A    between atoms: C_10  and  S_11
REMARK    5  A    between atoms: S_11  and  C_12
REMARK    6  A    between atoms: C_12  and  C_13
REMARK    7  A    between atoms: N_15  and  C_16
REMARK    8  A    between atoms: C_19  and  S_20
REMARK    9  A    between atoms: S_20  and  N_21
REMARK   10  A    between atoms: C_27  and  O_28
REMARK   11  A    between atoms: C_29  and  C_30
REMARK                            x       y       z     vdW  Elec       q    Type
REMARK                         _______ _______ _______ _____ _____    ______ ____
ROOT
ATOM      1  C   UNL     1       3.579   5.436  18.931  0.00  0.00    +0.000 A 
ATOM      2  N   UNL     1       3.067   6.697  19.084  0.00  0.00    +0.000 NA
ATOM      3  C   UNL     1       2.128   6.899  20.017  0.00  0.00    +0.000 A 
ATOM      4  N   UNL     1       1.627   5.934  20.798  0.00  0.00    +0.000 NA
ATOM      5  C   UNL     1       2.155   4.714  20.616  0.00  0.00    +0.000 A 
ATOM      6  C   UNL     1       3.145   4.384  19.722  0.00  0.00    +0.000 A 
ENDROOT
BRANCH   1  11
ATOM      7  C   UNL     1       6.611   6.168  16.749  0.00  0.00    +0.000 A 
ATOM      8  C   UNL     1       6.398   5.307  15.674  0.00  0.00    +0.000 A 
ATOM      9  C   UNL     1       5.307   4.450  15.671  0.00  0.00    +0.000 A 
ATOM     10  C   UNL     1       4.400   4.480  16.728  0.00  0.00    +0.000 A 
ATOM     11  C   UNL     1       4.576   5.331  17.834  0.00  0.00    +0.000 A 
ATOM     12  C   UNL     1       5.722   6.156  17.829  0.00  0.00    +0.000 A 
BRANCH   7  14
ATOM     13  C   UNL     1       7.825   8.039  17.564  0.00  0.00    +0.000 C 
ATOM     14  O   UNL     1       7.698   6.988  16.615  0.00  0.00    +0.000 OA
ENDBRANCH   7  14
ENDBRANCH   1  11
BRANCH   5  15
ATOM     15  O   UNL     1       1.610   3.765  21.427  0.00  0.00    +0.000 OA
ATOM     16  H   UNL     1       2.226   3.758  22.180  0.00  0.00    +0.000 HD
ENDBRANCH   5  15
BRANCH   6  17
ATOM     17  C   UNL     1       3.646   3.043  19.665  0.00  0.00    +0.000 C 
ATOM     18  N   UNL     1       4.060   1.968  19.582  0.00  0.00    +0.000 NA
ENDBRANCH   6  17
BRANCH   3  19
ATOM     19  S   UNL     1       1.434   8.523  20.231  0.00  0.00    +0.000 S 
BRANCH  19  20
ATOM     20  C   UNL     1       0.290   8.252  21.618  0.00  0.00    +0.000 C 
BRANCH  20  21
ATOM     21  C   UNL     1       0.041   9.522  22.406  0.00  0.00    +0.000 C 
ATOM     22  O   UNL     1       0.546   9.640  23.522  0.00  0.00    +0.000 OA
ATOM     23  N   UNL     1      -0.737  10.476  21.758  0.00  0.00    +0.000 N 
ATOM     24  H   UNL     1      -1.214  10.191  20.909  0.00  0.00    +0.000 HD
BRANCH  23  25
ATOM     25  C   UNL     1      -1.065  11.745  22.290  0.00  0.00    +0.000 A 
ATOM     26  C   UNL     1      -0.274  12.875  22.051  0.00  0.00    +0.000 A 
ATOM     27  C   UNL     1      -0.602  14.118  22.583  0.00  0.00    +0.000 A 
ATOM     28  C   UNL     1      -1.748  14.244  23.358  0.00  0.00    +0.000 A 
ATOM     29  C   UNL     1      -2.553  13.134  23.625  0.00  0.00    +0.000 A 
ATOM     30  C   UNL     1      -2.219  11.886  23.076  0.00  0.00    +0.000 A 
BRANCH  28  31
ATOM     31  S   UNL     1      -2.177  15.843  23.974  0.00  0.00    +0.000 S 
ATOM     32  O   UNL     1      -1.606  16.016  25.290  0.00  0.00    +0.000 OA
ATOM     33  O   UNL     1      -2.024  16.821  22.923  0.00  0.00    +0.000 OA
BRANCH  31  34
ATOM     34  N   UNL     1      -3.829  15.654  24.197  0.00  0.00    +0.000 NA
ATOM     35  H   UNL     1      -4.153  16.248  24.960  0.00  0.00    +0.000 HD
ATOM     36  H   UNL     1      -4.326  15.784  23.316  0.00  0.00    +0.000 HD
ENDBRANCH  31  34
ENDBRANCH  28  31
ENDBRANCH  23  25
ENDBRANCH  20  21
ENDBRANCH  19  20
ENDBRANCH   3  19
TORSDOF 10
ENDMDL
MODEL 9
REMARK VINA RESULT:      -7.8      3.998      5.543
REMARK  Name = 
REMARK  11 active torsions:
REMARK  status: ('A' for Active; 'I' for Inactive)
REMARK    1  A    between atoms: C_1  and  O_2
REMARK    2  A    between atoms: O_2  and  C_3
REMARK    3  A    between atoms: C_7  and  C_8
REMARK    4  A    between atoms: C_10  and  S_11
REMARK    5  A    between atoms: S_11  and  C_12
REMARK    6  A    between atoms: C_12  and  C_13
REMARK    7  A    between atoms: N_15  and  C_16
REMARK    8  A    between atoms: C_19  and  S_20
REMARK    9  A    between atoms: S_20  and  N_21
REMARK   10  A    between atoms: C_27  and  O_28
REMARK   11  A    between atoms: C_29  and  C_30
REMARK                            x       y       z     vdW  Elec       q    Type
REMARK                         _______ _______ _______ _____ _____    ______ ____
ROOT
ATOM      1  C   UNL     1       4.231   6.156  17.788  0.00  0.00    +0.000 A 
ATOM      2  N   UNL     1       3.632   7.347  17.474  0.00  0.00    +0.000 NA
ATOM      3  C   UNL     1       2.688   7.825  18.297  0.00  0.00    +0.000 A 
ATOM      4  N   UNL     1       2.264   7.194  19.398  0.00  0.00    +0.000 NA
ATOM      5  C   UNL     1       2.876   6.031  19.668  0.00  0.00    +0.000 A 
ATOM      6  C   UNL     1       3.880   5.453  18.928  0.00  0.00    +0.000 A 
ENDROOT
BRANCH   1  11
ATOM      7  C   UNL     1       5.722   4.485  14.709  0.00  0.00    +0.000 A 
ATOM      8  C   UNL     1       7.086   4.672  14.921  0.00  0.00    +0.000 A 
ATOM      9  C   UNL     1       7.531   5.381  16.027  0.00  0.00    +0.000 A 
ATOM     10  C   UNL     1       6.611   5.873  16.950  0.00  0.00    +0.000 A 
ATOM     11  C   UNL     1       5.224   5.710  16.776  0.00  0.00    +0.000 A 
ATOM     12  C   UNL     1       4.803   5.025  15.615  0.00  0.00    +0.000 A 
BRANCH   7  14
ATOM     13  C   UNL     1       6.405   3.666  12.586  0.00  0.00    +0.000 C 
ATOM     14  O   UNL     1       5.414   3.738  13.605  0.00  0.00    +0.000 OA
ENDBRANCH   7  14
ENDBRANCH   1  11
BRANCH   5  15
ATOM     15  O   UNL     1       2.407   5.425  20.793  0.00  0.00    +0.000 OA
ATOM     16  H   UNL     1       3.211   5.340  21.333  0.00  0.00    +0.000 HD
ENDBRANCH   5  15
BRANCH   6  17
ATOM     17  C   UNL     1       4.475   4.223  19.360  0.00  0.00    +0.000 C 
ATOM     18  N   UNL     1       4.961   3.223  19.671  0.00  0.00    +0.000 NA
ENDBRANCH   6  17
BRANCH   3  19
ATOM     19  S   UNL     1       1.882   9.363  17.910  0.00  0.00    +0.000 S 
BRANCH  19  20
ATOM     20  C   UNL     1       1.383   9.938  19.562  0.00  0.00    +0.000 C 
BRANCH  20  21
ATOM     21  C   UNL     1      -0.122  10.050  19.693  0.00  0.00    +0.000 C 
ATOM     22  O   UNL     1      -0.685   9.469  20.619  0.00  0.00    +0.000 OA
ATOM     23  N   UNL     1      -0.741  10.850  18.737  0.00  0.00    +0.000 N 
ATOM     24  H   UNL     1      -0.182  11.145  17.943  0.00  0.00    +0.000 HD
BRANCH  23  25
ATOM     25  C   UNL     1      -2.128  11.123  18.690  0.00  0.00    +0.000 A 
ATOM     26  C   UNL     1      -2.991  10.427  17.837  0.00  0.00    +0.000 A 
ATOM     27  C   UNL     1      -4.353  10.707  17.793  0.00  0.00    +0.000 A 
ATOM     28  C   UNL     1      -4.872  11.690  18.626  0.00  0.00    +0.000 A 
ATOM     29  C   UNL     1      -4.036  12.411  19.482  0.00  0.00    +0.000 A 
ATOM     30  C   UNL     1      -2.664  12.115  19.526  0.00  0.00    +0.000 A 
BRANCH  28  31
ATOM     31  S   UNL     1      -6.613  11.987  18.597  0.00  0.00    +0.000 S 
ATOM     32  O   UNL     1      -7.007  12.380  17.263  0.00  0.00    +0.000 OA
ATOM     33  O   UNL     1      -7.291  10.950  19.337  0.00  0.00    +0.000 OA
BRANCH  31  34
ATOM     34  N   UNL     1      -6.705  13.370  19.543  0.00  0.00    +0.000 NA
ATOM     35  H   UNL     1      -7.030  14.159  18.985  0.00  0.00    +0.000 HD
ATOM     36  H   UNL     1      -7.251  13.190  20.385  0.00  0.00    +0.000 HD
ENDBRANCH  31  34
ENDBRANCH  28  31
ENDBRANCH  23  25
ENDBRANCH  20  21
ENDBRANCH  19  20
ENDBRANCH   3  19
TORSDOF 10
ENDMDL
