MODEL 1
REMARK VINA RESULT:      -8.9      0.000      0.000
REMARK  Name = 
REMARK  4 active torsions:
REMARK  status: ('A' for Active; 'I' for Inactive)
REMARK    1  A    between atoms: C_2  and  C_23
REMARK    2  A    between atoms: C_6  and  C_7
REMARK    3  A    between atoms: C_10  and  S_11
REMARK    4  A    between atoms: S_11  and  N_14
REMARK                            x       y       z     vdW  Elec       q    Type
REMARK                         _______ _______ _______ _____ _____    ______ ____
ROOT
ATOM      1  C   UNL     1       2.562   7.444  18.862  0.00  0.00    +0.000 A 
ATOM      2  C   UNL     1       1.903   7.712  20.072  0.00  0.00    +0.000 A 
ATOM      3  C   UNL     1       1.116   8.865  20.218  0.00  0.00    +0.000 A 
ATOM      4  C   UNL     1       0.971   9.756  19.149  0.00  0.00    +0.000 A 
ATOM      5  C   UNL     1       1.597   9.483  17.932  0.00  0.00    +0.000 A 
ATOM      6  C   UNL     1       2.406   8.350  17.802  0.00  0.00    +0.000 A 
ENDROOT
BRANCH   1  12
ATOM      7  O   UNL     1       5.376   6.191  15.069  0.00  0.00    +0.000 OA
ATOM      8  C   UNL     1       5.637   4.999  15.262  0.00  0.00    +0.000 C 
ATOM      9  N   UNL     1       5.280   4.282  16.386  0.00  0.00    +0.000 N 
ATOM     10  C   UNL     1       4.550   4.854  17.393  0.00  0.00    +0.000 A 
ATOM     11  N   UNL     1       3.947   6.012  17.411  0.00  0.00    +0.000 NA
ATOM     12  C   UNL     1       3.334   6.224  18.634  0.00  0.00    +0.000 A 
ATOM     13  C   UNL     1       3.537   5.210  19.552  0.00  0.00    +0.000 A 
ATOM     14  S   UNL     1       4.424   3.925  18.818  0.00  0.00    +0.000 S 
ATOM     15  H   UNL     1       5.592   3.334  16.525  0.00  0.00    +0.000 HD
BRANCH   8  16
ATOM     16  C   UNL     1       6.448   4.194  14.218  0.00  0.00    +0.000 C 
ATOM     17  C   UNL     1       5.636   3.643  13.007  0.00  0.00    +0.000 C 
ATOM     18  C   UNL     1       6.907   3.817  12.159  0.00  0.00    +0.000 C 
ATOM     19  C   UNL     1       7.333   4.910  13.162  0.00  0.00    +0.000 C 
ENDBRANCH   8  16
ENDBRANCH   1  12
BRANCH   4  20
ATOM     20  S   UNL     1      -0.145  11.147  19.284  0.00  0.00    +0.000 S 
ATOM     21  O   UNL     1      -0.325  11.398  20.699  0.00  0.00    +0.000 OA
ATOM     22  O   UNL     1       0.352  12.187  18.408  0.00  0.00    +0.000 OA
BRANCH  20  23
ATOM     23  N   UNL     1      -1.614  10.618  18.651  0.00  0.00    +0.000 NA
ATOM     24  C   UNL     1      -1.675   9.882  17.380  0.00  0.00    +0.000 C 
ATOM     25  C   UNL     1      -2.437  10.813  16.458  0.00  0.00    +0.000 C 
ATOM     26  C   UNL     1      -3.431  11.507  17.375  0.00  0.00    +0.000 C 
ATOM     27  C   UNL     1      -2.810  11.470  18.768  0.00  0.00    +0.000 C 
ENDBRANCH  20  23
ENDBRANCH   4  20
TORSDOF 4
ENDMDL
MODEL 2
REMARK VINA RESULT:      -8.8      0.636      1.188
REMARK  Name = 
REMARK  4 active torsions:
REMARK  status: ('A' for Active; 'I' for Inactive)
REMARK    1  A    between atoms: C_2  and  C_23
REMARK    2  A    between atoms: C_6  and  C_7
REMARK    3  A    between atoms: C_10  and  S_11
REMARK    4  A    between atoms: S_11  and  N_14
REMARK                            x       y       z     vdW  Elec       q    Type
REMARK                         _______ _______ _______ _____ _____    ______ ____
ROOT
ATOM      1  C   UNL     1       2.497   7.281  18.800  0.00  0.00    +0.000 A 
ATOM      2  C   UNL     1       2.336   8.286  17.834  0.00  0.00    +0.000 A 
ATOM      3  C   UNL     1       1.661   9.477  18.145  0.00  0.00    +0.000 A 
ATOM      4  C   UNL     1       1.149   9.678  19.433  0.00  0.00    +0.000 A 
ATOM      5  C   UNL     1       1.332   8.698  20.409  0.00  0.00    +0.000 A 
ATOM      6  C   UNL     1       1.976   7.501  20.085  0.00  0.00    +0.000 A 
ENDROOT
BRANCH   1  12
ATOM      7  O   UNL     1       5.428   6.127  15.065  0.00  0.00    +0.000 OA
ATOM      8  C   UNL     1       5.658   4.922  15.217  0.00  0.00    +0.000 C 
ATOM      9  N   UNL     1       5.245   4.168  16.295  0.00  0.00    +0.000 N 
ATOM     10  C   UNL     1       4.488   4.713  17.298  0.00  0.00    +0.000 A 
ATOM     11  N   UNL     1       3.908   5.881  17.342  0.00  0.00    +0.000 NA
ATOM     12  C   UNL     1       3.253   6.056  18.550  0.00  0.00    +0.000 A 
ATOM     13  C   UNL     1       3.401   5.001  19.431  0.00  0.00    +0.000 A 
ATOM     14  S   UNL     1       4.289   3.729  18.677  0.00  0.00    +0.000 S 
ATOM     15  H   UNL     1       5.532   3.208  16.406  0.00  0.00    +0.000 HD
BRANCH   8  16
ATOM     16  C   UNL     1       6.492   4.144  14.171  0.00  0.00    +0.000 C 
ATOM     17  C   UNL     1       5.700   3.586  12.951  0.00  0.00    +0.000 C 
ATOM     18  C   UNL     1       6.971   3.794  12.112  0.00  0.00    +0.000 C 
ATOM     19  C   UNL     1       7.368   4.888  13.126  0.00  0.00    +0.000 C 
ENDBRANCH   8  16
ENDBRANCH   1  12
BRANCH   4  20
ATOM     20  S   UNL     1       0.419  11.250  19.873  0.00  0.00    +0.000 S 
ATOM     21  O   UNL     1       0.261  11.245  21.312  0.00  0.00    +0.000 OA
ATOM     22  O   UNL     1       1.194  12.285  19.220  0.00  0.00    +0.000 OA
BRANCH  20  23
ATOM     23  N   UNL     1      -1.114  11.254  19.174  0.00  0.00    +0.000 NA
ATOM     24  C   UNL     1      -1.830  10.000  18.900  0.00  0.00    +0.000 C 
ATOM     25  C   UNL     1      -1.931   9.964  17.387  0.00  0.00    +0.000 C 
ATOM     26  C   UNL     1      -2.081  11.424  16.993  0.00  0.00    +0.000 C 
ATOM     27  C   UNL     1      -1.433  12.229  18.117  0.00  0.00    +0.000 C 
ENDBRANCH  20  23
ENDBRANCH   4  20
TORSDOF 4
ENDMDL
MODEL 3
REMARK VINA RESULT:      -8.7      3.074      9.439
REMARK  Name = 
REMARK  4 active torsions:
REMARK  status: ('A' for Active; 'I' for Inactive)
REMARK    1  A    between atoms: C_2  and  C_23
REMARK    2  A    between atoms: C_6  and  C_7
REMARK    3  A    between atoms: C_10  and  S_11
REMARK    4  A    between atoms: S_11  and  N_14
REMARK                            x       y       z     vdW  Elec       q    Type
REMARK                         _______ _______ _______ _____ _____    ______ ____
ROOT
ATOM      1  C   UNL     1       1.080   9.428  18.880  0.00  0.00    +0.000 A 
ATOM      2  C   UNL     1       1.764   8.802  17.827  0.00  0.00    +0.000 A 
ATOM      3  C   UNL     1       2.480   7.614  18.044  0.00  0.00    +0.000 A 
ATOM      4  C   UNL     1       2.509   7.035  19.319  0.00  0.00    +0.000 A 
ATOM      5  C   UNL     1       1.806   7.634  20.365  0.00  0.00    +0.000 A 
ATOM      6  C   UNL     1       1.122   8.833  20.151  0.00  0.00    +0.000 A 
ENDROOT
BRANCH   1  12
ATOM      7  O   UNL     1      -3.713   9.830  18.018  0.00  0.00    +0.000 OA
ATOM      8  C   UNL     1      -3.875  11.023  17.740  0.00  0.00    +0.000 C 
ATOM      9  N   UNL     1      -2.894  11.991  17.802  0.00  0.00    +0.000 N 
ATOM     10  C   UNL     1      -1.608  11.679  18.155  0.00  0.00    +0.000 A 
ATOM     11  N   UNL     1      -1.063  10.503  18.307  0.00  0.00    +0.000 NA
ATOM     12  C   UNL     1       0.261  10.625  18.692  0.00  0.00    +0.000 A 
ATOM     13  C   UNL     1       0.680  11.930  18.872  0.00  0.00    +0.000 A 
ATOM     14  S   UNL     1      -0.588  13.016  18.443  0.00  0.00    +0.000 S 
ATOM     15  H   UNL     1      -3.104  12.963  17.642  0.00  0.00    +0.000 HD
BRANCH   8  16
ATOM     16  C   UNL     1      -5.267  11.547  17.310  0.00  0.00    +0.000 C 
ATOM     17  C   UNL     1      -6.479  10.994  18.118  0.00  0.00    +0.000 C 
ATOM     18  C   UNL     1      -7.173  12.344  17.877  0.00  0.00    +0.000 C 
ATOM     19  C   UNL     1      -5.763  12.956  17.736  0.00  0.00    +0.000 C 
ENDBRANCH   8  16
ENDBRANCH   1  12
BRANCH   4  20
ATOM     20  S   UNL     1       3.297   5.449  19.566  0.00  0.00    +0.000 S 
ATOM     21  O   UNL     1       4.722   5.667  19.423  0.00  0.00    +0.000 OA
ATOM     22  O   UNL     1       2.757   4.884  20.785  0.00  0.00    +0.000 OA
BRANCH  20  23
ATOM     23  N   UNL     1       2.781   4.477  18.291  0.00  0.00    +0.000 NA
ATOM     24  C   UNL     1       1.392   4.002  18.208  0.00  0.00    +0.000 C 
ATOM     25  C   UNL     1       1.515   2.498  18.356  0.00  0.00    +0.000 C 
ATOM     26  C   UNL     1       2.832   2.167  17.673  0.00  0.00    +0.000 C 
ATOM     27  C   UNL     1       3.675   3.436  17.756  0.00  0.00    +0.000 C 
ENDBRANCH  20  23
ENDBRANCH   4  20
TORSDOF 4
ENDMDL
MODEL 4
REMARK VINA RESULT:      -8.7      1.745      2.412
REMARK  Name = 
REMARK  4 active torsions:
REMARK  status: ('A' for Active; 'I' for Inactive)
REMARK    1  A    between atoms: C_2  and  C_23
REMARK    2  A    between atoms: C_6  and  C_7
REMARK    3  A    between atoms: C_10  and  S_11
REMARK    4  A    between atoms: S_11  and  N_14
REMARK                            x       y       z     vdW  Elec       q    Type
REMARK                         _______ _______ _______ _____ _____    ______ ____
ROOT
ATOM      1  C   UNL     1       2.503   7.196  18.944  0.00  0.00    +0.000 A 
ATOM      2  C   UNL     1       2.307   8.210  17.994  0.00  0.00    +0.000 A 
ATOM      3  C   UNL     1       1.581   9.367  18.321  0.00  0.00    +0.000 A 
ATOM      4  C   UNL     1       1.052   9.523  19.608  0.00  0.00    +0.000 A 
ATOM      5  C   UNL     1       1.268   8.534  20.568  0.00  0.00    +0.000 A 
ATOM      6  C   UNL     1       1.964   7.371  20.229  0.00  0.00    +0.000 A 
ENDROOT
BRANCH   1  12
ATOM      7  O   UNL     1       5.355   6.148  15.118  0.00  0.00    +0.000 OA
ATOM      8  C   UNL     1       5.652   4.959  15.273  0.00  0.00    +0.000 C 
ATOM      9  N   UNL     1       5.315   4.197  16.373  0.00  0.00    +0.000 N 
ATOM     10  C   UNL     1       4.568   4.714  17.397  0.00  0.00    +0.000 A 
ATOM     11  N   UNL     1       3.931   5.852  17.450  0.00  0.00    +0.000 NA
ATOM     12  C   UNL     1       3.311   6.007  18.679  0.00  0.00    +0.000 A 
ATOM     13  C   UNL     1       3.543   4.971  19.564  0.00  0.00    +0.000 A 
ATOM     14  S   UNL     1       4.468   3.737  18.791  0.00  0.00    +0.000 S 
ATOM     15  H   UNL     1       5.655   3.254  16.482  0.00  0.00    +0.000 HD
BRANCH   8  16
ATOM     16  C   UNL     1       6.487   4.212  14.205  0.00  0.00    +0.000 C 
ATOM     17  C   UNL     1       5.692   3.670  12.980  0.00  0.00    +0.000 C 
ATOM     18  C   UNL     1       6.955   3.910  12.136  0.00  0.00    +0.000 C 
ATOM     19  C   UNL     1       7.346   4.988  13.170  0.00  0.00    +0.000 C 
ENDBRANCH   8  16
ENDBRANCH   1  12
BRANCH   4  20
ATOM     20  S   UNL     1       0.254  11.055  20.069  0.00  0.00    +0.000 S 
ATOM     21  O   UNL     1      -1.158  10.888  19.792  0.00  0.00    +0.000 OA
ATOM     22  O   UNL     1       0.708  11.395  21.402  0.00  0.00    +0.000 OA
BRANCH  20  23
ATOM     23  N   UNL     1       0.862  12.224  19.019  0.00  0.00    +0.000 NA
ATOM     24  C   UNL     1       2.185  12.828  19.235  0.00  0.00    +0.000 C 
ATOM     25  C   UNL     1       1.875  14.284  19.523  0.00  0.00    +0.000 C 
ATOM     26  C   UNL     1       0.660  14.580  18.659  0.00  0.00    +0.000 C 
ATOM     27  C   UNL     1      -0.041  13.240  18.452  0.00  0.00    +0.000 C 
ENDBRANCH  20  23
ENDBRANCH   4  20
TORSDOF 4
ENDMDL
MODEL 5
REMARK VINA RESULT:      -8.6      1.688      2.151
REMARK  Name = 
REMARK  4 active torsions:
REMARK  status: ('A' for Active; 'I' for Inactive)
REMARK    1  A    between atoms: C_2  and  C_23
REMARK    2  A    between atoms: C_6  and  C_7
REMARK    3  A    between atoms: C_10  and  S_11
REMARK    4  A    between atoms: S_11  and  N_14
REMARK                            x       y       z     vdW  Elec       q    Type
REMARK                         _______ _______ _______ _____ _____    ______ ____
ROOT
ATOM      1  C   UNL     1       2.535   7.265  18.916  0.00  0.00    +0.000 A 
ATOM      2  C   UNL     1       1.991   7.560  20.176  0.00  0.00    +0.000 A 
ATOM      3  C   UNL     1       1.197   8.702  20.363  0.00  0.00    +0.000 A 
ATOM      4  C   UNL     1       0.930   9.555  19.286  0.00  0.00    +0.000 A 
ATOM      5  C   UNL     1       1.440   9.254  18.023  0.00  0.00    +0.000 A 
ATOM      6  C   UNL     1       2.257   8.133  17.849  0.00  0.00    +0.000 A 
ENDROOT
BRANCH   1  12
ATOM      7  O   UNL     1       5.386   6.149  15.108  0.00  0.00    +0.000 OA
ATOM      8  C   UNL     1       5.644   4.949  15.260  0.00  0.00    +0.000 C 
ATOM      9  N   UNL     1       5.274   4.192  16.352  0.00  0.00    +0.000 N 
ATOM     10  C   UNL     1       4.534   4.728  17.373  0.00  0.00    +0.000 A 
ATOM     11  N   UNL     1       3.933   5.885  17.427  0.00  0.00    +0.000 NA
ATOM     12  C   UNL     1       3.307   6.053  18.651  0.00  0.00    +0.000 A 
ATOM     13  C   UNL     1       3.499   5.005  19.532  0.00  0.00    +0.000 A 
ATOM     14  S   UNL     1       4.391   3.747  18.760  0.00  0.00    +0.000 S 
ATOM     15  H   UNL     1       5.582   3.239  16.459  0.00  0.00    +0.000 HD
BRANCH   8  16
ATOM     16  C   UNL     1       6.464   4.182  14.195  0.00  0.00    +0.000 C 
ATOM     17  C   UNL     1       5.653   3.622  12.988  0.00  0.00    +0.000 C 
ATOM     18  C   UNL     1       6.907   3.845  12.126  0.00  0.00    +0.000 C 
ATOM     19  C   UNL     1       7.313   4.938  13.137  0.00  0.00    +0.000 C 
ENDBRANCH   8  16
ENDBRANCH   1  12
BRANCH   4  20
ATOM     20  S   UNL     1      -0.198  10.928  19.488  0.00  0.00    +0.000 S 
ATOM     21  O   UNL     1      -1.390  10.600  18.733  0.00  0.00    +0.000 OA
ATOM     22  O   UNL     1      -0.279  11.217  20.905  0.00  0.00    +0.000 OA
BRANCH  20  23
ATOM     23  N   UNL     1       0.547  12.246  18.748  0.00  0.00    +0.000 NA
ATOM     24  C   UNL     1       1.861  12.729  19.198  0.00  0.00    +0.000 C 
ATOM     25  C   UNL     1       1.572  14.115  19.739  0.00  0.00    +0.000 C 
ATOM     26  C   UNL     1       0.457  14.634  18.846  0.00  0.00    +0.000 C 
ATOM     27  C   UNL     1      -0.263  13.398  18.316  0.00  0.00    +0.000 C 
ENDBRANCH  20  23
ENDBRANCH   4  20
TORSDOF 4
ENDMDL
MODEL 6
REMARK VINA RESULT:      -8.6      3.186      9.536
REMARK  Name = 
REMARK  4 active torsions:
REMARK  status: ('A' for Active; 'I' for Inactive)
REMARK    1  A    between atoms: C_2  and  C_23
REMARK    2  A    between atoms: C_6  and  C_7
REMARK    3  A    between atoms: C_10  and  S_11
REMARK    4  A    between atoms: S_11  and  N_14
REMARK                            x       y       z     vdW  Elec       q    Type
REMARK                         _______ _______ _______ _____ _____    ______ ____
ROOT
ATOM      1  C   UNL     1       2.172   8.057  18.822  0.00  0.00    +0.000 A 
ATOM      2  C   UNL     1       3.020   7.887  17.716  0.00  0.00    +0.000 A 
ATOM      3  C   UNL     1       3.870   6.773  17.629  0.00  0.00    +0.000 A 
ATOM      4  C   UNL     1       3.871   5.811  18.646  0.00  0.00    +0.000 A 
ATOM      5  C   UNL     1       3.010   5.954  19.734  0.00  0.00    +0.000 A 
ATOM      6  C   UNL     1       2.189   7.081  19.832  0.00  0.00    +0.000 A 
ENDROOT
BRANCH   1  12
ATOM      7  O   UNL     1       0.429  10.312  22.791  0.00  0.00    +0.000 OA
ATOM      8  C   UNL     1      -0.486  11.023  22.362  0.00  0.00    +0.000 C 
ATOM      9  N   UNL     1      -0.804  11.185  21.029  0.00  0.00    +0.000 N 
ATOM     10  C   UNL     1      -0.123  10.515  20.048  0.00  0.00    +0.000 A 
ATOM     11  N   UNL     1       0.745   9.548  20.169  0.00  0.00    +0.000 NA
ATOM     12  C   UNL     1       1.217   9.158  18.927  0.00  0.00    +0.000 A 
ATOM     13  C   UNL     1       0.713   9.897  17.873  0.00  0.00    +0.000 A 
ATOM     14  S   UNL     1      -0.455  11.025  18.454  0.00  0.00    +0.000 S 
ATOM     15  H   UNL     1      -1.508  11.843  20.733  0.00  0.00    +0.000 HD
BRANCH   8  16
ATOM     16  C   UNL     1      -1.364  11.845  23.336  0.00  0.00    +0.000 C 
ATOM     17  C   UNL     1      -1.225  13.393  23.233  0.00  0.00    +0.000 C 
ATOM     18  C   UNL     1      -2.703  13.489  23.643  0.00  0.00    +0.000 C 
ATOM     19  C   UNL     1      -2.876  12.070  23.061  0.00  0.00    +0.000 C 
ENDBRANCH   8  16
ENDBRANCH   1  12
BRANCH   4  20
ATOM     20  S   UNL     1       4.844   4.321  18.469  0.00  0.00    +0.000 S 
ATOM     21  O   UNL     1       5.613   4.469  17.251  0.00  0.00    +0.000 OA
ATOM     22  O   UNL     1       5.507   4.085  19.735  0.00  0.00    +0.000 OA
BRANCH  20  23
ATOM     23  N   UNL     1       3.735   3.073  18.244  0.00  0.00    +0.000 NA
ATOM     24  C   UNL     1       2.596   3.223  17.327  0.00  0.00    +0.000 C 
ATOM     25  C   UNL     1       1.386   3.163  18.239  0.00  0.00    +0.000 C 
ATOM     26  C   UNL     1       1.797   2.190  19.331  0.00  0.00    +0.000 C 
ATOM     27  C   UNL     1       3.321   2.246  19.390  0.00  0.00    +0.000 C 
ENDBRANCH  20  23
ENDBRANCH   4  20
TORSDOF 4
ENDMDL
MODEL 7
REMARK VINA RESULT:      -8.6      1.860      2.377
REMARK  Name = 
REMARK  4 active torsions:
REMARK  status: ('A' for Active; 'I' for Inactive)
REMARK    1  A    between atoms: C_2  and  C_23
REMARK    2  A    between atoms: C_6  and  C_7
REMARK    3  A    between atoms: C_10  and  S_11
REMARK    4  A    between atoms: S_11  and  N_14
REMARK                            x       y       z     vdW  Elec       q    Type
REMARK                         _______ _______ _______ _____ _____    ______ ____
ROOT
ATOM      1  C   UNL     1       2.602   7.342  18.946  0.00  0.00    +0.000 A 
ATOM      2  C   UNL     1       1.943   7.586  20.160  0.00  0.00    +0.000 A 
ATOM      3  C   UNL     1       1.178   8.750  20.339  0.00  0.00    +0.000 A 
ATOM      4  C   UNL     1       1.058   9.677  19.297  0.00  0.00    +0.000 A 
ATOM      5  C   UNL     1       1.685   9.429  18.075  0.00  0.00    +0.000 A 
ATOM      6  C   UNL     1       2.471   8.284  17.913  0.00  0.00    +0.000 A 
ENDROOT
BRANCH   1  12
ATOM      7  O   UNL     1       5.395   6.143  15.119  0.00  0.00    +0.000 OA
ATOM      8  C   UNL     1       5.632   4.941  15.279  0.00  0.00    +0.000 C 
ATOM      9  N   UNL     1       5.260   4.200  16.381  0.00  0.00    +0.000 N 
ATOM     10  C   UNL     1       4.540   4.757  17.404  0.00  0.00    +0.000 A 
ATOM     11  N   UNL     1       3.960   5.925  17.455  0.00  0.00    +0.000 NA
ATOM     12  C   UNL     1       3.350   6.114  18.683  0.00  0.00    +0.000 A 
ATOM     13  C   UNL     1       3.532   5.071  19.571  0.00  0.00    +0.000 A 
ATOM     14  S   UNL     1       4.393   3.790  18.801  0.00  0.00    +0.000 S 
ATOM     15  H   UNL     1       5.552   3.242  16.493  0.00  0.00    +0.000 HD
BRANCH   8  16
ATOM     16  C   UNL     1       6.428   4.150  14.212  0.00  0.00    +0.000 C 
ATOM     17  C   UNL     1       5.614   3.677  12.971  0.00  0.00    +0.000 C 
ATOM     18  C   UNL     1       6.901   3.840  12.145  0.00  0.00    +0.000 C 
ATOM     19  C   UNL     1       7.351   4.877  13.196  0.00  0.00    +0.000 C 
ENDBRANCH   8  16
ENDBRANCH   1  12
BRANCH   4  20
ATOM     20  S   UNL     1      -0.030  11.086  19.470  0.00  0.00    +0.000 S 
ATOM     21  O   UNL     1       0.458  12.102  18.560  0.00  0.00    +0.000 OA
ATOM     22  O   UNL     1      -1.389  10.597  19.368  0.00  0.00    +0.000 OA
BRANCH  20  23
ATOM     23  N   UNL     1       0.187  11.641  21.046  0.00  0.00    +0.000 NA
ATOM     24  C   UNL     1      -0.658  11.157  22.147  0.00  0.00    +0.000 C 
ATOM     25  C   UNL     1      -1.423  12.391  22.586  0.00  0.00    +0.000 C 
ATOM     26  C   UNL     1      -0.438  13.529  22.375  0.00  0.00    +0.000 C 
ATOM     27  C   UNL     1       0.519  13.057  21.284  0.00  0.00    +0.000 C 
ENDBRANCH  20  23
ENDBRANCH   4  20
TORSDOF 4
ENDMDL
MODEL 8
REMARK VINA RESULT:      -8.5      1.508      2.261
REMARK  Name = 
REMARK  4 active torsions:
REMARK  status: ('A' for Active; 'I' for Inactive)
REMARK    1  A    between atoms: C_2  and  C_23
REMARK    2  A    between atoms: C_6  and  C_7
REMARK    3  A    between atoms: C_10  and  S_11
REMARK    4  A    between atoms: S_11  and  N_14
REMARK                            x       y       z     vdW  Elec       q    Type
REMARK                         _______ _______ _______ _____ _____    ______ ____
ROOT
ATOM      1  C   UNL     1       2.336   7.384  18.865  0.00  0.00    +0.000 A 
ATOM      2  C   UNL     1       2.196   8.400  17.908  0.00  0.00    +0.000 A 
ATOM      3  C   UNL     1       1.624   9.635  18.253  0.00  0.00    +0.000 A 
ATOM      4  C   UNL     1       1.195   9.867  19.565  0.00  0.00    +0.000 A 
ATOM      5  C   UNL     1       1.358   8.874  20.531  0.00  0.00    +0.000 A 
ATOM      6  C   UNL     1       1.899   7.635  20.175  0.00  0.00    +0.000 A 
ENDROOT
BRANCH   1  12
ATOM      7  O   UNL     1       5.411   6.195  15.258  0.00  0.00    +0.000 OA
ATOM      8  C   UNL     1       5.516   4.966  15.338  0.00  0.00    +0.000 C 
ATOM      9  N   UNL     1       4.956   4.187  16.329  0.00  0.00    +0.000 N 
ATOM     10  C   UNL     1       4.182   4.736  17.316  0.00  0.00    +0.000 A 
ATOM     11  N   UNL     1       3.712   5.951  17.406  0.00  0.00    +0.000 NA
ATOM     12  C   UNL     1       2.990   6.109  18.577  0.00  0.00    +0.000 A 
ATOM     13  C   UNL     1       2.974   4.989  19.387  0.00  0.00    +0.000 A 
ATOM     14  S   UNL     1       3.792   3.688  18.603  0.00  0.00    +0.000 S 
ATOM     15  H   UNL     1       5.143   3.198  16.388  0.00  0.00    +0.000 HD
BRANCH   8  16
ATOM     16  C   UNL     1       6.347   4.180  14.295  0.00  0.00    +0.000 C 
ATOM     17  C   UNL     1       5.572   3.698  13.033  0.00  0.00    +0.000 C 
ATOM     18  C   UNL     1       6.879   3.870  12.243  0.00  0.00    +0.000 C 
ATOM     19  C   UNL     1       7.292   4.912  13.304  0.00  0.00    +0.000 C 
ENDBRANCH   8  16
ENDBRANCH   1  12
BRANCH   4  20
ATOM     20  S   UNL     1       0.600  11.485  20.041  0.00  0.00    +0.000 S 
ATOM     21  O   UNL     1       1.568  12.025  20.973  0.00  0.00    +0.000 OA
ATOM     22  O   UNL     1       0.270  12.199  18.825  0.00  0.00    +0.000 OA
BRANCH  20  23
ATOM     23  N   UNL     1      -0.841  11.217  20.873  0.00  0.00    +0.000 NA
ATOM     24  C   UNL     1      -2.069  11.946  20.523  0.00  0.00    +0.000 C 
ATOM     25  C   UNL     1      -2.355  12.785  21.753  0.00  0.00    +0.000 C 
ATOM     26  C   UNL     1      -1.883  11.917  22.908  0.00  0.00    +0.000 C 
ATOM     27  C   UNL     1      -0.815  10.995  22.328  0.00  0.00    +0.000 C 
ENDBRANCH  20  23
ENDBRANCH   4  20
TORSDOF 4
ENDMDL
MODEL 9
REMARK VINA RESULT:      -8.4      1.804      2.575
REMARK  Name = 
REMARK  4 active torsions:
REMARK  status: ('A' for Active; 'I' for Inactive)
REMARK    1  A    between atoms: C_2  and  C_23
REMARK    2  A    between atoms: C_6  and  C_7
REMARK    3  A    between atoms: C_10  and  S_11
REMARK    4  A    between atoms: S_11  and  N_14
REMARK                            x       y       z     vdW  Elec       q    Type
REMARK                         _______ _______ _______ _____ _____    ______ ____
ROOT
ATOM      1  C   UNL     1       2.411   7.467  18.813  0.00  0.00    +0.000 A 
ATOM      2  C   UNL     1       2.093   8.343  17.764  0.00  0.00    +0.000 A 
ATOM      3  C   UNL     1       1.294   9.475  17.993  0.00  0.00    +0.000 A 
ATOM      4  C   UNL     1       0.814   9.747  19.280  0.00  0.00    +0.000 A 
ATOM      5  C   UNL     1       1.151   8.899  20.336  0.00  0.00    +0.000 A 
ATOM      6  C   UNL     1       1.919   7.756  20.096  0.00  0.00    +0.000 A 
ENDROOT
BRANCH   1  12
ATOM      7  O   UNL     1       5.324   6.292  15.070  0.00  0.00    +0.000 OA
ATOM      8  C   UNL     1       5.699   5.142  15.324  0.00  0.00    +0.000 C 
ATOM      9  N   UNL     1       5.415   4.455  16.486  0.00  0.00    +0.000 N 
ATOM     10  C   UNL     1       4.636   5.007  17.468  0.00  0.00    +0.000 A 
ATOM     11  N   UNL     1       3.924   6.100  17.429  0.00  0.00    +0.000 NA
ATOM     12  C   UNL     1       3.296   6.317  18.644  0.00  0.00    +0.000 A 
ATOM     13  C   UNL     1       3.598   5.378  19.612  0.00  0.00    +0.000 A 
ATOM     14  S   UNL     1       4.603   4.147  18.940  0.00  0.00    +0.000 S 
ATOM     15  H   UNL     1       5.817   3.550  16.673  0.00  0.00    +0.000 HD
BRANCH   8  16
ATOM     16  C   UNL     1       6.581   4.364  14.318  0.00  0.00    +0.000 C 
ATOM     17  C   UNL     1       5.827   3.694  13.131  0.00  0.00    +0.000 C 
ATOM     18  C   UNL     1       7.083   3.938  12.279  0.00  0.00    +0.000 C 
ATOM     19  C   UNL     1       7.408   5.107  13.233  0.00  0.00    +0.000 C 
ENDBRANCH   8  16
ENDBRANCH   1  12
BRANCH   4  20
ATOM     20  S   UNL     1      -0.080  11.261  19.603  0.00  0.00    +0.000 S 
ATOM     21  O   UNL     1       0.606  12.311  18.878  0.00  0.00    +0.000 OA
ATOM     22  O   UNL     1      -1.483  10.995  19.362  0.00  0.00    +0.000 OA
BRANCH  20  23
ATOM     23  N   UNL     1       0.099  11.556  21.252  0.00  0.00    +0.000 NA
ATOM     24  C   UNL     1      -0.386  10.597  22.255  0.00  0.00    +0.000 C 
ATOM     25  C   UNL     1      -1.487  11.351  22.974  0.00  0.00    +0.000 C 
ATOM     26  C   UNL     1      -1.007  12.793  22.975  0.00  0.00    +0.000 C 
ATOM     27  C   UNL     1      -0.074  12.923  21.774  0.00  0.00    +0.000 C 
ENDBRANCH  20  23
ENDBRANCH   4  20
TORSDOF 4
ENDMDL
