MODEL 1
REMARK VINA RESULT:      -7.1      0.000      0.000
REMARK  Name = 
REMARK  8 active torsions:
REMARK  status: ('A' for Active; 'I' for Inactive)
REMARK    1  A    between atoms: C_1  and  N_2
REMARK    2  A    between atoms: N_2  and  C_3
REMARK    3  A    between atoms: N_2  and  C_4
REMARK    4  A    between atoms: C_4  and  C_5
REMARK    5  A    between atoms: C_10  and  C_11
REMARK    6  A    between atoms: C_11  and  N_12
REMARK    7  A    between atoms: C_16  and  C_17
REMARK    8  A    between atoms: N_20  and  C_21
REMARK                            x       y       z     vdW  Elec       q    Type
REMARK                         _______ _______ _______ _____ _____    ______ ____
ROOT
ATOM      1  C   UNL     1       4.265   5.449  17.106  0.00  0.00    +0.000 C 
ENDROOT
BRANCH   1   7
ATOM      2  C   UNL     1       2.411   5.136  19.002  0.00  0.00    +0.000 A 
ATOM      3  C   UNL     1       1.367   4.283  19.474  0.00  0.00    +0.000 A 
ATOM      4  C   UNL     1       1.128   3.027  18.931  0.00  0.00    +0.000 A 
ATOM      5  C   UNL     1       1.905   2.599  17.873  0.00  0.00    +0.000 A 
ATOM      6  C   UNL     1       2.871   3.453  17.339  0.00  0.00    +0.000 A 
ATOM      7  C   UNL     1       3.145   4.747  17.863  0.00  0.00    +0.000 A 
BRANCH   2   8
ATOM      8  C   UNL     1       2.692   6.319  19.921  0.00  0.00    +0.000 C 
BRANCH   8  10
ATOM      9  C   UNL     1       1.415   8.219  20.778  0.00  0.00    +0.000 C 
ATOM     10  N   UNL     1       1.779   7.434  19.601  0.00  0.00    +0.000 NA
ATOM     11  C   UNL     1       2.244   8.280  18.510  0.00  0.00    +0.000 C 
ENDBRANCH   8  10
ENDBRANCH   2   8
ENDBRANCH   1   7
BRANCH   1  12
ATOM     12  N   UNL     1       5.661   5.229  17.450  0.00  0.00    +0.000 N 
ATOM     13  C   UNL     1       6.051   4.936  18.741  0.00  0.00    +0.000 A 
ATOM     14  N   UNL     1       7.334   4.678  18.825  0.00  0.00    +0.000 NA
ATOM     15  C   UNL     1       7.759   4.634  17.527  0.00  0.00    +0.000 A 
ATOM     16  C   UNL     1       6.715   4.851  16.645  0.00  0.00    +0.000 A 
BRANCH  16  17
ATOM     17  C   UNL     1       6.781   4.568  15.191  0.00  0.00    +0.000 A 
ATOM     18  C   UNL     1       7.473   5.183  14.131  0.00  0.00    +0.000 A 
ATOM     19  N   UNL     1       7.101   4.707  12.935  0.00  0.00    +0.000 NA
ATOM     20  N   UNL     1       6.163   3.791  13.239  0.00  0.00    +0.000 N 
ATOM     21  C   UNL     1       5.356   3.171  12.211  0.00  0.00    +0.000 C 
ATOM     22  C   UNL     1       5.997   3.610  14.584  0.00  0.00    +0.000 A 
ENDBRANCH  16  17
ENDBRANCH   1  12
TORSDOF 5
ENDMDL
MODEL 2
REMARK VINA RESULT:      -6.9      1.057      2.779
REMARK  Name = 
REMARK  8 active torsions:
REMARK  status: ('A' for Active; 'I' for Inactive)
REMARK    1  A    between atoms: C_1  and  N_2
REMARK    2  A    between atoms: N_2  and  C_3
REMARK    3  A    between atoms: N_2  and  C_4
REMARK    4  A    between atoms: C_4  and  C_5
REMARK    5  A    between atoms: C_10  and  C_11
REMARK    6  A    between atoms: C_11  and  N_12
REMARK    7  A    between atoms: C_16  and  C_17
REMARK    8  A    between atoms: N_20  and  C_21
REMARK                            x       y       z     vdW  Elec       q    Type
REMARK                         _______ _______ _______ _____ _____    ______ ____
ROOT
ATOM      1  C   UNL     1       4.289   5.501  17.282  0.00  0.00    +0.000 C 
ENDROOT
BRANCH   1   7
ATOM      2  C   UNL     1       2.786   6.178  19.383  0.00  0.00    +0.000 A 
ATOM      3  C   UNL     1       2.034   7.236  19.978  0.00  0.00    +0.000 A 
ATOM      4  C   UNL     1       1.779   8.431  19.318  0.00  0.00    +0.000 A 
ATOM      5  C   UNL     1       2.300   8.619  18.054  0.00  0.00    +0.000 A 
ATOM      6  C   UNL     1       3.113   7.635  17.491  0.00  0.00    +0.000 A 
ATOM      7  C   UNL     1       3.402   6.399  18.133  0.00  0.00    +0.000 A 
BRANCH   2   8
ATOM      8  C   UNL     1       2.690   4.861  20.144  0.00  0.00    +0.000 C 
BRANCH   8  10
ATOM      9  C   UNL     1       1.410   3.634  18.461  0.00  0.00    +0.000 C 
ATOM     10  N   UNL     1       1.421   4.181  19.815  0.00  0.00    +0.000 NA
ATOM     11  C   UNL     1       1.014   3.189  20.801  0.00  0.00    +0.000 C 
ENDBRANCH   8  10
ENDBRANCH   2   8
ENDBRANCH   1   7
BRANCH   1  12
ATOM     12  N   UNL     1       5.692   5.301  17.608  0.00  0.00    +0.000 N 
ATOM     13  C   UNL     1       6.107   5.042  18.899  0.00  0.00    +0.000 A 
ATOM     14  N   UNL     1       7.393   4.797  18.967  0.00  0.00    +0.000 NA
ATOM     15  C   UNL     1       7.797   4.726  17.664  0.00  0.00    +0.000 A 
ATOM     16  C   UNL     1       6.737   4.913  16.795  0.00  0.00    +0.000 A 
BRANCH  16  17
ATOM     17  C   UNL     1       6.781   4.596  15.347  0.00  0.00    +0.000 A 
ATOM     18  C   UNL     1       7.526   5.127  14.277  0.00  0.00    +0.000 A 
ATOM     19  N   UNL     1       7.117   4.661  13.089  0.00  0.00    +0.000 NA
ATOM     20  N   UNL     1       6.102   3.836  13.408  0.00  0.00    +0.000 N 
ATOM     21  C   UNL     1       5.246   3.268  12.389  0.00  0.00    +0.000 C 
ATOM     22  C   UNL     1       5.918   3.697  14.755  0.00  0.00    +0.000 A 
ENDBRANCH  16  17
ENDBRANCH   1  12
TORSDOF 5
ENDMDL
MODEL 3
REMARK VINA RESULT:      -6.8      1.975      3.634
REMARK  Name = 
REMARK  8 active torsions:
REMARK  status: ('A' for Active; 'I' for Inactive)
REMARK    1  A    between atoms: C_1  and  N_2
REMARK    2  A    between atoms: N_2  and  C_3
REMARK    3  A    between atoms: N_2  and  C_4
REMARK    4  A    between atoms: C_4  and  C_5
REMARK    5  A    between atoms: C_10  and  C_11
REMARK    6  A    between atoms: C_11  and  N_12
REMARK    7  A    between atoms: C_16  and  C_17
REMARK    8  A    between atoms: N_20  and  C_21
REMARK                            x       y       z     vdW  Elec       q    Type
REMARK                         _______ _______ _______ _____ _____    ______ ____
ROOT
ATOM      1  C   UNL     1       5.090   4.054  18.738  0.00  0.00    +0.000 C 
ENDROOT
BRANCH   1   7
ATOM      2  C   UNL     1       2.604   4.810  19.359  0.00  0.00    +0.000 A 
ATOM      3  C   UNL     1       1.269   4.348  19.564  0.00  0.00    +0.000 A 
ATOM      4  C   UNL     1       0.944   2.998  19.596  0.00  0.00    +0.000 A 
ATOM      5  C   UNL     1       1.942   2.067  19.387  0.00  0.00    +0.000 A 
ATOM      6  C   UNL     1       3.237   2.499  19.096  0.00  0.00    +0.000 A 
ATOM      7  C   UNL     1       3.611   3.871  19.051  0.00  0.00    +0.000 A 
BRANCH   2   8
ATOM      8  C   UNL     1       2.788   6.293  19.660  0.00  0.00    +0.000 C 
BRANCH   8  10
ATOM      9  C   UNL     1       1.869   8.380  18.782  0.00  0.00    +0.000 C 
ATOM     10  N   UNL     1       2.479   7.094  18.459  0.00  0.00    +0.000 NA
ATOM     11  C   UNL     1       3.605   7.244  17.547  0.00  0.00    +0.000 C 
ENDBRANCH   8  10
ENDBRANCH   2   8
ENDBRANCH   1   7
BRANCH   1  12
ATOM     12  N   UNL     1       5.553   4.251  17.373  0.00  0.00    +0.000 N 
ATOM     13  C   UNL     1       4.788   3.876  16.287  0.00  0.00    +0.000 A 
ATOM     14  N   UNL     1       5.337   4.226  15.149  0.00  0.00    +0.000 NA
ATOM     15  C   UNL     1       6.404   5.000  15.508  0.00  0.00    +0.000 A 
ATOM     16  C   UNL     1       6.490   5.135  16.883  0.00  0.00    +0.000 A 
BRANCH  16  17
ATOM     17  C   UNL     1       7.335   6.143  17.568  0.00  0.00    +0.000 A 
ATOM     18  C   UNL     1       7.997   6.145  18.811  0.00  0.00    +0.000 A 
ATOM     19  N   UNL     1       8.506   7.347  19.115  0.00  0.00    +0.000 NA
ATOM     20  N   UNL     1       8.157   8.112  18.064  0.00  0.00    +0.000 N 
ATOM     21  C   UNL     1       8.347   9.546  18.081  0.00  0.00    +0.000 C 
ATOM     22  C   UNL     1       7.528   7.415  17.070  0.00  0.00    +0.000 A 
ENDBRANCH  16  17
ENDBRANCH   1  12
TORSDOF 5
ENDMDL
MODEL 4
REMARK VINA RESULT:      -6.8      2.245      6.053
REMARK  Name = 
REMARK  8 active torsions:
REMARK  status: ('A' for Active; 'I' for Inactive)
REMARK    1  A    between atoms: C_1  and  N_2
REMARK    2  A    between atoms: N_2  and  C_3
REMARK    3  A    between atoms: N_2  and  C_4
REMARK    4  A    between atoms: C_4  and  C_5
REMARK    5  A    between atoms: C_10  and  C_11
REMARK    6  A    between atoms: C_11  and  N_12
REMARK    7  A    between atoms: C_16  and  C_17
REMARK    8  A    between atoms: N_20  and  C_21
REMARK                            x       y       z     vdW  Elec       q    Type
REMARK                         _______ _______ _______ _____ _____    ______ ____
ROOT
ATOM      1  C   UNL     1       5.128   4.084  18.320  0.00  0.00    +0.000 C 
ENDROOT
BRANCH   1   7
ATOM      2  C   UNL     1       6.284   5.691  16.526  0.00  0.00    +0.000 A 
ATOM      3  C   UNL     1       6.777   5.771  15.189  0.00  0.00    +0.000 A 
ATOM      4  C   UNL     1       6.586   4.754  14.263  0.00  0.00    +0.000 A 
ATOM      5  C   UNL     1       5.926   3.607  14.657  0.00  0.00    +0.000 A 
ATOM      6  C   UNL     1       5.516   3.471  15.985  0.00  0.00    +0.000 A 
ATOM      7  C   UNL     1       5.694   4.487  16.965  0.00  0.00    +0.000 A 
BRANCH   2   8
ATOM      8  C   UNL     1       6.333   7.019  17.273  0.00  0.00    +0.000 C 
BRANCH   8  10
ATOM      9  C   UNL     1       7.985   8.723  17.857  0.00  0.00    +0.000 C 
ATOM     10  N   UNL     1       7.714   7.295  17.720  0.00  0.00    +0.000 NA
ATOM     11  C   UNL     1       8.105   6.554  18.912  0.00  0.00    +0.000 C 
ENDBRANCH   8  10
ENDBRANCH   2   8
ENDBRANCH   1   7
BRANCH   1  12
ATOM     12  N   UNL     1       3.740   3.676  18.465  0.00  0.00    +0.000 N 
ATOM     13  C   UNL     1       3.395   2.368  18.741  0.00  0.00    +0.000 A 
ATOM     14  N   UNL     1       2.105   2.225  18.930  0.00  0.00    +0.000 NA
ATOM     15  C   UNL     1       1.618   3.502  18.947  0.00  0.00    +0.000 A 
ATOM     16  C   UNL     1       2.631   4.431  18.785  0.00  0.00    +0.000 A 
BRANCH  16  17
ATOM     17  C   UNL     1       2.483   5.880  19.060  0.00  0.00    +0.000 A 
ATOM     18  C   UNL     1       2.063   6.597  20.197  0.00  0.00    +0.000 A 
ATOM     19  N   UNL     1       1.908   7.904  19.947  0.00  0.00    +0.000 NA
ATOM     20  N   UNL     1       2.223   8.015  18.644  0.00  0.00    +0.000 N 
ATOM     21  C   UNL     1       1.997   9.246  17.917  0.00  0.00    +0.000 C 
ATOM     22  C   UNL     1       2.657   6.844  18.088  0.00  0.00    +0.000 A 
ENDBRANCH  16  17
ENDBRANCH   1  12
TORSDOF 5
ENDMDL
MODEL 5
REMARK VINA RESULT:      -6.7      1.202      1.495
REMARK  Name = 
REMARK  8 active torsions:
REMARK  status: ('A' for Active; 'I' for Inactive)
REMARK    1  A    between atoms: C_1  and  N_2
REMARK    2  A    between atoms: N_2  and  C_3
REMARK    3  A    between atoms: N_2  and  C_4
REMARK    4  A    between atoms: C_4  and  C_5
REMARK    5  A    between atoms: C_10  and  C_11
REMARK    6  A    between atoms: C_11  and  N_12
REMARK    7  A    between atoms: C_16  and  C_17
REMARK    8  A    between atoms: N_20  and  C_21
REMARK                            x       y       z     vdW  Elec       q    Type
REMARK                         _______ _______ _______ _____ _____    ______ ____
ROOT
ATOM      1  C   UNL     1       5.627   3.978  18.637  0.00  0.00    +0.000 C 
ENDROOT
BRANCH   1   7
ATOM      2  C   UNL     1       3.099   4.816  18.838  0.00  0.00    +0.000 A 
ATOM      3  C   UNL     1       1.740   4.477  18.564  0.00  0.00    +0.000 A 
ATOM      4  C   UNL     1       1.363   3.222  18.105  0.00  0.00    +0.000 A 
ATOM      5  C   UNL     1       2.341   2.276  17.871  0.00  0.00    +0.000 A 
ATOM      6  C   UNL     1       3.684   2.616  18.047  0.00  0.00    +0.000 A 
ATOM      7  C   UNL     1       4.112   3.890  18.512  0.00  0.00    +0.000 A 
BRANCH   2   8
ATOM      8  C   UNL     1       3.257   6.121  19.610  0.00  0.00    +0.000 C 
BRANCH   8  10
ATOM      9  C   UNL     1       1.734   7.944  20.187  0.00  0.00    +0.000 C 
ATOM     10  N   UNL     1       2.288   7.120  19.116  0.00  0.00    +0.000 NA
ATOM     11  C   UNL     1       2.790   7.931  18.015  0.00  0.00    +0.000 C 
ENDBRANCH   8  10
ENDBRANCH   2   8
ENDBRANCH   1   7
BRANCH   1  12
ATOM     12  N   UNL     1       6.350   5.170  18.222  0.00  0.00    +0.000 N 
ATOM     13  C   UNL     1       7.280   5.775  19.043  0.00  0.00    +0.000 A 
ATOM     14  N   UNL     1       7.889   6.774  18.450  0.00  0.00    +0.000 NA
ATOM     15  C   UNL     1       7.467   6.710  17.153  0.00  0.00    +0.000 A 
ATOM     16  C   UNL     1       6.605   5.646  16.953  0.00  0.00    +0.000 A 
BRANCH  16  17
ATOM     17  C   UNL     1       6.220   5.125  15.619  0.00  0.00    +0.000 A 
ATOM     18  C   UNL     1       5.041   4.527  15.134  0.00  0.00    +0.000 A 
ATOM     19  N   UNL     1       5.191   4.040  13.894  0.00  0.00    +0.000 NA
ATOM     20  N   UNL     1       6.472   4.323  13.597  0.00  0.00    +0.000 N 
ATOM     21  C   UNL     1       7.104   3.791  12.409  0.00  0.00    +0.000 C 
ATOM     22  C   UNL     1       7.106   5.050  14.565  0.00  0.00    +0.000 A 
ENDBRANCH  16  17
ENDBRANCH   1  12
TORSDOF 5
ENDMDL
MODEL 6
REMARK VINA RESULT:      -6.7      2.304      7.546
REMARK  Name = 
REMARK  8 active torsions:
REMARK  status: ('A' for Active; 'I' for Inactive)
REMARK    1  A    between atoms: C_1  and  N_2
REMARK    2  A    between atoms: N_2  and  C_3
REMARK    3  A    between atoms: N_2  and  C_4
REMARK    4  A    between atoms: C_4  and  C_5
REMARK    5  A    between atoms: C_10  and  C_11
REMARK    6  A    between atoms: C_11  and  N_12
REMARK    7  A    between atoms: C_16  and  C_17
REMARK    8  A    between atoms: N_20  and  C_21
REMARK                            x       y       z     vdW  Elec       q    Type
REMARK                         _______ _______ _______ _____ _____    ______ ____
ROOT
ATOM      1  C   UNL     1       2.378   6.417  19.970  0.00  0.00    +0.000 C 
ENDROOT
BRANCH   1   7
ATOM      2  C   UNL     1       3.957   4.581  18.845  0.00  0.00    +0.000 A 
ATOM      3  C   UNL     1       3.979   3.301  18.211  0.00  0.00    +0.000 A 
ATOM      4  C   UNL     1       2.819   2.625  17.858  0.00  0.00    +0.000 A 
ATOM      5  C   UNL     1       1.598   3.192  18.162  0.00  0.00    +0.000 A 
ATOM      6  C   UNL     1       1.554   4.399  18.862  0.00  0.00    +0.000 A 
ATOM      7  C   UNL     1       2.718   5.123  19.244  0.00  0.00    +0.000 A 
BRANCH   2   8
ATOM      8  C   UNL     1       5.316   5.272  18.867  0.00  0.00    +0.000 C 
BRANCH   8  10
ATOM      9  C   UNL     1       5.704   6.247  16.659  0.00  0.00    +0.000 C 
ATOM     10  N   UNL     1       5.977   5.126  17.555  0.00  0.00    +0.000 NA
ATOM     11  C   UNL     1       7.403   4.840  17.643  0.00  0.00    +0.000 C 
ENDBRANCH   8  10
ENDBRANCH   2   8
ENDBRANCH   1   7
BRANCH   1  12
ATOM     12  N   UNL     1       2.228   7.670  19.247  0.00  0.00    +0.000 N 
ATOM     13  C   UNL     1       2.380   7.738  17.877  0.00  0.00    +0.000 A 
ATOM     14  N   UNL     1       2.109   8.932  17.406  0.00  0.00    +0.000 NA
ATOM     15  C   UNL     1       1.602   9.614  18.476  0.00  0.00    +0.000 A 
ATOM     16  C   UNL     1       1.548   8.815  19.605  0.00  0.00    +0.000 A 
BRANCH  16  17
ATOM     17  C   UNL     1       0.779   9.152  20.828  0.00  0.00    +0.000 A 
ATOM     18  C   UNL     1       0.012   8.374  21.716  0.00  0.00    +0.000 A 
ATOM     19  N   UNL     1      -0.664   9.124  22.597  0.00  0.00    +0.000 NA
ATOM     20  N   UNL     1      -0.330  10.383  22.260  0.00  0.00    +0.000 N 
ATOM     21  C   UNL     1      -1.002  11.522  22.847  0.00  0.00    +0.000 C 
ATOM     22  C   UNL     1       0.600  10.449  21.260  0.00  0.00    +0.000 A 
ENDBRANCH  16  17
ENDBRANCH   1  12
TORSDOF 5
ENDMDL
MODEL 7
REMARK VINA RESULT:      -6.7      1.379      2.948
REMARK  Name = 
REMARK  8 active torsions:
REMARK  status: ('A' for Active; 'I' for Inactive)
REMARK    1  A    between atoms: C_1  and  N_2
REMARK    2  A    between atoms: N_2  and  C_3
REMARK    3  A    between atoms: N_2  and  C_4
REMARK    4  A    between atoms: C_4  and  C_5
REMARK    5  A    between atoms: C_10  and  C_11
REMARK    6  A    between atoms: C_11  and  N_12
REMARK    7  A    between atoms: C_16  and  C_17
REMARK    8  A    between atoms: N_20  and  C_21
REMARK                            x       y       z     vdW  Elec       q    Type
REMARK                         _______ _______ _______ _____ _____    ______ ____
ROOT
ATOM      1  C   UNL     1       4.209   5.340  17.394  0.00  0.00    +0.000 C 
ENDROOT
BRANCH   1   7
ATOM      2  C   UNL     1       2.455   4.735  19.314  0.00  0.00    +0.000 A 
ATOM      3  C   UNL     1       1.629   5.280  20.344  0.00  0.00    +0.000 A 
ATOM      4  C   UNL     1       1.451   6.647  20.511  0.00  0.00    +0.000 A 
ATOM      5  C   UNL     1       2.124   7.515  19.674  0.00  0.00    +0.000 A 
ATOM      6  C   UNL     1       3.005   7.005  18.719  0.00  0.00    +0.000 A 
ATOM      7  C   UNL     1       3.219   5.613  18.517  0.00  0.00    +0.000 A 
BRANCH   2   8
ATOM      8  C   UNL     1       2.272   3.235  19.118  0.00  0.00    +0.000 C 
BRANCH   8  10
ATOM      9  C   UNL     1       4.060   2.303  20.499  0.00  0.00    +0.000 C 
ATOM     10  N   UNL     1       3.585   2.560  19.142  0.00  0.00    +0.000 NA
ATOM     11  C   UNL     1       3.647   1.364  18.313  0.00  0.00    +0.000 C 
ENDBRANCH   8  10
ENDBRANCH   2   8
ENDBRANCH   1   7
BRANCH   1  12
ATOM     12  N   UNL     1       5.633   5.207  17.660  0.00  0.00    +0.000 N 
ATOM     13  C   UNL     1       6.113   4.966  18.932  0.00  0.00    +0.000 A 
ATOM     14  N   UNL     1       7.411   4.782  18.945  0.00  0.00    +0.000 NA
ATOM     15  C   UNL     1       7.763   4.733  17.626  0.00  0.00    +0.000 A 
ATOM     16  C   UNL     1       6.660   4.871  16.803  0.00  0.00    +0.000 A 
BRANCH  16  17
ATOM     17  C   UNL     1       6.659   4.559  15.353  0.00  0.00    +0.000 A 
ATOM     18  C   UNL     1       7.394   5.071  14.267  0.00  0.00    +0.000 A 
ATOM     19  N   UNL     1       6.942   4.623  13.088  0.00  0.00    +0.000 NA
ATOM     20  N   UNL     1       5.909   3.830  13.429  0.00  0.00    +0.000 N 
ATOM     21  C   UNL     1       5.011   3.295  12.428  0.00  0.00    +0.000 C 
ATOM     22  C   UNL     1       5.753   3.691  14.779  0.00  0.00    +0.000 A 
ENDBRANCH  16  17
ENDBRANCH   1  12
TORSDOF 5
ENDMDL
MODEL 8
REMARK VINA RESULT:      -6.6      2.263      6.123
REMARK  Name = 
REMARK  8 active torsions:
REMARK  status: ('A' for Active; 'I' for Inactive)
REMARK    1  A    between atoms: C_1  and  N_2
REMARK    2  A    between atoms: N_2  and  C_3
REMARK    3  A    between atoms: N_2  and  C_4
REMARK    4  A    between atoms: C_4  and  C_5
REMARK    5  A    between atoms: C_10  and  C_11
REMARK    6  A    between atoms: C_11  and  N_12
REMARK    7  A    between atoms: C_16  and  C_17
REMARK    8  A    between atoms: N_20  and  C_21
REMARK                            x       y       z     vdW  Elec       q    Type
REMARK                         _______ _______ _______ _____ _____    ______ ____
ROOT
ATOM      1  C   UNL     1       4.849   3.817  18.629  0.00  0.00    +0.000 C 
ENDROOT
BRANCH   1   7
ATOM      2  C   UNL     1       6.818   4.404  16.921  0.00  0.00    +0.000 A 
ATOM      3  C   UNL     1       7.137   4.602  15.544  0.00  0.00    +0.000 A 
ATOM      4  C   UNL     1       6.165   4.648  14.553  0.00  0.00    +0.000 A 
ATOM      5  C   UNL     1       4.844   4.461  14.905  0.00  0.00    +0.000 A 
ATOM      6  C   UNL     1       4.519   4.176  16.233  0.00  0.00    +0.000 A 
ATOM      7  C   UNL     1       5.483   4.117  17.277  0.00  0.00    +0.000 A 
BRANCH   2   8
ATOM      8  C   UNL     1       7.982   4.688  17.863  0.00  0.00    +0.000 C 
BRANCH   8  10
ATOM      9  C   UNL     1       8.207   5.645  20.101  0.00  0.00    +0.000 C 
ATOM     10  N   UNL     1       7.639   5.806  18.765  0.00  0.00    +0.000 NA
ATOM     11  C   UNL     1       7.930   7.121  18.210  0.00  0.00    +0.000 C 
ENDBRANCH   8  10
ENDBRANCH   2   8
ENDBRANCH   1   7
BRANCH   1  12
ATOM     12  N   UNL     1       3.432   3.514  18.746  0.00  0.00    +0.000 N 
ATOM     13  C   UNL     1       2.986   2.247  19.063  0.00  0.00    +0.000 A 
ATOM     14  N   UNL     1       1.684   2.203  19.216  0.00  0.00    +0.000 NA
ATOM     15  C   UNL     1       1.290   3.510  19.165  0.00  0.00    +0.000 A 
ATOM     16  C   UNL     1       2.371   4.358  18.997  0.00  0.00    +0.000 A 
BRANCH  16  17
ATOM     17  C   UNL     1       2.319   5.825  19.208  0.00  0.00    +0.000 A 
ATOM     18  C   UNL     1       1.968   6.617  20.318  0.00  0.00    +0.000 A 
ATOM     19  N   UNL     1       1.890   7.919  20.011  0.00  0.00    +0.000 NA
ATOM     20  N   UNL     1       2.185   7.951  18.699  0.00  0.00    +0.000 N 
ATOM     21  C   UNL     1       2.022   9.160  17.920  0.00  0.00    +0.000 C 
ATOM     22  C   UNL     1       2.534   6.731  18.190  0.00  0.00    +0.000 A 
ENDBRANCH  16  17
ENDBRANCH   1  12
TORSDOF 5
ENDMDL
MODEL 9
REMARK VINA RESULT:      -6.6      1.361      3.075
REMARK  Name = 
REMARK  8 active torsions:
REMARK  status: ('A' for Active; 'I' for Inactive)
REMARK    1  A    between atoms: C_1  and  N_2
REMARK    2  A    between atoms: N_2  and  C_3
REMARK    3  A    between atoms: N_2  and  C_4
REMARK    4  A    between atoms: C_4  and  C_5
REMARK    5  A    between atoms: C_10  and  C_11
REMARK    6  A    between atoms: C_11  and  N_12
REMARK    7  A    between atoms: C_16  and  C_17
REMARK    8  A    between atoms: N_20  and  C_21
REMARK                            x       y       z     vdW  Elec       q    Type
REMARK                         _______ _______ _______ _____ _____    ______ ____
ROOT
ATOM      1  C   UNL     1       4.133   6.036  17.591  0.00  0.00    +0.000 C 
ENDROOT
BRANCH   1   7
ATOM      2  C   UNL     1       2.689   5.183  19.670  0.00  0.00    +0.000 A 
ATOM      3  C   UNL     1       1.839   5.598  20.739  0.00  0.00    +0.000 A 
ATOM      4  C   UNL     1       1.381   6.903  20.864  0.00  0.00    +0.000 A 
ATOM      5  C   UNL     1       1.790   7.844  19.941  0.00  0.00    +0.000 A 
ATOM      6  C   UNL     1       2.692   7.480  18.940  0.00  0.00    +0.000 A 
ATOM      7  C   UNL     1       3.187   6.156  18.778  0.00  0.00    +0.000 A 
BRANCH   2   8
ATOM      8  C   UNL     1       2.822   3.669  19.550  0.00  0.00    +0.000 C 
BRANCH   8  10
ATOM      9  C   UNL     1       2.773   2.336  17.502  0.00  0.00    +0.000 C 
ATOM     10  N   UNL     1       2.010   3.180  18.417  0.00  0.00    +0.000 NA
ATOM     11  C   UNL     1       0.760   2.550  18.818  0.00  0.00    +0.000 C 
ENDBRANCH   8  10
ENDBRANCH   2   8
ENDBRANCH   1   7
BRANCH   1  12
ATOM     12  N   UNL     1       5.516   5.623  17.768  0.00  0.00    +0.000 N 
ATOM     13  C   UNL     1       6.032   5.336  19.015  0.00  0.00    +0.000 A 
ATOM     14  N   UNL     1       7.264   4.889  18.951  0.00  0.00    +0.000 NA
ATOM     15  C   UNL     1       7.496   4.719  17.616  0.00  0.00    +0.000 A 
ATOM     16  C   UNL     1       6.384   5.050  16.862  0.00  0.00    +0.000 A 
BRANCH  16  17
ATOM     17  C   UNL     1       6.208   4.690  15.434  0.00  0.00    +0.000 A 
ATOM     18  C   UNL     1       5.327   3.814  14.774  0.00  0.00    +0.000 A 
ATOM     19  N   UNL     1       5.637   3.659  13.479  0.00  0.00    +0.000 NA
ATOM     20  N   UNL     1       6.726   4.434  13.322  0.00  0.00    +0.000 N 
ATOM     21  C   UNL     1       7.503   4.400  12.102  0.00  0.00    +0.000 C 
ATOM     22  C   UNL     1       7.056   5.140  14.444  0.00  0.00    +0.000 A 
ENDBRANCH  16  17
ENDBRANCH   1  12
TORSDOF 5
ENDMDL
