MODEL 1
REMARK VINA RESULT:      -8.6      0.000      0.000
REMARK  Name = 
REMARK  3 active torsions:
REMARK  status: ('A' for Active; 'I' for Inactive)
REMARK    1  A    between atoms: C_4  and  C_5
REMARK    2  A    between atoms: C_8  and  C_9
REMARK    3  A    between atoms: C_10  and  C_11
REMARK                            x       y       z     vdW  Elec       q    Type
REMARK                         _______ _______ _______ _____ _____    ______ ____
ROOT
ATOM      1  C   UNL     1       6.288   5.814  17.570  0.00  0.00    +0.000 A 
ATOM      2  N   UNL     1       7.099   5.630  16.549  0.00  0.00    +0.000 NA
ATOM      3  N   UNL     1       7.870   6.763  16.456  0.00  0.00    +0.000 NA
ATOM      4  C   UNL     1       7.502   7.587  17.426  0.00  0.00    +0.000 A 
ATOM      5  O   UNL     1       6.480   7.030  18.169  0.00  0.00    +0.000 OA
ENDROOT
BRANCH   1   9
ATOM      6 BR   UNL     1       1.804   2.866  18.149  0.00  0.00    +0.000 Br
ATOM      7  C   UNL     1       3.540   3.545  18.351  0.00  0.00    +0.000 A 
ATOM      8  C   UNL     1       4.042   4.617  17.581  0.00  0.00    +0.000 A 
ATOM      9  C   UNL     1       5.338   4.847  18.001  0.00  0.00    +0.000 A 
ATOM     10  N   UNL     1       5.622   3.936  18.992  0.00  0.00    +0.000 N 
ATOM     11  C   UNL     1       4.528   3.147  19.215  0.00  0.00    +0.000 A 
ATOM     12 BR   UNL     1       4.453   1.790  20.488  0.00  0.00    +0.000 Br
ATOM     13  H   UNL     1       6.504   3.872  19.486  0.00  0.00    +0.000 HD
ENDBRANCH   1   9
BRANCH   4  14
ATOM     14  C   UNL     1       8.091   8.855  17.672  0.00  0.00    +0.000 C 
ATOM     15  C   UNL     1       8.720   9.175  18.813  0.00  0.00    +0.000 C 
BRANCH  15  16
ATOM     16  C   UNL     1       9.379  10.454  19.059  0.00  0.00    +0.000 C 
ATOM     17  C   UNL     1       9.752  11.259  18.051  0.00  0.00    +0.000 C 
ATOM     18  O   UNL     1      10.319  12.510  18.197  0.00  0.00    +0.000 OA
ATOM     19  C   UNL     1      10.189  13.122  19.425  0.00  0.00    +0.000 A 
ATOM     20  C   UNL     1      10.398  14.496  19.491  0.00  0.00    +0.000 A 
ATOM     21  C   UNL     1      10.191  15.171  20.696  0.00  0.00    +0.000 A 
ATOM     22  C   UNL     1       9.793  14.466  21.834  0.00  0.00    +0.000 A 
ATOM     23  C   UNL     1       9.620  13.085  21.774  0.00  0.00    +0.000 A 
ATOM     24  C   UNL     1       9.813  12.407  20.564  0.00  0.00    +0.000 A 
ATOM     25  C   UNL     1       9.625  10.919  20.477  0.00  0.00    +0.000 C 
ENDBRANCH  15  16
ENDBRANCH   4  14
TORSDOF 3
ENDMDL
MODEL 2
REMARK VINA RESULT:      -8.5      0.959      1.021
REMARK  Name = 
REMARK  3 active torsions:
REMARK  status: ('A' for Active; 'I' for Inactive)
REMARK    1  A    between atoms: C_4  and  C_5
REMARK    2  A    between atoms: C_8  and  C_9
REMARK    3  A    between atoms: C_10  and  C_11
REMARK                            x       y       z     vdW  Elec       q    Type
REMARK                         _______ _______ _______ _____ _____    ______ ____
ROOT
ATOM      1  C   UNL     1       6.006   6.156  17.665  0.00  0.00    +0.000 A 
ATOM      2  N   UNL     1       6.870   5.832  16.726  0.00  0.00    +0.000 NA
ATOM      3  N   UNL     1       7.737   6.892  16.610  0.00  0.00    +0.000 NA
ATOM      4  C   UNL     1       7.368   7.815  17.486  0.00  0.00    +0.000 A 
ATOM      5  O   UNL     1       6.253   7.397  18.187  0.00  0.00    +0.000 OA
ENDROOT
BRANCH   1   9
ATOM      6 BR   UNL     1       2.348   2.197  17.940  0.00  0.00    +0.000 Br
ATOM      7  C   UNL     1       3.380   3.714  18.330  0.00  0.00    +0.000 A 
ATOM      8  C   UNL     1       4.423   4.171  17.495  0.00  0.00    +0.000 A 
ATOM      9  C   UNL     1       4.952   5.301  18.089  0.00  0.00    +0.000 A 
ATOM     10  N   UNL     1       4.257   5.523  19.255  0.00  0.00    +0.000 N 
ATOM     11  C   UNL     1       3.294   4.564  19.402  0.00  0.00    +0.000 A 
ATOM     12 BR   UNL     1       2.099   4.485  20.829  0.00  0.00    +0.000 Br
ATOM     13  H   UNL     1       4.430   6.286  19.897  0.00  0.00    +0.000 HD
ENDBRANCH   1   9
BRANCH   4  14
ATOM     14  C   UNL     1       8.040   9.050  17.684  0.00  0.00    +0.000 C 
ATOM     15  C   UNL     1       8.796   9.322  18.759  0.00  0.00    +0.000 C 
BRANCH  15  16
ATOM     16  C   UNL     1       9.538  10.565  18.951  0.00  0.00    +0.000 C 
ATOM     17  C   UNL     1      10.000  11.275  17.909  0.00  0.00    +0.000 C 
ATOM     18  O   UNL     1      10.652  12.491  17.999  0.00  0.00    +0.000 OA
ATOM     19  C   UNL     1      10.526  13.187  19.181  0.00  0.00    +0.000 A 
ATOM     20  C   UNL     1      10.832  14.545  19.171  0.00  0.00    +0.000 A 
ATOM     21  C   UNL     1      10.635  15.308  20.323  0.00  0.00    +0.000 A 
ATOM     22  C   UNL     1      10.151  14.708  21.487  0.00  0.00    +0.000 A 
ATOM     23  C   UNL     1       9.880  13.341  21.506  0.00  0.00    +0.000 A 
ATOM     24  C   UNL     1      10.062  12.574  20.348  0.00  0.00    +0.000 A 
ATOM     25  C   UNL     1       9.770  11.101  20.346  0.00  0.00    +0.000 C 
ENDBRANCH  15  16
ENDBRANCH   4  14
TORSDOF 3
ENDMDL
MODEL 3
REMARK VINA RESULT:      -8.3      1.476      1.949
REMARK  Name = 
REMARK  3 active torsions:
REMARK  status: ('A' for Active; 'I' for Inactive)
REMARK    1  A    between atoms: C_4  and  C_5
REMARK    2  A    between atoms: C_8  and  C_9
REMARK    3  A    between atoms: C_10  and  C_11
REMARK                            x       y       z     vdW  Elec       q    Type
REMARK                         _______ _______ _______ _____ _____    ______ ____
ROOT
ATOM      1  C   UNL     1       6.134   5.579  17.760  0.00  0.00    +0.000 A 
ATOM      2  N   UNL     1       6.519   5.754  16.513  0.00  0.00    +0.000 NA
ATOM      3  N   UNL     1       7.399   6.809  16.522  0.00  0.00    +0.000 NA
ATOM      4  C   UNL     1       7.517   7.229  17.774  0.00  0.00    +0.000 A 
ATOM      5  O   UNL     1       6.717   6.477  18.612  0.00  0.00    +0.000 OA
ENDROOT
BRANCH   1   9
ATOM      6 BR   UNL     1       1.806   2.386  18.215  0.00  0.00    +0.000 Br
ATOM      7  C   UNL     1       3.495   3.160  18.465  0.00  0.00    +0.000 A 
ATOM      8  C   UNL     1       3.958   4.260  17.709  0.00  0.00    +0.000 A 
ATOM      9  C   UNL     1       5.227   4.560  18.164  0.00  0.00    +0.000 A 
ATOM     10  N   UNL     1       5.534   3.665  19.164  0.00  0.00    +0.000 N 
ATOM     11  C   UNL     1       4.479   2.817  19.356  0.00  0.00    +0.000 A 
ATOM     12 BR   UNL     1       4.444   1.455  20.626  0.00  0.00    +0.000 Br
ATOM     13  H   UNL     1       6.403   3.649  19.681  0.00  0.00    +0.000 HD
ENDBRANCH   1   9
BRANCH   4  14
ATOM     14  C   UNL     1       8.363   8.291  18.190  0.00  0.00    +0.000 C 
ATOM     15  C   UNL     1       8.157   9.577  17.865  0.00  0.00    +0.000 C 
BRANCH  15  16
ATOM     16  C   UNL     1       8.984  10.686  18.331  0.00  0.00    +0.000 C 
ATOM     17  C   UNL     1       9.904  10.520  19.295  0.00  0.00    +0.000 C 
ATOM     18  O   UNL     1      10.771  11.497  19.747  0.00  0.00    +0.000 OA
ATOM     19  C   UNL     1      10.947  12.603  18.944  0.00  0.00    +0.000 A 
ATOM     20  C   UNL     1      12.068  13.397  19.170  0.00  0.00    +0.000 A 
ATOM     21  C   UNL     1      12.333  14.476  18.325  0.00  0.00    +0.000 A 
ATOM     22  C   UNL     1      11.467  14.770  17.269  0.00  0.00    +0.000 A 
ATOM     23  C   UNL     1      10.326  13.996  17.069  0.00  0.00    +0.000 A 
ATOM     24  C   UNL     1      10.064  12.903  17.905  0.00  0.00    +0.000 A 
ATOM     25  C   UNL     1       8.843  12.053  17.701  0.00  0.00    +0.000 C 
ENDBRANCH  15  16
ENDBRANCH   4  14
TORSDOF 3
ENDMDL
MODEL 4
REMARK VINA RESULT:      -7.9      1.726      2.108
REMARK  Name = 
REMARK  3 active torsions:
REMARK  status: ('A' for Active; 'I' for Inactive)
REMARK    1  A    between atoms: C_4  and  C_5
REMARK    2  A    between atoms: C_8  and  C_9
REMARK    3  A    between atoms: C_10  and  C_11
REMARK                            x       y       z     vdW  Elec       q    Type
REMARK                         _______ _______ _______ _____ _____    ______ ____
ROOT
ATOM      1  C   UNL     1       6.143   5.974  17.887  0.00  0.00    +0.000 A 
ATOM      2  N   UNL     1       6.614   5.879  16.661  0.00  0.00    +0.000 NA
ATOM      3  N   UNL     1       7.588   6.840  16.542  0.00  0.00    +0.000 NA
ATOM      4  C   UNL     1       7.674   7.477  17.701  0.00  0.00    +0.000 A 
ATOM      5  O   UNL     1       6.760   6.965  18.601  0.00  0.00    +0.000 OA
ENDROOT
BRANCH   1   9
ATOM      6 BR   UNL     1       1.900   4.055  20.614  0.00  0.00    +0.000 Br
ATOM      7  C   UNL     1       3.383   4.195  19.476  0.00  0.00    +0.000 A 
ATOM      8  C   UNL     1       4.105   5.396  19.297  0.00  0.00    +0.000 A 
ATOM      9  C   UNL     1       5.123   5.127  18.401  0.00  0.00    +0.000 A 
ATOM     10  N   UNL     1       5.020   3.804  18.039  0.00  0.00    +0.000 N 
ATOM     11  C   UNL     1       3.968   3.231  18.697  0.00  0.00    +0.000 A 
ATOM     12 BR   UNL     1       3.470   1.444  18.527  0.00  0.00    +0.000 Br
ATOM     13  H   UNL     1       5.638   3.331  17.392  0.00  0.00    +0.000 HD
ENDBRANCH   1   9
BRANCH   4  14
ATOM     14  C   UNL     1       8.592   8.524  17.978  0.00  0.00    +0.000 C 
ATOM     15  C   UNL     1       8.229   9.805  18.149  0.00  0.00    +0.000 C 
BRANCH  15  16
ATOM     16  C   UNL     1       9.152  10.883  18.489  0.00  0.00    +0.000 C 
ATOM     17  C   UNL     1      10.319  10.641  19.109  0.00  0.00    +0.000 C 
ATOM     18  O   UNL     1      11.276  11.592  19.408  0.00  0.00    +0.000 OA
ATOM     19  C   UNL     1      11.200  12.794  18.739  0.00  0.00    +0.000 A 
ATOM     20  C   UNL     1      12.333  13.602  18.724  0.00  0.00    +0.000 A 
ATOM     21  C   UNL     1      12.330  14.787  17.986  0.00  0.00    +0.000 A 
ATOM     22  C   UNL     1      11.187  15.169  17.280  0.00  0.00    +0.000 A 
ATOM     23  C   UNL     1      10.041  14.377  17.326  0.00  0.00    +0.000 A 
ATOM     24  C   UNL     1      10.045  13.181  18.054  0.00  0.00    +0.000 A 
ATOM     25  C   UNL     1       8.823  12.310  18.111  0.00  0.00    +0.000 C 
ENDBRANCH  15  16
ENDBRANCH   4  14
TORSDOF 3
ENDMDL
MODEL 5
REMARK VINA RESULT:      -7.9      2.326      3.254
REMARK  Name = 
REMARK  3 active torsions:
REMARK  status: ('A' for Active; 'I' for Inactive)
REMARK    1  A    between atoms: C_4  and  C_5
REMARK    2  A    between atoms: C_8  and  C_9
REMARK    3  A    between atoms: C_10  and  C_11
REMARK                            x       y       z     vdW  Elec       q    Type
REMARK                         _______ _______ _______ _____ _____    ______ ____
ROOT
ATOM      1  C   UNL     1       7.466   7.455  17.665  0.00  0.00    +0.000 A 
ATOM      2  N   UNL     1       8.248   7.309  18.715  0.00  0.00    +0.000 NA
ATOM      3  N   UNL     1       8.843   8.528  18.929  0.00  0.00    +0.000 NA
ATOM      4  C   UNL     1       8.396   9.367  18.006  0.00  0.00    +0.000 A 
ATOM      5  O   UNL     1       7.512   8.726  17.159  0.00  0.00    +0.000 OA
ENDROOT
BRANCH   1   9
ATOM      6 BR   UNL     1       3.781   3.555  17.079  0.00  0.00    +0.000 Br
ATOM      7  C   UNL     1       5.181   4.761  16.757  0.00  0.00    +0.000 A 
ATOM      8  C   UNL     1       5.623   5.700  17.714  0.00  0.00    +0.000 A 
ATOM      9  C   UNL     1       6.660   6.408  17.137  0.00  0.00    +0.000 A 
ATOM     10  N   UNL     1       6.840   5.921  15.863  0.00  0.00    +0.000 N 
ATOM     11  C   UNL     1       5.947   4.912  15.630  0.00  0.00    +0.000 A 
ATOM     12 BR   UNL     1       5.844   3.946  14.041  0.00  0.00    +0.000 Br
ATOM     13  H   UNL     1       7.535   6.254  15.208  0.00  0.00    +0.000 HD
ENDBRANCH   1   9
BRANCH   4  14
ATOM     14  C   UNL     1       8.763  10.736  17.915  0.00  0.00    +0.000 C 
ATOM     15  C   UNL     1       9.972  11.206  18.260  0.00  0.00    +0.000 C 
BRANCH  15  16
ATOM     16  C   UNL     1      10.383  12.599  18.120  0.00  0.00    +0.000 C 
ATOM     17  C   UNL     1      11.143  13.008  17.091  0.00  0.00    +0.000 C 
ATOM     18  O   UNL     1      11.521  14.315  16.848  0.00  0.00    +0.000 OA
ATOM     19  C   UNL     1      10.811  15.306  17.489  0.00  0.00    +0.000 A 
ATOM     20  C   UNL     1      10.903  16.601  16.986  0.00  0.00    +0.000 A 
ATOM     21  C   UNL     1      10.132  17.619  17.549  0.00  0.00    +0.000 A 
ATOM     22  C   UNL     1       9.285  17.344  18.625  0.00  0.00    +0.000 A 
ATOM     23  C   UNL     1       9.223  16.055  19.151  0.00  0.00    +0.000 A 
ATOM     24  C   UNL     1       9.983  15.027  18.579  0.00  0.00    +0.000 A 
ATOM     25  C   UNL     1       9.924  13.630  19.127  0.00  0.00    +0.000 C 
ENDBRANCH  15  16
ENDBRANCH   4  14
TORSDOF 3
ENDMDL
MODEL 6
REMARK VINA RESULT:      -7.9      5.633     10.037
REMARK  Name = 
REMARK  3 active torsions:
REMARK  status: ('A' for Active; 'I' for Inactive)
REMARK    1  A    between atoms: C_4  and  C_5
REMARK    2  A    between atoms: C_8  and  C_9
REMARK    3  A    between atoms: C_10  and  C_11
REMARK                            x       y       z     vdW  Elec       q    Type
REMARK                         _______ _______ _______ _____ _____    ______ ____
ROOT
ATOM      1  C   UNL     1       9.776  12.834  18.251  0.00  0.00    +0.000 A 
ATOM      2  N   UNL     1      10.758  12.202  17.643  0.00  0.00    +0.000 NA
ATOM      3  N   UNL     1      10.451  10.864  17.697  0.00  0.00    +0.000 NA
ATOM      4  C   UNL     1       9.294  10.737  18.330  0.00  0.00    +0.000 A 
ATOM      5  O   UNL     1       8.818  11.975  18.717  0.00  0.00    +0.000 OA
ENDROOT
BRANCH   1   9
ATOM      6 BR   UNL     1       8.258  17.855  19.523  0.00  0.00    +0.000 Br
ATOM      7  C   UNL     1       9.208  16.389  18.841  0.00  0.00    +0.000 A 
ATOM      8  C   UNL     1       8.793  15.052  19.022  0.00  0.00    +0.000 A 
ATOM      9  C   UNL     1       9.721  14.249  18.387  0.00  0.00    +0.000 A 
ATOM     10  N   UNL     1      10.678  15.072  17.840  0.00  0.00    +0.000 N 
ATOM     11  C   UNL     1      10.365  16.376  18.106  0.00  0.00    +0.000 A 
ATOM     12 BR   UNL     1      11.373  17.836  17.538  0.00  0.00    +0.000 Br
ATOM     13  H   UNL     1      11.483  14.756  17.313  0.00  0.00    +0.000 HD
ENDBRANCH   1   9
BRANCH   4  14
ATOM     14  C   UNL     1       8.633   9.501  18.560  0.00  0.00    +0.000 C 
ATOM     15  C   UNL     1       8.135   8.731  17.581  0.00  0.00    +0.000 C 
BRANCH  15  16
ATOM     16  C   UNL     1       7.504   7.432  17.795  0.00  0.00    +0.000 C 
ATOM     17  C   UNL     1       7.943   6.585  18.740  0.00  0.00    +0.000 C 
ATOM     18  O   UNL     1       7.364   5.369  19.052  0.00  0.00    +0.000 OA
ATOM     19  C   UNL     1       6.073   5.157  18.620  0.00  0.00    +0.000 A 
ATOM     20  C   UNL     1       5.344   4.139  19.229  0.00  0.00    +0.000 A 
ATOM     21  C   UNL     1       4.005   3.945  18.885  0.00  0.00    +0.000 A 
ATOM     22  C   UNL     1       3.405   4.757  17.920  0.00  0.00    +0.000 A 
ATOM     23  C   UNL     1       4.148   5.751  17.285  0.00  0.00    +0.000 A 
ATOM     24  C   UNL     1       5.487   5.958  17.638  0.00  0.00    +0.000 A 
ATOM     25  C   UNL     1       6.302   7.028  16.970  0.00  0.00    +0.000 C 
ENDBRANCH  15  16
ENDBRANCH   4  14
TORSDOF 3
ENDMDL
MODEL 7
REMARK VINA RESULT:      -7.8      5.481      9.946
REMARK  Name = 
REMARK  3 active torsions:
REMARK  status: ('A' for Active; 'I' for Inactive)
REMARK    1  A    between atoms: C_4  and  C_5
REMARK    2  A    between atoms: C_8  and  C_9
REMARK    3  A    between atoms: C_10  and  C_11
REMARK                            x       y       z     vdW  Elec       q    Type
REMARK                         _______ _______ _______ _____ _____    ______ ____
ROOT
ATOM      1  C   UNL     1       9.800  12.727  18.400  0.00  0.00    +0.000 A 
ATOM      2  N   UNL     1      10.988  12.159  18.366  0.00  0.00    +0.000 NA
ATOM      3  N   UNL     1      10.777  10.808  18.500  0.00  0.00    +0.000 NA
ATOM      4  C   UNL     1       9.471  10.609  18.606  0.00  0.00    +0.000 A 
ATOM      5  O   UNL     1       8.794  11.812  18.556  0.00  0.00    +0.000 OA
ENDROOT
BRANCH   1   9
ATOM      6 BR   UNL     1      10.491  17.982  17.381  0.00  0.00    +0.000 Br
ATOM      7  C   UNL     1       9.751  16.341  17.904  0.00  0.00    +0.000 A 
ATOM      8  C   UNL     1      10.441  15.114  17.793  0.00  0.00    +0.000 A 
ATOM      9  C   UNL     1       9.599  14.129  18.273  0.00  0.00    +0.000 A 
ATOM     10  N   UNL     1       8.426  14.736  18.659  0.00  0.00    +0.000 N 
ATOM     11  C   UNL     1       8.517  16.083  18.444  0.00  0.00    +0.000 A 
ATOM     12 BR   UNL     1       7.168  17.304  18.842  0.00  0.00    +0.000 Br
ATOM     13  H   UNL     1       7.626  14.256  19.051  0.00  0.00    +0.000 HD
ENDBRANCH   1   9
BRANCH   4  14
ATOM     14  C   UNL     1       8.858   9.335  18.735  0.00  0.00    +0.000 C 
ATOM     15  C   UNL     1       8.064   8.793  17.798  0.00  0.00    +0.000 C 
BRANCH  15  16
ATOM     16  C   UNL     1       7.473   7.462  17.890  0.00  0.00    +0.000 C 
ATOM     17  C   UNL     1       7.931   6.547  18.761  0.00  0.00    +0.000 C 
ATOM     18  O   UNL     1       7.389   5.291  18.958  0.00  0.00    +0.000 OA
ATOM     19  C   UNL     1       6.110   5.078  18.494  0.00  0.00    +0.000 A 
ATOM     20  C   UNL     1       5.408   3.987  19.002  0.00  0.00    +0.000 A 
ATOM     21  C   UNL     1       4.079   3.784  18.627  0.00  0.00    +0.000 A 
ATOM     22  C   UNL     1       3.461   4.659  17.732  0.00  0.00    +0.000 A 
ATOM     23  C   UNL     1       4.177   5.728  17.196  0.00  0.00    +0.000 A 
ATOM     24  C   UNL     1       5.506   5.945  17.581  0.00  0.00    +0.000 A 
ATOM     25  C   UNL     1       6.292   7.095  17.020  0.00  0.00    +0.000 C 
ENDBRANCH  15  16
ENDBRANCH   4  14
TORSDOF 3
ENDMDL
MODEL 8
REMARK VINA RESULT:      -7.7      5.502     10.091
REMARK  Name = 
REMARK  3 active torsions:
REMARK  status: ('A' for Active; 'I' for Inactive)
REMARK    1  A    between atoms: C_4  and  C_5
REMARK    2  A    between atoms: C_8  and  C_9
REMARK    3  A    between atoms: C_10  and  C_11
REMARK                            x       y       z     vdW  Elec       q    Type
REMARK                         _______ _______ _______ _____ _____    ______ ____
ROOT
ATOM      1  C   UNL     1      10.065  12.550  19.073  0.00  0.00    +0.000 A 
ATOM      2  N   UNL     1      10.563  12.193  17.907  0.00  0.00    +0.000 NA
ATOM      3  N   UNL     1      10.127  10.912  17.673  0.00  0.00    +0.000 NA
ATOM      4  C   UNL     1       9.378  10.542  18.702  0.00  0.00    +0.000 A 
ATOM      5  O   UNL     1       9.312  11.557  19.638  0.00  0.00    +0.000 OA
ENDROOT
BRANCH   1   9
ATOM      6 BR   UNL     1      10.908  16.552  22.594  0.00  0.00    +0.000 Br
ATOM      7  C   UNL     1      10.624  15.590  21.010  0.00  0.00    +0.000 A 
ATOM      8  C   UNL     1      10.477  14.186  20.979  0.00  0.00    +0.000 A 
ATOM      9  C   UNL     1      10.281  13.828  19.658  0.00  0.00    +0.000 A 
ATOM     10  N   UNL     1      10.316  14.979  18.905  0.00  0.00    +0.000 N 
ATOM     11  C   UNL     1      10.516  16.054  19.725  0.00  0.00    +0.000 A 
ATOM     12 BR   UNL     1      10.610  17.820  19.137  0.00  0.00    +0.000 Br
ATOM     13  H   UNL     1      10.199  15.018  17.901  0.00  0.00    +0.000 HD
ENDBRANCH   1   9
BRANCH   4  14
ATOM     14  C   UNL     1       8.725   9.287  18.814  0.00  0.00    +0.000 C 
ATOM     15  C   UNL     1       8.099   8.681  17.793  0.00  0.00    +0.000 C 
BRANCH  15  16
ATOM     16  C   UNL     1       7.472   7.365  17.877  0.00  0.00    +0.000 C 
ATOM     17  C   UNL     1       7.927   6.421  18.717  0.00  0.00    +0.000 C 
ATOM     18  O   UNL     1       7.354   5.178  18.905  0.00  0.00    +0.000 OA
ATOM     19  C   UNL     1       6.057   5.010  18.474  0.00  0.00    +0.000 A 
ATOM     20  C   UNL     1       5.338   3.931  18.981  0.00  0.00    +0.000 A 
ATOM     21  C   UNL     1       3.994   3.773  18.640  0.00  0.00    +0.000 A 
ATOM     22  C   UNL     1       3.377   4.683  17.778  0.00  0.00    +0.000 A 
ATOM     23  C   UNL     1       4.109   5.741  17.243  0.00  0.00    +0.000 A 
ATOM     24  C   UNL     1       5.454   5.912  17.594  0.00  0.00    +0.000 A 
ATOM     25  C   UNL     1       6.257   7.050  17.033  0.00  0.00    +0.000 C 
ENDBRANCH  15  16
ENDBRANCH   4  14
TORSDOF 3
ENDMDL
MODEL 9
REMARK VINA RESULT:      -7.7      5.362     10.050
REMARK  Name = 
REMARK  3 active torsions:
REMARK  status: ('A' for Active; 'I' for Inactive)
REMARK    1  A    between atoms: C_4  and  C_5
REMARK    2  A    between atoms: C_8  and  C_9
REMARK    3  A    between atoms: C_10  and  C_11
REMARK                            x       y       z     vdW  Elec       q    Type
REMARK                         _______ _______ _______ _____ _____    ______ ____
ROOT
ATOM      1  C   UNL     1       9.501  11.872  18.403  0.00  0.00    +0.000 A 
ATOM      2  N   UNL     1      10.201  11.014  19.116  0.00  0.00    +0.000 NA
ATOM      3  N   UNL     1       9.535   9.815  19.047  0.00  0.00    +0.000 NA
ATOM      4  C   UNL     1       8.460   9.989  18.292  0.00  0.00    +0.000 A 
ATOM      5  O   UNL     1       8.384  11.298  17.857  0.00  0.00    +0.000 OA
ENDROOT
BRANCH   1   9
ATOM      6 BR   UNL     1      12.324  16.371  17.446  0.00  0.00    +0.000 Br
ATOM      7  C   UNL     1      10.931  15.181  17.848  0.00  0.00    +0.000 A 
ATOM      8  C   UNL     1      11.104  13.780  17.889  0.00  0.00    +0.000 A 
ATOM      9  C   UNL     1       9.880  13.230  18.217  0.00  0.00    +0.000 A 
ATOM     10  N   UNL     1       8.984  14.264  18.364  0.00  0.00    +0.000 N 
ATOM     11  C   UNL     1       9.622  15.454  18.148  0.00  0.00    +0.000 A 
ATOM     12 BR   UNL     1       8.801  17.122  18.264  0.00  0.00    +0.000 Br
ATOM     13  H   UNL     1       8.007  14.155  18.606  0.00  0.00    +0.000 HD
ENDBRANCH   1   9
BRANCH   4  14
ATOM     14  C   UNL     1       7.532   8.966  17.964  0.00  0.00    +0.000 C 
ATOM     15  C   UNL     1       7.883   7.783  17.437  0.00  0.00    +0.000 C 
BRANCH  15  16
ATOM     16  C   UNL     1       6.948   6.701  17.147  0.00  0.00    +0.000 C 
ATOM     17  C   UNL     1       7.366   5.436  16.982  0.00  0.00    +0.000 C 
ATOM     18  O   UNL     1       6.545   4.345  16.770  0.00  0.00    +0.000 OA
ATOM     19  C   UNL     1       5.211   4.490  17.085  0.00  0.00    +0.000 A 
ATOM     20  C   UNL     1       4.453   3.334  17.250  0.00  0.00    +0.000 A 
ATOM     21  C   UNL     1       3.121   3.432  17.655  0.00  0.00    +0.000 A 
ATOM     22  C   UNL     1       2.545   4.686  17.875  0.00  0.00    +0.000 A 
ATOM     23  C   UNL     1       3.296   5.842  17.673  0.00  0.00    +0.000 A 
ATOM     24  C   UNL     1       4.637   5.748  17.281  0.00  0.00    +0.000 A 
ATOM     25  C   UNL     1       5.464   6.983  17.065  0.00  0.00    +0.000 C 
ENDBRANCH  15  16
ENDBRANCH   4  14
TORSDOF 3
ENDMDL
