MODEL 1
REMARK VINA RESULT:      -8.1      0.000      0.000
REMARK  Name = 
REMARK  3 active torsions:
REMARK  status: ('A' for Active; 'I' for Inactive)
REMARK    1  A    between atoms: C_11  and  C_13
REMARK    2  A    between atoms: C_16  and  O_17
REMARK    3  A    between atoms: O_17  and  C_18
REMARK                            x       y       z     vdW  Elec       q    Type
REMARK                         _______ _______ _______ _____ _____    ______ ____
ROOT
ATOM      1  N   UNL     1       0.439  18.154  17.734  0.00  0.00    +0.000 N 
ATOM      2  C   UNL     1       0.910  16.927  18.208  0.00  0.00    +0.000 A 
ATOM      3  C   UNL     1       0.021  15.925  18.553  0.00  0.00    +0.000 A 
ATOM      4  C   UNL     1       0.512  14.731  19.080  0.00  0.00    +0.000 A 
ATOM      5  C   UNL     1       1.888  14.639  19.284  0.00  0.00    +0.000 A 
ATOM      6  N   UNL     1       2.734  15.626  18.918  0.00  0.00    +0.000 NA
ATOM      7  N   UNL     1       2.236  16.777  18.381  0.00  0.00    +0.000 NA
ATOM      8  C   UNL     1       2.510  13.414  19.886  0.00  0.00    +0.000 C 
ATOM      9  C   UNL     1       1.462  12.603  20.646  0.00  0.00    +0.000 C 
ATOM     10  N   UNL     1       0.308  12.380  19.770  0.00  0.00    +0.000 N 
ATOM     11  C   UNL     1      -0.123  11.181  19.193  0.00  0.00    +0.000 C 
ATOM     12  O   UNL     1      -1.202  11.103  18.600  0.00  0.00    +0.000 OA
ATOM     13  C   UNL     1      -0.423  13.611  19.469  0.00  0.00    +0.000 C 
ATOM     14  H   UNL     1      -0.200  18.040  16.957  0.00  0.00    +0.000 HD
ATOM     15  H   UNL     1       1.249  18.718  17.486  0.00  0.00    +0.000 HD
ENDROOT
BRANCH  11  16
ATOM     16  C   UNL     1       0.705   9.936  19.264  0.00  0.00    +0.000 A 
ATOM     17  C   UNL     1       0.781   9.233  20.475  0.00  0.00    +0.000 A 
ATOM     18  C   UNL     1       1.509   8.035  20.559  0.00  0.00    +0.000 A 
ATOM     19  C   UNL     1       2.184   7.540  19.440  0.00  0.00    +0.000 A 
ATOM     20  C   UNL     1       2.152   8.263  18.253  0.00  0.00    +0.000 A 
ATOM     21  C   UNL     1       1.346   9.392  18.151  0.00  0.00    +0.000 A 
BRANCH  19  22
ATOM     22  O   UNL     1       2.867   6.354  19.585  0.00  0.00    +0.000 OA
BRANCH  22  23
ATOM     23  C   UNL     1       2.219   5.169  19.328  0.00  0.00    +0.000 A 
ATOM     24  C   UNL     1       1.804   4.422  20.428  0.00  0.00    +0.000 A 
ATOM     25  C   UNL     1       1.145   3.212  20.230  0.00  0.00    +0.000 A 
ATOM     26  C   UNL     1       0.930   2.782  18.928  0.00  0.00    +0.000 A 
ATOM     27  N   UNL     1       1.294   3.489  17.838  0.00  0.00    +0.000 NA
ATOM     28  C   UNL     1       1.903   4.678  18.065  0.00  0.00    +0.000 A 
ENDBRANCH  22  23
ENDBRANCH  19  22
ENDBRANCH  11  16
TORSDOF 3
ENDMDL
MODEL 2
REMARK VINA RESULT:      -8.0      3.710      4.849
REMARK  Name = 
REMARK  3 active torsions:
REMARK  status: ('A' for Active; 'I' for Inactive)
REMARK    1  A    between atoms: C_11  and  C_13
REMARK    2  A    between atoms: C_16  and  O_17
REMARK    3  A    between atoms: O_17  and  C_18
REMARK                            x       y       z     vdW  Elec       q    Type
REMARK                         _______ _______ _______ _____ _____    ______ ____
ROOT
ATOM      1  N   UNL     1      -4.287  13.218  20.088  0.00  0.00    +0.000 N 
ATOM      2  C   UNL     1      -3.335  12.330  19.581  0.00  0.00    +0.000 A 
ATOM      3  C   UNL     1      -2.186  12.055  20.301  0.00  0.00    +0.000 A 
ATOM      4  C   UNL     1      -1.223  11.212  19.749  0.00  0.00    +0.000 A 
ATOM      5  C   UNL     1      -1.453  10.734  18.460  0.00  0.00    +0.000 A 
ATOM      6  N   UNL     1      -2.593  11.004  17.789  0.00  0.00    +0.000 NA
ATOM      7  N   UNL     1      -3.535  11.811  18.356  0.00  0.00    +0.000 NA
ATOM      8  C   UNL     1      -0.457   9.856  17.761  0.00  0.00    +0.000 C 
ATOM      9  C   UNL     1       0.923  10.000  18.403  0.00  0.00    +0.000 C 
ATOM     10  N   UNL     1       0.793   9.809  19.850  0.00  0.00    +0.000 N 
ATOM     11  C   UNL     1       1.256   8.742  20.629  0.00  0.00    +0.000 C 
ATOM     12  O   UNL     1       1.218   8.780  21.861  0.00  0.00    +0.000 OA
ATOM     13  C   UNL     1       0.045  10.884  20.501  0.00  0.00    +0.000 C 
ATOM     14  H   UNL     1      -4.574  12.972  21.026  0.00  0.00    +0.000 HD
ATOM     15  H   UNL     1      -5.070  13.232  19.436  0.00  0.00    +0.000 HD
ENDROOT
BRANCH  11  16
ATOM     16  C   UNL     1       1.817   7.503  20.003  0.00  0.00    +0.000 A 
ATOM     17  C   UNL     1       2.466   7.596  18.763  0.00  0.00    +0.000 A 
ATOM     18  C   UNL     1       3.046   6.460  18.175  0.00  0.00    +0.000 A 
ATOM     19  C   UNL     1       2.966   5.219  18.812  0.00  0.00    +0.000 A 
ATOM     20  C   UNL     1       2.279   5.116  20.016  0.00  0.00    +0.000 A 
ATOM     21  C   UNL     1       1.797   6.261  20.639  0.00  0.00    +0.000 A 
BRANCH  19  22
ATOM     22  O   UNL     1       3.567   4.148  18.189  0.00  0.00    +0.000 OA
BRANCH  22  23
ATOM     23  C   UNL     1       4.875   4.258  17.777  0.00  0.00    +0.000 A 
ATOM     24  C   UNL     1       5.115   4.183  16.407  0.00  0.00    +0.000 A 
ATOM     25  C   UNL     1       6.419   4.285  15.929  0.00  0.00    +0.000 A 
ATOM     26  C   UNL     1       7.447   4.450  16.846  0.00  0.00    +0.000 A 
ATOM     27  N   UNL     1       7.252   4.553  18.177  0.00  0.00    +0.000 NA
ATOM     28  C   UNL     1       5.969   4.483  18.607  0.00  0.00    +0.000 A 
ENDBRANCH  22  23
ENDBRANCH  19  22
ENDBRANCH  11  16
TORSDOF 3
ENDMDL
MODEL 3
REMARK VINA RESULT:      -7.9      0.679      1.003
REMARK  Name = 
REMARK  3 active torsions:
REMARK  status: ('A' for Active; 'I' for Inactive)
REMARK    1  A    between atoms: C_11  and  C_13
REMARK    2  A    between atoms: C_16  and  O_17
REMARK    3  A    between atoms: O_17  and  C_18
REMARK                            x       y       z     vdW  Elec       q    Type
REMARK                         _______ _______ _______ _____ _____    ______ ____
ROOT
ATOM      1  N   UNL     1      -0.172  18.012  17.743  0.00  0.00    +0.000 N 
ATOM      2  C   UNL     1       0.411  16.821  18.184  0.00  0.00    +0.000 A 
ATOM      3  C   UNL     1      -0.380  15.801  18.683  0.00  0.00    +0.000 A 
ATOM      4  C   UNL     1       0.228  14.646  19.172  0.00  0.00    +0.000 A 
ATOM      5  C   UNL     1       1.622  14.611  19.182  0.00  0.00    +0.000 A 
ATOM      6  N   UNL     1       2.367  15.614  18.670  0.00  0.00    +0.000 NA
ATOM      7  N   UNL     1       1.753  16.726  18.173  0.00  0.00    +0.000 NA
ATOM      8  C   UNL     1       2.372  13.432  19.729  0.00  0.00    +0.000 C 
ATOM      9  C   UNL     1       1.474  12.613  20.655  0.00  0.00    +0.000 C 
ATOM     10  N   UNL     1       0.219  12.317  19.957  0.00  0.00    +0.000 N 
ATOM     11  C   UNL     1      -0.240  11.082  19.485  0.00  0.00    +0.000 C 
ATOM     12  O   UNL     1      -1.387  10.944  19.053  0.00  0.00    +0.000 OA
ATOM     13  C   UNL     1      -0.597  13.508  19.724  0.00  0.00    +0.000 C 
ATOM     14  H   UNL     1      -0.908  17.847  17.068  0.00  0.00    +0.000 HD
ATOM     15  H   UNL     1       0.573  18.596  17.366  0.00  0.00    +0.000 HD
ENDROOT
BRANCH  11  16
ATOM     16  C   UNL     1       0.641   9.872  19.477  0.00  0.00    +0.000 A 
ATOM     17  C   UNL     1       0.767   9.110  20.649  0.00  0.00    +0.000 A 
ATOM     18  C   UNL     1       1.545   7.941  20.658  0.00  0.00    +0.000 A 
ATOM     19  C   UNL     1       2.219   7.534  19.504  0.00  0.00    +0.000 A 
ATOM     20  C   UNL     1       2.136   8.316  18.357  0.00  0.00    +0.000 A 
ATOM     21  C   UNL     1       1.284   9.413  18.327  0.00  0.00    +0.000 A 
BRANCH  19  22
ATOM     22  O   UNL     1       2.954   6.372  19.576  0.00  0.00    +0.000 OA
BRANCH  22  23
ATOM     23  C   UNL     1       2.299   5.162  19.583  0.00  0.00    +0.000 A 
ATOM     24  C   UNL     1       1.948   4.626  18.346  0.00  0.00    +0.000 A 
ATOM     25  C   UNL     1       1.282   3.405  18.289  0.00  0.00    +0.000 A 
ATOM     26  C   UNL     1       0.978   2.762  19.480  0.00  0.00    +0.000 A 
ATOM     27  N   UNL     1       1.324   3.236  20.695  0.00  0.00    +0.000 NA
ATOM     28  C   UNL     1       2.001   4.410  20.715  0.00  0.00    +0.000 A 
ENDBRANCH  22  23
ENDBRANCH  19  22
ENDBRANCH  11  16
TORSDOF 3
ENDMDL
MODEL 4
REMARK VINA RESULT:      -7.6      3.163      4.641
REMARK  Name = 
REMARK  3 active torsions:
REMARK  status: ('A' for Active; 'I' for Inactive)
REMARK    1  A    between atoms: C_11  and  C_13
REMARK    2  A    between atoms: C_16  and  O_17
REMARK    3  A    between atoms: O_17  and  C_18
REMARK                            x       y       z     vdW  Elec       q    Type
REMARK                         _______ _______ _______ _____ _____    ______ ____
ROOT
ATOM      1  N   UNL     1      -7.157  13.324  19.146  0.00  0.00    +0.000 N 
ATOM      2  C   UNL     1      -6.062  12.498  18.883  0.00  0.00    +0.000 A 
ATOM      3  C   UNL     1      -4.791  12.878  19.276  0.00  0.00    +0.000 A 
ATOM      4  C   UNL     1      -3.706  12.066  18.950  0.00  0.00    +0.000 A 
ATOM      5  C   UNL     1      -3.964  10.929  18.185  0.00  0.00    +0.000 A 
ATOM      6  N   UNL     1      -5.217  10.573  17.833  0.00  0.00    +0.000 NA
ATOM      7  N   UNL     1      -6.270  11.368  18.182  0.00  0.00    +0.000 NA
ATOM      8  C   UNL     1      -2.859  10.014  17.746  0.00  0.00    +0.000 C 
ATOM      9  C   UNL     1      -1.514  10.737  17.805  0.00  0.00    +0.000 C 
ATOM     10  N   UNL     1      -1.362  11.347  19.129  0.00  0.00    +0.000 N 
ATOM     11  C   UNL     1      -0.481  10.986  20.154  0.00  0.00    +0.000 C 
ATOM     12  O   UNL     1      -0.346  11.682  21.163  0.00  0.00    +0.000 OA
ATOM     13  C   UNL     1      -2.303  12.443  19.361  0.00  0.00    +0.000 C 
ATOM     14  H   UNL     1      -7.212  13.583  20.123  0.00  0.00    +0.000 HD
ATOM     15  H   UNL     1      -7.993  12.835  18.829  0.00  0.00    +0.000 HD
ENDROOT
BRANCH  11  16
ATOM     16  C   UNL     1       0.339   9.736  20.076  0.00  0.00    +0.000 A 
ATOM     17  C   UNL     1       1.125   9.502  18.938  0.00  0.00    +0.000 A 
ATOM     18  C   UNL     1       1.943   8.363  18.858  0.00  0.00    +0.000 A 
ATOM     19  C   UNL     1       1.967   7.439  19.905  0.00  0.00    +0.000 A 
ATOM     20  C   UNL     1       1.150   7.643  21.011  0.00  0.00    +0.000 A 
ATOM     21  C   UNL     1       0.422   8.822  21.127  0.00  0.00    +0.000 A 
BRANCH  19  22
ATOM     22  O   UNL     1       2.801   6.351  19.771  0.00  0.00    +0.000 OA
BRANCH  22  23
ATOM     23  C   UNL     1       2.276   5.149  19.357  0.00  0.00    +0.000 A 
ATOM     24  C   UNL     1       1.834   4.276  20.349  0.00  0.00    +0.000 A 
ATOM     25  C   UNL     1       1.295   3.043  19.992  0.00  0.00    +0.000 A 
ATOM     26  C   UNL     1       1.225   2.719  18.645  0.00  0.00    +0.000 A 
ATOM     27  N   UNL     1       1.618   3.547  17.655  0.00  0.00    +0.000 NA
ATOM     28  C   UNL     1       2.107   4.753  18.034  0.00  0.00    +0.000 A 
ENDBRANCH  22  23
ENDBRANCH  19  22
ENDBRANCH  11  16
TORSDOF 3
ENDMDL
MODEL 5
REMARK VINA RESULT:      -7.6      1.151      1.579
REMARK  Name = 
REMARK  3 active torsions:
REMARK  status: ('A' for Active; 'I' for Inactive)
REMARK    1  A    between atoms: C_11  and  C_13
REMARK    2  A    between atoms: C_16  and  O_17
REMARK    3  A    between atoms: O_17  and  C_18
REMARK                            x       y       z     vdW  Elec       q    Type
REMARK                         _______ _______ _______ _____ _____    ______ ____
ROOT
ATOM      1  N   UNL     1      -0.885  17.664  18.312  0.00  0.00    +0.000 N 
ATOM      2  C   UNL     1      -0.153  16.499  18.550  0.00  0.00    +0.000 A 
ATOM      3  C   UNL     1      -0.768  15.390  19.106  0.00  0.00    +0.000 A 
ATOM      4  C   UNL     1      -0.005  14.259  19.389  0.00  0.00    +0.000 A 
ATOM      5  C   UNL     1       1.366  14.334  19.145  0.00  0.00    +0.000 A 
ATOM      6  N   UNL     1       1.936  15.421  18.584  0.00  0.00    +0.000 NA
ATOM      7  N   UNL     1       1.167  16.510  18.290  0.00  0.00    +0.000 NA
ATOM      8  C   UNL     1       2.280  13.186  19.457  0.00  0.00    +0.000 C 
ATOM      9  C   UNL     1       1.626  12.243  20.466  0.00  0.00    +0.000 C 
ATOM     10  N   UNL     1       0.286  11.892  19.986  0.00  0.00    +0.000 N 
ATOM     11  C   UNL     1      -0.169  10.657  19.513  0.00  0.00    +0.000 C 
ATOM     12  O   UNL     1      -1.365  10.455  19.285  0.00  0.00    +0.000 OA
ATOM     13  C   UNL     1      -0.636  13.027  19.994  0.00  0.00    +0.000 C 
ATOM     14  H   UNL     1      -1.721  17.484  17.771  0.00  0.00    +0.000 HD
ATOM     15  H   UNL     1      -0.263  18.327  17.852  0.00  0.00    +0.000 HD
ENDROOT
BRANCH  11  16
ATOM     16  C   UNL     1       0.773   9.522  19.256  0.00  0.00    +0.000 A 
ATOM     17  C   UNL     1       1.299   9.349  17.967  0.00  0.00    +0.000 A 
ATOM     18  C   UNL     1       2.224   8.324  17.707  0.00  0.00    +0.000 A 
ATOM     19  C   UNL     1       2.616   7.453  18.727  0.00  0.00    +0.000 A 
ATOM     20  C   UNL     1       2.056   7.592  19.991  0.00  0.00    +0.000 A 
ATOM     21  C   UNL     1       1.220   8.669  20.265  0.00  0.00    +0.000 A 
BRANCH  19  22
ATOM     22  O   UNL     1       3.536   6.480  18.409  0.00  0.00    +0.000 OA
BRANCH  22  23
ATOM     23  C   UNL     1       3.180   5.156  18.523  0.00  0.00    +0.000 A 
ATOM     24  C   UNL     1       1.942   4.785  18.002  0.00  0.00    +0.000 A 
ATOM     25  C   UNL     1       1.527   3.460  18.089  0.00  0.00    +0.000 A 
ATOM     26  C   UNL     1       2.365   2.544  18.707  0.00  0.00    +0.000 A 
ATOM     27  N   UNL     1       3.581   2.858  19.201  0.00  0.00    +0.000 NA
ATOM     28  C   UNL     1       3.970   4.150  19.071  0.00  0.00    +0.000 A 
ENDBRANCH  22  23
ENDBRANCH  19  22
ENDBRANCH  11  16
TORSDOF 3
ENDMDL
MODEL 6
REMARK VINA RESULT:      -7.5      3.621      4.709
REMARK  Name = 
REMARK  3 active torsions:
REMARK  status: ('A' for Active; 'I' for Inactive)
REMARK    1  A    between atoms: C_11  and  C_13
REMARK    2  A    between atoms: C_16  and  O_17
REMARK    3  A    between atoms: O_17  and  C_18
REMARK                            x       y       z     vdW  Elec       q    Type
REMARK                         _______ _______ _______ _____ _____    ______ ____
ROOT
ATOM      1  N   UNL     1      -3.801  13.391  20.299  0.00  0.00    +0.000 N 
ATOM      2  C   UNL     1      -2.889  12.484  19.754  0.00  0.00    +0.000 A 
ATOM      3  C   UNL     1      -1.775  12.096  20.477  0.00  0.00    +0.000 A 
ATOM      4  C   UNL     1      -0.848  11.236  19.890  0.00  0.00    +0.000 A 
ATOM      5  C   UNL     1      -1.074  10.858  18.567  0.00  0.00    +0.000 A 
ATOM      6  N   UNL     1      -2.180  11.237  17.893  0.00  0.00    +0.000 NA
ATOM      7  N   UNL     1      -3.089  12.059  18.493  0.00  0.00    +0.000 NA
ATOM      8  C   UNL     1      -0.113   9.971  17.831  0.00  0.00    +0.000 C 
ATOM      9  C   UNL     1       1.257   9.992  18.509  0.00  0.00    +0.000 C 
ATOM     10  N   UNL     1       1.082   9.714  19.938  0.00  0.00    +0.000 N 
ATOM     11  C   UNL     1       1.465   8.574  20.653  0.00  0.00    +0.000 C 
ATOM     12  O   UNL     1       1.399   8.533  21.884  0.00  0.00    +0.000 OA
ATOM     13  C   UNL     1       0.381  10.786  20.644  0.00  0.00    +0.000 C 
ATOM     14  H   UNL     1      -4.124  13.102  21.214  0.00  0.00    +0.000 HD
ATOM     15  H   UNL     1      -4.566  13.493  19.634  0.00  0.00    +0.000 HD
ENDROOT
BRANCH  11  16
ATOM     16  C   UNL     1       1.969   7.348  19.958  0.00  0.00    +0.000 A 
ATOM     17  C   UNL     1       2.561   7.474  18.692  0.00  0.00    +0.000 A 
ATOM     18  C   UNL     1       3.088   6.349  18.037  0.00  0.00    +0.000 A 
ATOM     19  C   UNL     1       3.012   5.087  18.632  0.00  0.00    +0.000 A 
ATOM     20  C   UNL     1       2.380   4.953  19.863  0.00  0.00    +0.000 A 
ATOM     21  C   UNL     1       1.953   6.084  20.549  0.00  0.00    +0.000 A 
BRANCH  19  22
ATOM     22  O   UNL     1       3.561   4.028  17.944  0.00  0.00    +0.000 OA
BRANCH  22  23
ATOM     23  C   UNL     1       4.824   4.153  17.414  0.00  0.00    +0.000 A 
ATOM     24  C   UNL     1       5.862   4.413  18.305  0.00  0.00    +0.000 A 
ATOM     25  C   UNL     1       7.162   4.552  17.827  0.00  0.00    +0.000 A 
ATOM     26  C   UNL     1       7.380   4.434  16.463  0.00  0.00    +0.000 A 
ATOM     27  N   UNL     1       6.406   4.158  15.571  0.00  0.00    +0.000 NA
ATOM     28  C   UNL     1       5.157   3.996  16.072  0.00  0.00    +0.000 A 
ENDBRANCH  22  23
ENDBRANCH  19  22
ENDBRANCH  11  16
TORSDOF 3
ENDMDL
MODEL 7
REMARK VINA RESULT:      -7.5      3.510      4.617
REMARK  Name = 
REMARK  3 active torsions:
REMARK  status: ('A' for Active; 'I' for Inactive)
REMARK    1  A    between atoms: C_11  and  C_13
REMARK    2  A    between atoms: C_16  and  O_17
REMARK    3  A    between atoms: O_17  and  C_18
REMARK                            x       y       z     vdW  Elec       q    Type
REMARK                         _______ _______ _______ _____ _____    ______ ____
ROOT
ATOM      1  N   UNL     1      -5.417  13.350  19.991  0.00  0.00    +0.000 N 
ATOM      2  C   UNL     1      -4.429  12.490  19.506  0.00  0.00    +0.000 A 
ATOM      3  C   UNL     1      -3.137  12.565  19.997  0.00  0.00    +0.000 A 
ATOM      4  C   UNL     1      -2.155  11.738  19.456  0.00  0.00    +0.000 A 
ATOM      5  C   UNL     1      -2.525  10.912  18.395  0.00  0.00    +0.000 A 
ATOM      6  N   UNL     1      -3.797  10.846  17.950  0.00  0.00    +0.000 NA
ATOM      7  N   UNL     1      -4.751  11.646  18.509  0.00  0.00    +0.000 NA
ATOM      8  C   UNL     1      -1.531  10.017  17.716  0.00  0.00    +0.000 C 
ATOM      9  C   UNL     1      -0.106  10.501  17.986  0.00  0.00    +0.000 C 
ATOM     10  N   UNL     1       0.066  10.683  19.430  0.00  0.00    +0.000 N 
ATOM     11  C   UNL     1       0.847   9.928  20.311  0.00  0.00    +0.000 C 
ATOM     12  O   UNL     1       1.027  10.283  21.479  0.00  0.00    +0.000 OA
ATOM     13  C   UNL     1      -0.733  11.786  19.964  0.00  0.00    +0.000 C 
ATOM     14  H   UNL     1      -5.480  13.325  21.001  0.00  0.00    +0.000 HD
ATOM     15  H   UNL     1      -6.295  13.091  19.544  0.00  0.00    +0.000 HD
ENDROOT
BRANCH  11  16
ATOM     16  C   UNL     1       1.499   8.651  19.881  0.00  0.00    +0.000 A 
ATOM     17  C   UNL     1       1.475   7.545  20.744  0.00  0.00    +0.000 A 
ATOM     18  C   UNL     1       2.034   6.319  20.348  0.00  0.00    +0.000 A 
ATOM     19  C   UNL     1       2.638   6.193  19.095  0.00  0.00    +0.000 A 
ATOM     20  C   UNL     1       2.708   7.301  18.259  0.00  0.00    +0.000 A 
ATOM     21  C   UNL     1       2.064   8.480  18.617  0.00  0.00    +0.000 A 
BRANCH  19  22
ATOM     22  O   UNL     1       3.154   4.961  18.762  0.00  0.00    +0.000 OA
BRANCH  22  23
ATOM     23  C   UNL     1       4.449   4.875  18.305  0.00  0.00    +0.000 A 
ATOM     24  C   UNL     1       5.456   5.285  19.176  0.00  0.00    +0.000 A 
ATOM     25  C   UNL     1       6.786   5.224  18.769  0.00  0.00    +0.000 A 
ATOM     26  C   UNL     1       7.065   4.759  17.492  0.00  0.00    +0.000 A 
ATOM     27  N   UNL     1       6.120   4.329  16.630  0.00  0.00    +0.000 NA
ATOM     28  C   UNL     1       4.838   4.371  17.068  0.00  0.00    +0.000 A 
ENDBRANCH  22  23
ENDBRANCH  19  22
ENDBRANCH  11  16
TORSDOF 3
ENDMDL
MODEL 8
REMARK VINA RESULT:      -7.4      3.121      4.017
REMARK  Name = 
REMARK  3 active torsions:
REMARK  status: ('A' for Active; 'I' for Inactive)
REMARK    1  A    between atoms: C_11  and  C_13
REMARK    2  A    between atoms: C_16  and  O_17
REMARK    3  A    between atoms: O_17  and  C_18
REMARK                            x       y       z     vdW  Elec       q    Type
REMARK                         _______ _______ _______ _____ _____    ______ ____
ROOT
ATOM      1  N   UNL     1      -5.727  13.487  20.920  0.00  0.00    +0.000 N 
ATOM      2  C   UNL     1      -4.717  12.783  20.259  0.00  0.00    +0.000 A 
ATOM      3  C   UNL     1      -3.418  12.815  20.735  0.00  0.00    +0.000 A 
ATOM      4  C   UNL     1      -2.417  12.154  20.026  0.00  0.00    +0.000 A 
ATOM      5  C   UNL     1      -2.780  11.538  18.829  0.00  0.00    +0.000 A 
ATOM      6  N   UNL     1      -4.060  11.505  18.400  0.00  0.00    +0.000 NA
ATOM      7  N   UNL     1      -5.030  12.137  19.121  0.00  0.00    +0.000 NA
ATOM      8  C   UNL     1      -1.769  10.837  17.970  0.00  0.00    +0.000 C 
ATOM      9  C   UNL     1      -0.358  11.320  18.308  0.00  0.00    +0.000 C 
ATOM     10  N   UNL     1      -0.158  11.222  19.757  0.00  0.00    +0.000 N 
ATOM     11  C   UNL     1       0.673  10.343  20.459  0.00  0.00    +0.000 C 
ATOM     12  O   UNL     1       0.867  10.469  21.671  0.00  0.00    +0.000 OA
ATOM     13  C   UNL     1      -0.986  12.163  20.510  0.00  0.00    +0.000 C 
ATOM     14  H   UNL     1      -5.764  13.262  21.906  0.00  0.00    +0.000 HD
ATOM     15  H   UNL     1      -6.604  13.283  20.445  0.00  0.00    +0.000 HD
ENDROOT
BRANCH  11  16
ATOM     16  C   UNL     1       1.364   9.204  19.775  0.00  0.00    +0.000 A 
ATOM     17  C   UNL     1       1.603   8.021  20.489  0.00  0.00    +0.000 A 
ATOM     18  C   UNL     1       2.204   6.918  19.859  0.00  0.00    +0.000 A 
ATOM     19  C   UNL     1       2.588   6.995  18.519  0.00  0.00    +0.000 A 
ATOM     20  C   UNL     1       2.398   8.185  17.825  0.00  0.00    +0.000 A 
ATOM     21  C   UNL     1       1.712   9.235  18.425  0.00  0.00    +0.000 A 
BRANCH  19  22
ATOM     22  O   UNL     1       3.158   5.875  17.958  0.00  0.00    +0.000 OA
BRANCH  22  23
ATOM     23  C   UNL     1       2.686   4.632  18.310  0.00  0.00    +0.000 A 
ATOM     24  C   UNL     1       3.445   3.901  19.222  0.00  0.00    +0.000 A 
ATOM     25  C   UNL     1       3.019   2.636  19.615  0.00  0.00    +0.000 A 
ATOM     26  C   UNL     1       1.845   2.136  19.071  0.00  0.00    +0.000 A 
ATOM     27  N   UNL     1       1.070   2.822  18.206  0.00  0.00    +0.000 NA
ATOM     28  C   UNL     1       1.495   4.064  17.869  0.00  0.00    +0.000 A 
ENDBRANCH  22  23
ENDBRANCH  19  22
ENDBRANCH  11  16
TORSDOF 3
ENDMDL
MODEL 9
REMARK VINA RESULT:      -7.4      3.672      9.046
REMARK  Name = 
REMARK  3 active torsions:
REMARK  status: ('A' for Active; 'I' for Inactive)
REMARK    1  A    between atoms: C_11  and  C_13
REMARK    2  A    between atoms: C_16  and  O_17
REMARK    3  A    between atoms: O_17  and  C_18
REMARK                            x       y       z     vdW  Elec       q    Type
REMARK                         _______ _______ _______ _____ _____    ______ ____
ROOT
ATOM      1  N   UNL     1       2.798   1.775  18.293  0.00  0.00    +0.000 N 
ATOM      2  C   UNL     1       2.334   2.985  18.815  0.00  0.00    +0.000 A 
ATOM      3  C   UNL     1       2.873   4.184  18.383  0.00  0.00    +0.000 A 
ATOM      4  C   UNL     1       2.435   5.374  18.960  0.00  0.00    +0.000 A 
ATOM      5  C   UNL     1       1.506   5.280  19.996  0.00  0.00    +0.000 A 
ATOM      6  N   UNL     1       0.983   4.098  20.383  0.00  0.00    +0.000 NA
ATOM      7  N   UNL     1       1.406   2.945  19.789  0.00  0.00    +0.000 NA
ATOM      8  C   UNL     1       1.006   6.500  20.712  0.00  0.00    +0.000 C 
ATOM      9  C   UNL     1       1.969   7.669  20.510  0.00  0.00    +0.000 C 
ATOM     10  N   UNL     1       2.235   7.822  19.077  0.00  0.00    +0.000 N 
ATOM     11  C   UNL     1       1.828   8.854  18.225  0.00  0.00    +0.000 C 
ATOM     12  O   UNL     1       2.251   8.941  17.070  0.00  0.00    +0.000 OA
ATOM     13  C   UNL     1       2.996   6.705  18.517  0.00  0.00    +0.000 C 
ATOM     14  H   UNL     1       2.777   1.765  17.281  0.00  0.00    +0.000 HD
ATOM     15  H   UNL     1       2.234   1.030  18.698  0.00  0.00    +0.000 HD
ENDROOT
BRANCH  11  16
ATOM     16  C   UNL     1       0.855   9.900  18.673  0.00  0.00    +0.000 A 
ATOM     17  C   UNL     1       1.336  11.061  19.295  0.00  0.00    +0.000 A 
ATOM     18  C   UNL     1       0.452  12.082  19.680  0.00  0.00    +0.000 A 
ATOM     19  C   UNL     1      -0.921  11.943  19.466  0.00  0.00    +0.000 A 
ATOM     20  C   UNL     1      -1.405  10.771  18.896  0.00  0.00    +0.000 A 
ATOM     21  C   UNL     1      -0.515   9.812  18.426  0.00  0.00    +0.000 A 
BRANCH  19  22
ATOM     22  O   UNL     1      -1.731  12.986  19.854  0.00  0.00    +0.000 OA
BRANCH  22  23
ATOM     23  C   UNL     1      -2.520  12.845  20.972  0.00  0.00    +0.000 A 
ATOM     24  C   UNL     1      -1.883  12.910  22.209  0.00  0.00    +0.000 A 
ATOM     25  C   UNL     1      -2.629  12.771  23.376  0.00  0.00    +0.000 A 
ATOM     26  C   UNL     1      -3.995  12.561  23.266  0.00  0.00    +0.000 A 
ATOM     27  N   UNL     1      -4.652  12.517  22.088  0.00  0.00    +0.000 NA
ATOM     28  C   UNL     1      -3.903  12.688  20.972  0.00  0.00    +0.000 A 
ENDBRANCH  22  23
ENDBRANCH  19  22
ENDBRANCH  11  16
TORSDOF 3
ENDMDL
