MODEL 1
REMARK VINA RESULT:      -8.7      0.000      0.000
REMARK  Name = 
REMARK  7 active torsions:
REMARK  status: ('A' for Active; 'I' for Inactive)
REMARK    1  A    between atoms: C_2  and  O_3
REMARK    2  A    between atoms: C_2  and  C_4
REMARK    3  A    between atoms: C_9  and  O_10
REMARK    4  A    between atoms: O_10  and  C_11
REMARK    5  A    between atoms: C_11  and  C_12
REMARK    6  A    between atoms: N_20  and  C_21
REMARK    7  A    between atoms: C_21  and  C_22
REMARK                            x       y       z     vdW  Elec       q    Type
REMARK                         _______ _______ _______ _____ _____    ______ ____
ROOT
ATOM      1  C   UNL     1       5.532   5.388  16.118  0.00  0.00    +0.000 A 
ATOM      2  C   UNL     1       4.962   6.594  16.272  0.00  0.00    +0.000 A 
ATOM      3  C   UNL     1       4.073   6.834  17.397  0.00  0.00    +0.000 A 
ATOM      4  C   UNL     1       3.269   7.973  17.397  0.00  0.00    +0.000 A 
ATOM      5  C   UNL     1       2.339   8.183  18.418  0.00  0.00    +0.000 A 
ATOM      6  C   UNL     1       2.284   7.278  19.485  0.00  0.00    +0.000 A 
ATOM      7  C   UNL     1       3.108   6.157  19.482  0.00  0.00    +0.000 A 
ATOM      8  C   UNL     1       3.986   5.890  18.439  0.00  0.00    +0.000 A 
ATOM      9  N   UNL     1       4.708   4.657  18.336  0.00  0.00    +0.000 N 
ATOM     10  C   UNL     1       5.289   4.325  17.125  0.00  0.00    +0.000 A 
ATOM     11  O   UNL     1       5.641   3.159  16.807  0.00  0.00    +0.000 OA
ENDROOT
BRANCH   1  13
ATOM     12  O   UNL     1       7.433   5.636  14.687  0.00  0.00    +0.000 OA
ATOM     13  C   UNL     1       6.336   5.157  14.887  0.00  0.00    +0.000 C 
BRANCH  13  14
ATOM     14  O   UNL     1       5.734   4.340  13.989  0.00  0.00    +0.000 OA
ATOM     15  H   UNL     1       6.361   3.752  13.502  0.00  0.00    +0.000 HD
ENDBRANCH  13  14
ENDBRANCH   1  13
BRANCH   6  16
ATOM     16  O   UNL     1       1.385   7.469  20.510  0.00  0.00    +0.000 OA
BRANCH  16  17
ATOM     17  C   UNL     1       1.876   8.336  21.563  0.00  0.00    +0.000 C 
BRANCH  17  18
ATOM     18  C   UNL     1       0.874   9.432  21.781  0.00  0.00    +0.000 A 
ATOM     19  C   UNL     1       0.129   9.467  22.965  0.00  0.00    +0.000 A 
ATOM     20  C   UNL     1      -0.887  10.405  23.126  0.00  0.00    +0.000 A 
ATOM     21  C   UNL     1      -1.146  11.330  22.118  0.00  0.00    +0.000 A 
ATOM     22  C   UNL     1      -0.364  11.343  20.963  0.00  0.00    +0.000 A 
ATOM     23  C   UNL     1       0.644  10.398  20.794  0.00  0.00    +0.000 A 
ENDBRANCH  17  18
ENDBRANCH  16  17
ENDBRANCH   6  16
BRANCH   9  24
ATOM     24  C   UNL     1       4.594   3.648  19.415  0.00  0.00    +0.000 C 
BRANCH  24  25
ATOM     25  C   UNL     1       3.204   3.072  19.604  0.00  0.00    +0.000 A 
ATOM     26  C   UNL     1       2.451   2.648  18.492  0.00  0.00    +0.000 A 
ATOM     27  C   UNL     1       1.075   2.427  18.615  0.00  0.00    +0.000 A 
ATOM     28  C   UNL     1       0.464   2.538  19.860  0.00  0.00    +0.000 A 
ATOM     29  C   UNL     1       1.229   2.812  20.994  0.00  0.00    +0.000 A 
ATOM     30  C   UNL     1       2.595   3.068  20.867  0.00  0.00    +0.000 A 
ENDBRANCH  24  25
ENDBRANCH   9  24
TORSDOF 7
ENDMDL
MODEL 2
REMARK VINA RESULT:      -8.5      0.596      1.101
REMARK  Name = 
REMARK  7 active torsions:
REMARK  status: ('A' for Active; 'I' for Inactive)
REMARK    1  A    between atoms: C_2  and  O_3
REMARK    2  A    between atoms: C_2  and  C_4
REMARK    3  A    between atoms: C_9  and  O_10
REMARK    4  A    between atoms: O_10  and  C_11
REMARK    5  A    between atoms: C_11  and  C_12
REMARK    6  A    between atoms: N_20  and  C_21
REMARK    7  A    between atoms: C_21  and  C_22
REMARK                            x       y       z     vdW  Elec       q    Type
REMARK                         _______ _______ _______ _____ _____    ______ ____
ROOT
ATOM      1  C   UNL     1       5.731   5.145  16.004  0.00  0.00    +0.000 A 
ATOM      2  C   UNL     1       5.234   6.391  15.990  0.00  0.00    +0.000 A 
ATOM      3  C   UNL     1       4.331   6.820  17.045  0.00  0.00    +0.000 A 
ATOM      4  C   UNL     1       3.600   7.996  16.879  0.00  0.00    +0.000 A 
ATOM      5  C   UNL     1       2.657   8.386  17.834  0.00  0.00    +0.000 A 
ATOM      6  C   UNL     1       2.516   7.624  19.001  0.00  0.00    +0.000 A 
ATOM      7  C   UNL     1       3.269   6.465  19.162  0.00  0.00    +0.000 A 
ATOM      8  C   UNL     1       4.156   6.020  18.191  0.00  0.00    +0.000 A 
ATOM      9  N   UNL     1       4.802   4.743  18.264  0.00  0.00    +0.000 N 
ATOM     10  C   UNL     1       5.394   4.230  17.123  0.00  0.00    +0.000 A 
ATOM     11  O   UNL     1       5.681   3.015  16.963  0.00  0.00    +0.000 OA
ENDROOT
BRANCH   1  13
ATOM     12  O   UNL     1       7.502   5.335  14.408  0.00  0.00    +0.000 OA
ATOM     13  C   UNL     1       6.553   4.717  14.839  0.00  0.00    +0.000 C 
BRANCH  13  14
ATOM     14  O   UNL     1       6.150   3.544  14.290  0.00  0.00    +0.000 OA
ATOM     15  H   UNL     1       5.251   3.255  14.582  0.00  0.00    +0.000 HD
ENDBRANCH  13  14
ENDBRANCH   1  13
BRANCH   6  16
ATOM     16  O   UNL     1       1.604   7.992  19.963  0.00  0.00    +0.000 OA
BRANCH  16  17
ATOM     17  C   UNL     1       0.835   9.171  19.617  0.00  0.00    +0.000 C 
BRANCH  17  18
ATOM     18  C   UNL     1       0.136   9.661  20.851  0.00  0.00    +0.000 A 
ATOM     19  C   UNL     1      -0.552  10.879  20.823  0.00  0.00    +0.000 A 
ATOM     20  C   UNL     1      -1.100  11.402  21.992  0.00  0.00    +0.000 A 
ATOM     21  C   UNL     1      -0.988  10.697  23.188  0.00  0.00    +0.000 A 
ATOM     22  C   UNL     1      -0.361   9.452  23.210  0.00  0.00    +0.000 A 
ATOM     23  C   UNL     1       0.199   8.933  22.045  0.00  0.00    +0.000 A 
ENDBRANCH  17  18
ENDBRANCH  16  17
ENDBRANCH   6  16
BRANCH   9  24
ATOM     24  C   UNL     1       4.596   3.883  19.453  0.00  0.00    +0.000 C 
BRANCH  24  25
ATOM     25  C   UNL     1       3.198   3.310  19.589  0.00  0.00    +0.000 A 
ATOM     26  C   UNL     1       2.527   2.793  18.465  0.00  0.00    +0.000 A 
ATOM     27  C   UNL     1       1.147   2.569  18.509  0.00  0.00    +0.000 A 
ATOM     28  C   UNL     1       0.449   2.772  19.696  0.00  0.00    +0.000 A 
ATOM     29  C   UNL     1       1.132   3.140  20.855  0.00  0.00    +0.000 A 
ATOM     30  C   UNL     1       2.503   3.399  20.804  0.00  0.00    +0.000 A 
ENDBRANCH  24  25
ENDBRANCH   9  24
TORSDOF 7
ENDMDL
MODEL 3
REMARK VINA RESULT:      -8.3      3.650      6.591
REMARK  Name = 
REMARK  7 active torsions:
REMARK  status: ('A' for Active; 'I' for Inactive)
REMARK    1  A    between atoms: C_2  and  O_3
REMARK    2  A    between atoms: C_2  and  C_4
REMARK    3  A    between atoms: C_9  and  O_10
REMARK    4  A    between atoms: O_10  and  C_11
REMARK    5  A    between atoms: C_11  and  C_12
REMARK    6  A    between atoms: N_20  and  C_21
REMARK    7  A    between atoms: C_21  and  C_22
REMARK                            x       y       z     vdW  Elec       q    Type
REMARK                         _______ _______ _______ _____ _____    ______ ____
ROOT
ATOM      1  C   UNL     1       3.203   3.678  18.475  0.00  0.00    +0.000 A 
ATOM      2  C   UNL     1       4.523   3.586  18.702  0.00  0.00    +0.000 A 
ATOM      3  C   UNL     1       5.391   4.708  18.382  0.00  0.00    +0.000 A 
ATOM      4  C   UNL     1       6.771   4.512  18.346  0.00  0.00    +0.000 A 
ATOM      5  C   UNL     1       7.624   5.546  17.953  0.00  0.00    +0.000 A 
ATOM      6  C   UNL     1       7.081   6.807  17.675  0.00  0.00    +0.000 A 
ATOM      7  C   UNL     1       5.703   6.993  17.736  0.00  0.00    +0.000 A 
ATOM      8  C   UNL     1       4.832   5.958  18.052  0.00  0.00    +0.000 A 
ATOM      9  N   UNL     1       3.409   6.089  17.945  0.00  0.00    +0.000 N 
ATOM     10  C   UNL     1       2.634   4.943  17.946  0.00  0.00    +0.000 A 
ATOM     11  O   UNL     1       1.448   4.893  17.526  0.00  0.00    +0.000 OA
ENDROOT
BRANCH   1  13
ATOM     12  O   UNL     1       2.024   2.073  19.799  0.00  0.00    +0.000 OA
ATOM     13  C   UNL     1       2.377   2.462  18.706  0.00  0.00    +0.000 C 
BRANCH  13  14
ATOM     14  O   UNL     1       2.034   1.813  17.566  0.00  0.00    +0.000 OA
ATOM     15  H   UNL     1       2.672   1.945  16.824  0.00  0.00    +0.000 HD
ENDBRANCH  13  14
ENDBRANCH   1  13
BRANCH   6  16
ATOM     16  O   UNL     1       7.900   7.846  17.298  0.00  0.00    +0.000 OA
BRANCH  16  17
ATOM     17  C   UNL     1       7.282   9.151  17.425  0.00  0.00    +0.000 C 
BRANCH  17  18
ATOM     18  C   UNL     1       8.280  10.091  18.035  0.00  0.00    +0.000 A 
ATOM     19  C   UNL     1       9.100   9.653  19.080  0.00  0.00    +0.000 A 
ATOM     20  C   UNL     1       9.942  10.549  19.734  0.00  0.00    +0.000 A 
ATOM     21  C   UNL     1       9.989  11.881  19.330  0.00  0.00    +0.000 A 
ATOM     22  C   UNL     1       9.223  12.310  18.247  0.00  0.00    +0.000 A 
ATOM     23  C   UNL     1       8.372  11.419  17.599  0.00  0.00    +0.000 A 
ENDBRANCH  17  18
ENDBRANCH  16  17
ENDBRANCH   6  16
BRANCH   9  24
ATOM     24  C   UNL     1       2.819   7.394  17.567  0.00  0.00    +0.000 C 
BRANCH  24  25
ATOM     25  C   UNL     1       2.149   8.142  18.705  0.00  0.00    +0.000 A 
ATOM     26  C   UNL     1       2.091   7.577  19.993  0.00  0.00    +0.000 A 
ATOM     27  C   UNL     1       1.211   8.093  20.950  0.00  0.00    +0.000 A 
ATOM     28  C   UNL     1       0.456   9.226  20.658  0.00  0.00    +0.000 A 
ATOM     29  C   UNL     1       0.620   9.880  19.437  0.00  0.00    +0.000 A 
ATOM     30  C   UNL     1       1.470   9.346  18.468  0.00  0.00    +0.000 A 
ENDBRANCH  24  25
ENDBRANCH   9  24
TORSDOF 7
ENDMDL
MODEL 4
REMARK VINA RESULT:      -8.3      2.248      4.764
REMARK  Name = 
REMARK  7 active torsions:
REMARK  status: ('A' for Active; 'I' for Inactive)
REMARK    1  A    between atoms: C_2  and  O_3
REMARK    2  A    between atoms: C_2  and  C_4
REMARK    3  A    between atoms: C_9  and  O_10
REMARK    4  A    between atoms: O_10  and  C_11
REMARK    5  A    between atoms: C_11  and  C_12
REMARK    6  A    between atoms: N_20  and  C_21
REMARK    7  A    between atoms: C_21  and  C_22
REMARK                            x       y       z     vdW  Elec       q    Type
REMARK                         _______ _______ _______ _____ _____    ______ ____
ROOT
ATOM      1  C   UNL     1       4.193   3.438  19.765  0.00  0.00    +0.000 A 
ATOM      2  C   UNL     1       3.012   3.859  20.243  0.00  0.00    +0.000 A 
ATOM      3  C   UNL     1       2.595   5.235  20.029  0.00  0.00    +0.000 A 
ATOM      4  C   UNL     1       1.522   5.743  20.760  0.00  0.00    +0.000 A 
ATOM      5  C   UNL     1       1.157   7.086  20.644  0.00  0.00    +0.000 A 
ATOM      6  C   UNL     1       1.830   7.896  19.721  0.00  0.00    +0.000 A 
ATOM      7  C   UNL     1       2.885   7.370  18.982  0.00  0.00    +0.000 A 
ATOM      8  C   UNL     1       3.312   6.057  19.138  0.00  0.00    +0.000 A 
ATOM      9  N   UNL     1       4.503   5.556  18.518  0.00  0.00    +0.000 N 
ATOM     10  C   UNL     1       5.043   4.367  18.978  0.00  0.00    +0.000 A 
ATOM     11  O   UNL     1       6.229   4.003  18.768  0.00  0.00    +0.000 OA
ENDROOT
BRANCH   1  13
ATOM     12  O   UNL     1       5.002   1.717  21.215  0.00  0.00    +0.000 OA
ATOM     13  C   UNL     1       4.626   2.057  20.113  0.00  0.00    +0.000 C 
BRANCH  13  14
ATOM     14  O   UNL     1       4.557   1.186  19.077  0.00  0.00    +0.000 OA
ATOM     15  H   UNL     1       3.634   0.946  18.819  0.00  0.00    +0.000 HD
ENDBRANCH  13  14
ENDBRANCH   1  13
BRANCH   6  16
ATOM     16  O   UNL     1       1.483   9.220  19.578  0.00  0.00    +0.000 OA
BRANCH  16  17
ATOM     17  C   UNL     1       1.009   9.558  18.250  0.00  0.00    +0.000 C 
BRANCH  17  18
ATOM     18  C   UNL     1      -0.351  10.178  18.375  0.00  0.00    +0.000 A 
ATOM     19  C   UNL     1      -1.334   9.895  17.420  0.00  0.00    +0.000 A 
ATOM     20  C   UNL     1      -2.559  10.557  17.457  0.00  0.00    +0.000 A 
ATOM     21  C   UNL     1      -2.818  11.485  18.462  0.00  0.00    +0.000 A 
ATOM     22  C   UNL     1      -1.868  11.724  19.454  0.00  0.00    +0.000 A 
ATOM     23  C   UNL     1      -0.638  11.072  19.413  0.00  0.00    +0.000 A 
ENDBRANCH  17  18
ENDBRANCH  16  17
ENDBRANCH   6  16
BRANCH   9  24
ATOM     24  C   UNL     1       5.278   6.428  17.605  0.00  0.00    +0.000 C 
BRANCH  24  25
ATOM     25  C   UNL     1       5.694   5.773  16.301  0.00  0.00    +0.000 A 
ATOM     26  C   UNL     1       4.760   5.045  15.539  0.00  0.00    +0.000 A 
ATOM     27  C   UNL     1       5.195   4.180  14.530  0.00  0.00    +0.000 A 
ATOM     28  C   UNL     1       6.549   4.108  14.215  0.00  0.00    +0.000 A 
ATOM     29  C   UNL     1       7.463   4.937  14.864  0.00  0.00    +0.000 A 
ATOM     30  C   UNL     1       7.036   5.773  15.896  0.00  0.00    +0.000 A 
ENDBRANCH  24  25
ENDBRANCH   9  24
TORSDOF 7
ENDMDL
MODEL 5
REMARK VINA RESULT:      -8.2      3.581      6.914
REMARK  Name = 
REMARK  7 active torsions:
REMARK  status: ('A' for Active; 'I' for Inactive)
REMARK    1  A    between atoms: C_2  and  O_3
REMARK    2  A    between atoms: C_2  and  C_4
REMARK    3  A    between atoms: C_9  and  O_10
REMARK    4  A    between atoms: O_10  and  C_11
REMARK    5  A    between atoms: C_11  and  C_12
REMARK    6  A    between atoms: N_20  and  C_21
REMARK    7  A    between atoms: C_21  and  C_22
REMARK                            x       y       z     vdW  Elec       q    Type
REMARK                         _______ _______ _______ _____ _____    ______ ____
ROOT
ATOM      1  C   UNL     1       1.955   8.009  19.148  0.00  0.00    +0.000 A 
ATOM      2  C   UNL     1       1.659   7.798  20.440  0.00  0.00    +0.000 A 
ATOM      3  C   UNL     1       0.878   8.782  21.172  0.00  0.00    +0.000 A 
ATOM      4  C   UNL     1       0.817   8.703  22.563  0.00  0.00    +0.000 A 
ATOM      5  C   UNL     1       0.152   9.686  23.300  0.00  0.00    +0.000 A 
ATOM      6  C   UNL     1      -0.524  10.706  22.619  0.00  0.00    +0.000 A 
ATOM      7  C   UNL     1      -0.472  10.759  21.229  0.00  0.00    +0.000 A 
ATOM      8  C   UNL     1       0.246   9.835  20.482  0.00  0.00    +0.000 A 
ATOM      9  N   UNL     1       0.454   9.979  19.072  0.00  0.00    +0.000 N 
ATOM     10  C   UNL     1       1.442   9.223  18.464  0.00  0.00    +0.000 A 
ATOM     11  O   UNL     1       1.947   9.492  17.343  0.00  0.00    +0.000 OA
ENDROOT
BRANCH   1  13
ATOM     12  O   UNL     1       2.773   5.829  18.602  0.00  0.00    +0.000 OA
ATOM     13  C   UNL     1       2.856   7.033  18.478  0.00  0.00    +0.000 C 
BRANCH  13  14
ATOM     14  O   UNL     1       3.796   7.611  17.690  0.00  0.00    +0.000 OA
ATOM     15  H   UNL     1       3.453   7.906  16.812  0.00  0.00    +0.000 HD
ENDBRANCH  13  14
ENDBRANCH   1  13
BRANCH   6  16
ATOM     16  O   UNL     1      -1.197  11.680  23.320  0.00  0.00    +0.000 OA
BRANCH  16  17
ATOM     17  C   UNL     1      -1.965  12.579  22.480  0.00  0.00    +0.000 C 
BRANCH  17  18
ATOM     18  C   UNL     1      -3.392  12.559  22.943  0.00  0.00    +0.000 A 
ATOM     19  C   UNL     1      -4.418  12.879  22.048  0.00  0.00    +0.000 A 
ATOM     20  C   UNL     1      -5.732  12.983  22.496  0.00  0.00    +0.000 A 
ATOM     21  C   UNL     1      -6.032  12.742  23.835  0.00  0.00    +0.000 A 
ATOM     22  C   UNL     1      -5.024  12.359  24.718  0.00  0.00    +0.000 A 
ATOM     23  C   UNL     1      -3.707  12.266  24.275  0.00  0.00    +0.000 A 
ENDBRANCH  17  18
ENDBRANCH  16  17
ENDBRANCH   6  16
BRANCH   9  24
ATOM     24  C   UNL     1      -0.182  11.103  18.347  0.00  0.00    +0.000 C 
BRANCH  24  25
ATOM     25  C   UNL     1      -1.622  10.861  17.936  0.00  0.00    +0.000 A 
ATOM     26  C   UNL     1      -1.932   9.899  16.956  0.00  0.00    +0.000 A 
ATOM     27  C   UNL     1      -3.190   9.895  16.344  0.00  0.00    +0.000 A 
ATOM     28  C   UNL     1      -4.170  10.787  16.770  0.00  0.00    +0.000 A 
ATOM     29  C   UNL     1      -3.920  11.642  17.843  0.00  0.00    +0.000 A 
ATOM     30  C   UNL     1      -2.654  11.672  18.430  0.00  0.00    +0.000 A 
ENDBRANCH  24  25
ENDBRANCH   9  24
TORSDOF 7
ENDMDL
MODEL 6
REMARK VINA RESULT:      -8.1      3.822      9.860
REMARK  Name = 
REMARK  7 active torsions:
REMARK  status: ('A' for Active; 'I' for Inactive)
REMARK    1  A    between atoms: C_2  and  O_3
REMARK    2  A    between atoms: C_2  and  C_4
REMARK    3  A    between atoms: C_9  and  O_10
REMARK    4  A    between atoms: O_10  and  C_11
REMARK    5  A    between atoms: C_11  and  C_12
REMARK    6  A    between atoms: N_20  and  C_21
REMARK    7  A    between atoms: C_21  and  C_22
REMARK                            x       y       z     vdW  Elec       q    Type
REMARK                         _______ _______ _______ _____ _____    ______ ____
ROOT
ATOM      1  C   UNL     1      -1.998  12.077  22.504  0.00  0.00    +0.000 A 
ATOM      2  C   UNL     1      -1.209  11.101  22.980  0.00  0.00    +0.000 A 
ATOM      3  C   UNL     1      -0.384  10.329  22.066  0.00  0.00    +0.000 A 
ATOM      4  C   UNL     1       0.206   9.147  22.514  0.00  0.00    +0.000 A 
ATOM      5  C   UNL     1       0.928   8.338  21.634  0.00  0.00    +0.000 A 
ATOM      6  C   UNL     1       1.123   8.770  20.316  0.00  0.00    +0.000 A 
ATOM      7  C   UNL     1       0.546   9.962  19.889  0.00  0.00    +0.000 A 
ATOM      8  C   UNL     1      -0.238  10.744  20.728  0.00  0.00    +0.000 A 
ATOM      9  N   UNL     1      -0.980  11.875  20.255  0.00  0.00    +0.000 N 
ATOM     10  C   UNL     1      -1.985  12.392  21.053  0.00  0.00    +0.000 A 
ATOM     11  O   UNL     1      -2.910  13.135  20.631  0.00  0.00    +0.000 OA
ENDROOT
BRANCH   1  13
ATOM     12  O   UNL     1      -2.686  13.829  23.979  0.00  0.00    +0.000 OA
ATOM     13  C   UNL     1      -2.912  12.755  23.463  0.00  0.00    +0.000 C 
BRANCH  13  14
ATOM     14  O   UNL     1      -4.051  12.064  23.712  0.00  0.00    +0.000 OA
ATOM     15  H   UNL     1      -4.359  11.514  22.951  0.00  0.00    +0.000 HD
ENDBRANCH  13  14
ENDBRANCH   1  13
BRANCH   6  16
ATOM     16  O   UNL     1       1.840   7.997  19.432  0.00  0.00    +0.000 OA
BRANCH  16  17
ATOM     17  C   UNL     1       2.566   6.912  20.062  0.00  0.00    +0.000 C 
BRANCH  17  18
ATOM     18  C   UNL     1       2.010   5.613  19.558  0.00  0.00    +0.000 A 
ATOM     19  C   UNL     1       1.393   4.728  20.449  0.00  0.00    +0.000 A 
ATOM     20  C   UNL     1       0.983   3.469  20.016  0.00  0.00    +0.000 A 
ATOM     21  C   UNL     1       1.162   3.099  18.685  0.00  0.00    +0.000 A 
ATOM     22  C   UNL     1       1.716   4.000  17.777  0.00  0.00    +0.000 A 
ATOM     23  C   UNL     1       2.138   5.255  18.210  0.00  0.00    +0.000 A 
ENDBRANCH  17  18
ENDBRANCH  16  17
ENDBRANCH   6  16
BRANCH   9  24
ATOM     24  C   UNL     1      -0.854  12.296  18.840  0.00  0.00    +0.000 C 
BRANCH  24  25
ATOM     25  C   UNL     1       0.153  13.403  18.593  0.00  0.00    +0.000 A 
ATOM     26  C   UNL     1       1.492  13.095  18.286  0.00  0.00    +0.000 A 
ATOM     27  C   UNL     1       2.482  14.078  18.378  0.00  0.00    +0.000 A 
ATOM     28  C   UNL     1       2.129  15.389  18.686  0.00  0.00    +0.000 A 
ATOM     29  C   UNL     1       0.788  15.734  18.845  0.00  0.00    +0.000 A 
ATOM     30  C   UNL     1      -0.197  14.747  18.789  0.00  0.00    +0.000 A 
ENDBRANCH  24  25
ENDBRANCH   9  24
TORSDOF 7
ENDMDL
MODEL 7
REMARK VINA RESULT:      -8.1      2.521      5.004
REMARK  Name = 
REMARK  7 active torsions:
REMARK  status: ('A' for Active; 'I' for Inactive)
REMARK    1  A    between atoms: C_2  and  O_3
REMARK    2  A    between atoms: C_2  and  C_4
REMARK    3  A    between atoms: C_9  and  O_10
REMARK    4  A    between atoms: O_10  and  C_11
REMARK    5  A    between atoms: C_11  and  C_12
REMARK    6  A    between atoms: N_20  and  C_21
REMARK    7  A    between atoms: C_21  and  C_22
REMARK                            x       y       z     vdW  Elec       q    Type
REMARK                         _______ _______ _______ _____ _____    ______ ____
ROOT
ATOM      1  C   UNL     1       2.515   3.817  20.654  0.00  0.00    +0.000 A 
ATOM      2  C   UNL     1       1.855   4.877  21.147  0.00  0.00    +0.000 A 
ATOM      3  C   UNL     1       1.809   6.116  20.388  0.00  0.00    +0.000 A 
ATOM      4  C   UNL     1       1.379   7.284  21.017  0.00  0.00    +0.000 A 
ATOM      5  C   UNL     1       1.411   8.506  20.341  0.00  0.00    +0.000 A 
ATOM      6  C   UNL     1       1.802   8.530  18.997  0.00  0.00    +0.000 A 
ATOM      7  C   UNL     1       2.208   7.353  18.376  0.00  0.00    +0.000 A 
ATOM      8  C   UNL     1       2.255   6.141  19.052  0.00  0.00    +0.000 A 
ATOM      9  N   UNL     1       2.836   4.962  18.481  0.00  0.00    +0.000 N 
ATOM     10  C   UNL     1       3.151   3.904  19.315  0.00  0.00    +0.000 A 
ATOM     11  O   UNL     1       3.953   2.981  19.013  0.00  0.00    +0.000 OA
ENDROOT
BRANCH   1  13
ATOM     12  O   UNL     1       1.715   2.128  22.146  0.00  0.00    +0.000 OA
ATOM     13  C   UNL     1       2.634   2.614  21.521  0.00  0.00    +0.000 C 
BRANCH  13  14
ATOM     14  O   UNL     1       3.882   2.085  21.550  0.00  0.00    +0.000 OA
ATOM     15  H   UNL     1       4.105   1.633  22.400  0.00  0.00    +0.000 HD
ENDBRANCH  13  14
ENDBRANCH   1  13
BRANCH   6  16
ATOM     16  O   UNL     1       1.831   9.719  18.304  0.00  0.00    +0.000 OA
BRANCH  16  17
ATOM     17  C   UNL     1       1.190  10.816  19.002  0.00  0.00    +0.000 C 
BRANCH  17  18
ATOM     18  C   UNL     1      -0.246  10.878  18.573  0.00  0.00    +0.000 A 
ATOM     19  C   UNL     1      -1.106  11.815  19.156  0.00  0.00    +0.000 A 
ATOM     20  C   UNL     1      -2.466  11.801  18.856  0.00  0.00    +0.000 A 
ATOM     21  C   UNL     1      -2.969  10.868  17.952  0.00  0.00    +0.000 A 
ATOM     22  C   UNL     1      -2.107   9.973  17.319  0.00  0.00    +0.000 A 
ATOM     23  C   UNL     1      -0.749   9.978  17.626  0.00  0.00    +0.000 A 
ENDBRANCH  17  18
ENDBRANCH  16  17
ENDBRANCH   6  16
BRANCH   9  24
ATOM     24  C   UNL     1       3.336   4.992  17.086  0.00  0.00    +0.000 C 
BRANCH  24  25
ATOM     25  C   UNL     1       4.840   5.135  16.952  0.00  0.00    +0.000 A 
ATOM     26  C   UNL     1       5.553   4.342  16.032  0.00  0.00    +0.000 A 
ATOM     27  C   UNL     1       6.943   4.229  16.128  0.00  0.00    +0.000 A 
ATOM     28  C   UNL     1       7.635   4.975  17.078  0.00  0.00    +0.000 A 
ATOM     29  C   UNL     1       6.952   5.876  17.894  0.00  0.00    +0.000 A 
ATOM     30  C   UNL     1       5.561   5.962  17.824  0.00  0.00    +0.000 A 
ENDBRANCH  24  25
ENDBRANCH   9  24
TORSDOF 7
ENDMDL
MODEL 8
REMARK VINA RESULT:      -8.1      2.691      5.276
REMARK  Name = 
REMARK  7 active torsions:
REMARK  status: ('A' for Active; 'I' for Inactive)
REMARK    1  A    between atoms: C_2  and  O_3
REMARK    2  A    between atoms: C_2  and  C_4
REMARK    3  A    between atoms: C_9  and  O_10
REMARK    4  A    between atoms: O_10  and  C_11
REMARK    5  A    between atoms: C_11  and  C_12
REMARK    6  A    between atoms: N_20  and  C_21
REMARK    7  A    between atoms: C_21  and  C_22
REMARK                            x       y       z     vdW  Elec       q    Type
REMARK                         _______ _______ _______ _____ _____    ______ ____
ROOT
ATOM      1  C   UNL     1       2.420   3.906  20.709  0.00  0.00    +0.000 A 
ATOM      2  C   UNL     1       1.723   4.981  21.110  0.00  0.00    +0.000 A 
ATOM      3  C   UNL     1       1.764   6.203  20.324  0.00  0.00    +0.000 A 
ATOM      4  C   UNL     1       1.283   7.387  20.882  0.00  0.00    +0.000 A 
ATOM      5  C   UNL     1       1.393   8.594  20.187  0.00  0.00    +0.000 A 
ATOM      6  C   UNL     1       1.916   8.585  18.887  0.00  0.00    +0.000 A 
ATOM      7  C   UNL     1       2.372   7.392  18.336  0.00  0.00    +0.000 A 
ATOM      8  C   UNL     1       2.341   6.195  19.039  0.00  0.00    +0.000 A 
ATOM      9  N   UNL     1       2.966   5.000  18.554  0.00  0.00    +0.000 N 
ATOM     10  C   UNL     1       3.188   3.959  19.439  0.00  0.00    +0.000 A 
ATOM     11  O   UNL     1       4.007   3.025  19.238  0.00  0.00    +0.000 OA
ENDROOT
BRANCH   1  13
ATOM     12  O   UNL     1       1.477   2.306  22.215  0.00  0.00    +0.000 OA
ATOM     13  C   UNL     1       2.442   2.722  21.609  0.00  0.00    +0.000 C 
BRANCH  13  14
ATOM     14  O   UNL     1       3.656   2.125  21.694  0.00  0.00    +0.000 OA
ATOM     15  H   UNL     1       4.201   2.209  20.874  0.00  0.00    +0.000 HD
ENDBRANCH  13  14
ENDBRANCH   1  13
BRANCH   6  16
ATOM     16  O   UNL     1       2.024   9.758  18.176  0.00  0.00    +0.000 OA
BRANCH  16  17
ATOM     17  C   UNL     1       1.011  10.739  18.511  0.00  0.00    +0.000 C 
BRANCH  17  18
ATOM     18  C   UNL     1       1.697  11.989  18.979  0.00  0.00    +0.000 A 
ATOM     19  C   UNL     1       2.488  12.723  18.089  0.00  0.00    +0.000 A 
ATOM     20  C   UNL     1       3.225  13.814  18.542  0.00  0.00    +0.000 A 
ATOM     21  C   UNL     1       3.155  14.194  19.880  0.00  0.00    +0.000 A 
ATOM     22  C   UNL     1       2.317  13.507  20.759  0.00  0.00    +0.000 A 
ATOM     23  C   UNL     1       1.589  12.408  20.311  0.00  0.00    +0.000 A 
ENDBRANCH  17  18
ENDBRANCH  16  17
ENDBRANCH   6  16
BRANCH   9  24
ATOM     24  C   UNL     1       3.602   4.996  17.216  0.00  0.00    +0.000 C 
BRANCH  24  25
ATOM     25  C   UNL     1       5.055   5.431  17.201  0.00  0.00    +0.000 A 
ATOM     26  C   UNL     1       6.086   4.478  17.304  0.00  0.00    +0.000 A 
ATOM     27  C   UNL     1       7.389   4.879  17.616  0.00  0.00    +0.000 A 
ATOM     28  C   UNL     1       7.687   6.234  17.736  0.00  0.00    +0.000 A 
ATOM     29  C   UNL     1       6.703   7.191  17.488  0.00  0.00    +0.000 A 
ATOM     30  C   UNL     1       5.395   6.791  17.212  0.00  0.00    +0.000 A 
ENDBRANCH  24  25
ENDBRANCH   9  24
TORSDOF 7
ENDMDL
MODEL 9
REMARK VINA RESULT:      -8.0      0.669      1.203
REMARK  Name = 
REMARK  7 active torsions:
REMARK  status: ('A' for Active; 'I' for Inactive)
REMARK    1  A    between atoms: C_2  and  O_3
REMARK    2  A    between atoms: C_2  and  C_4
REMARK    3  A    between atoms: C_9  and  O_10
REMARK    4  A    between atoms: O_10  and  C_11
REMARK    5  A    between atoms: C_11  and  C_12
REMARK    6  A    between atoms: N_20  and  C_21
REMARK    7  A    between atoms: C_21  and  C_22
REMARK                            x       y       z     vdW  Elec       q    Type
REMARK                         _______ _______ _______ _____ _____    ______ ____
ROOT
ATOM      1  C   UNL     1       5.787   5.132  15.839  0.00  0.00    +0.000 A 
ATOM      2  C   UNL     1       5.355   6.401  15.912  0.00  0.00    +0.000 A 
ATOM      3  C   UNL     1       4.454   6.797  16.981  0.00  0.00    +0.000 A 
ATOM      4  C   UNL     1       3.788   8.019  16.893  0.00  0.00    +0.000 A 
ATOM      5  C   UNL     1       2.847   8.384  17.858  0.00  0.00    +0.000 A 
ATOM      6  C   UNL     1       2.643   7.546  18.961  0.00  0.00    +0.000 A 
ATOM      7  C   UNL     1       3.331   6.339  19.047  0.00  0.00    +0.000 A 
ATOM      8  C   UNL     1       4.214   5.923  18.060  0.00  0.00    +0.000 A 
ATOM      9  N   UNL     1       4.792   4.611  18.046  0.00  0.00    +0.000 N 
ATOM     10  C   UNL     1       5.380   4.155  16.880  0.00  0.00    +0.000 A 
ATOM     11  O   UNL     1       5.608   2.942  16.632  0.00  0.00    +0.000 OA
ENDROOT
BRANCH   1  13
ATOM     12  O   UNL     1       7.568   5.378  14.262  0.00  0.00    +0.000 OA
ATOM     13  C   UNL     1       6.610   4.750  14.659  0.00  0.00    +0.000 C 
BRANCH  13  14
ATOM     14  O   UNL     1       6.197   3.609  14.054  0.00  0.00    +0.000 OA
ATOM     15  H   UNL     1       5.226   3.443  14.134  0.00  0.00    +0.000 HD
ENDBRANCH  13  14
ENDBRANCH   1  13
BRANCH   6  16
ATOM     16  O   UNL     1       1.731   7.888  19.933  0.00  0.00    +0.000 OA
BRANCH  16  17
ATOM     17  C   UNL     1       0.907   9.029  19.584  0.00  0.00    +0.000 C 
BRANCH  17  18
ATOM     18  C   UNL     1       0.351   9.618  20.847  0.00  0.00    +0.000 A 
ATOM     19  C   UNL     1       0.001   8.779  21.911  0.00  0.00    +0.000 A 
ATOM     20  C   UNL     1      -0.627   9.301  23.038  0.00  0.00    +0.000 A 
ATOM     21  C   UNL     1      -0.885  10.667  23.121  0.00  0.00    +0.000 A 
ATOM     22  C   UNL     1      -0.480  11.518  22.094  0.00  0.00    +0.000 A 
ATOM     23  C   UNL     1       0.137  10.997  20.960  0.00  0.00    +0.000 A 
ENDBRANCH  17  18
ENDBRANCH  16  17
ENDBRANCH   6  16
BRANCH   9  24
ATOM     24  C   UNL     1       4.517   3.677  19.163  0.00  0.00    +0.000 C 
BRANCH  24  25
ATOM     25  C   UNL     1       3.047   3.401  19.414  0.00  0.00    +0.000 A 
ATOM     26  C   UNL     1       2.521   3.468  20.719  0.00  0.00    +0.000 A 
ATOM     27  C   UNL     1       1.272   2.909  21.006  0.00  0.00    +0.000 A 
ATOM     28  C   UNL     1       0.505   2.365  19.980  0.00  0.00    +0.000 A 
ATOM     29  C   UNL     1       0.953   2.429  18.661  0.00  0.00    +0.000 A 
ATOM     30  C   UNL     1       2.214   2.954  18.379  0.00  0.00    +0.000 A 
ENDBRANCH  24  25
ENDBRANCH   9  24
TORSDOF 7
ENDMDL
