MODEL 1
REMARK VINA RESULT:      -7.2      0.000      0.000
REMARK  Name = 
REMARK  7 active torsions:
REMARK  status: ('A' for Active; 'I' for Inactive)
REMARK    1  A    between atoms: C_1  and  C_2
REMARK    2  A    between atoms: C_5  and  N_6
REMARK    3  A    between atoms: C_7  and  C_9
REMARK    4  A    between atoms: C_9  and  S_10
REMARK    5  A    between atoms: S_10  and  C_12
REMARK    6  A    between atoms: C_12  and  C_13
REMARK    7  A    between atoms: N_18  and  C_19
REMARK                            x       y       z     vdW  Elec       q    Type
REMARK                         _______ _______ _______ _____ _____    ______ ____
ROOT
ATOM      1  S   UNL     1       1.790   3.992  19.848  0.00  0.00    +0.000 S 
ATOM      2  O   UNL     1       0.933   3.303  20.978  0.00  0.00    +0.000 OA
ENDROOT
BRANCH   1   3
ATOM      3  C   UNL     1       3.427   3.210  19.896  0.00  0.00    +0.000 C 
BRANCH   3   5
ATOM      4  N   UNL     1       4.827   4.213  18.177  0.00  0.00    +0.000 N 
ATOM      5  C   UNL     1       4.029   3.132  18.514  0.00  0.00    +0.000 C 
ATOM      6  O   UNL     1       3.759   2.173  17.789  0.00  0.00    +0.000 OA
ATOM      7  H   UNL     1       5.140   4.806  18.948  0.00  0.00    +0.000 HD
BRANCH   4  12
ATOM      8  C   UNL     1       7.586   4.930  13.210  0.00  0.00    +0.000 C 
ATOM      9  C   UNL     1       6.854   4.756  14.507  0.00  0.00    +0.000 A 
ATOM     10  C   UNL     1       5.487   4.479  14.512  0.00  0.00    +0.000 A 
ATOM     11  C   UNL     1       4.803   4.307  15.718  0.00  0.00    +0.000 A 
ATOM     12  C   UNL     1       5.472   4.405  16.936  0.00  0.00    +0.000 A 
ATOM     13  C   UNL     1       6.835   4.705  16.938  0.00  0.00    +0.000 A 
ATOM     14  C   UNL     1       7.527   4.871  15.729  0.00  0.00    +0.000 A 
ENDBRANCH   4  12
ENDBRANCH   3   5
ENDBRANCH   1   3
BRANCH   1  15
ATOM     15  C   UNL     1       2.309   5.610  20.490  0.00  0.00    +0.000 C 
BRANCH  15  16
ATOM     16  C   UNL     1       2.454   6.678  19.425  0.00  0.00    +0.000 C 
ATOM     17  O   UNL     1       3.120   6.498  18.406  0.00  0.00    +0.000 OA
ATOM     18  N   UNL     1       1.755   7.862  19.635  0.00  0.00    +0.000 N 
ATOM     19  C   UNL     1       1.848   8.905  18.609  0.00  0.00    +0.000 C 
ATOM     20  C   UNL     1       0.601   9.808  18.583  0.00  0.00    +0.000 C 
ATOM     21  N   UNL     1       0.208  10.365  19.899  0.00  0.00    +0.000 NA
ATOM     22  C   UNL     1       0.073   9.250  20.856  0.00  0.00    +0.000 C 
ATOM     23  C   UNL     1       1.296   8.322  20.952  0.00  0.00    +0.000 C 
BRANCH  21  24
ATOM     24  C   UNL     1       1.087  11.458  20.339  0.00  0.00    +0.000 C 
ATOM     25  C   UNL     1       1.568  12.310  19.157  0.00  0.00    +0.000 C 
ATOM     26  C   UNL     1       2.078  13.584  19.806  0.00  0.00    +0.000 C 
ATOM     27  C   UNL     1       1.133  13.835  20.971  0.00  0.00    +0.000 C 
ATOM     28  C   UNL     1       0.419  12.510  21.243  0.00  0.00    +0.000 C 
ENDBRANCH  21  24
ENDBRANCH  15  16
ENDBRANCH   1  15
TORSDOF 6
ENDMDL
MODEL 2
REMARK VINA RESULT:      -7.1      1.954      6.949
REMARK  Name = 
REMARK  7 active torsions:
REMARK  status: ('A' for Active; 'I' for Inactive)
REMARK    1  A    between atoms: C_1  and  C_2
REMARK    2  A    between atoms: C_5  and  N_6
REMARK    3  A    between atoms: C_7  and  C_9
REMARK    4  A    between atoms: C_9  and  S_10
REMARK    5  A    between atoms: S_10  and  C_12
REMARK    6  A    between atoms: C_12  and  C_13
REMARK    7  A    between atoms: N_18  and  C_19
REMARK                            x       y       z     vdW  Elec       q    Type
REMARK                         _______ _______ _______ _____ _____    ______ ____
ROOT
ATOM      1  S   UNL     1       2.416   2.684  20.121  0.00  0.00    +0.000 S 
ATOM      2  O   UNL     1       0.920   2.379  20.520  0.00  0.00    +0.000 OA
ENDROOT
BRANCH   1   3
ATOM      3  C   UNL     1       2.864   4.232  20.955  0.00  0.00    +0.000 C 
BRANCH   3   5
ATOM      4  N   UNL     1       2.552   6.549  20.281  0.00  0.00    +0.000 N 
ATOM      5  C   UNL     1       1.924   5.348  20.566  0.00  0.00    +0.000 C 
ATOM      6  O   UNL     1       0.710   5.141  20.560  0.00  0.00    +0.000 OA
ATOM      7  H   UNL     1       3.557   6.508  20.106  0.00  0.00    +0.000 HD
BRANCH   4  12
ATOM      8  C   UNL     1      -0.110  11.373  18.716  0.00  0.00    +0.000 C 
ATOM      9  C   UNL     1       0.597  10.120  19.136  0.00  0.00    +0.000 A 
ATOM     10  C   UNL     1       0.561   9.702  20.466  0.00  0.00    +0.000 A 
ATOM     11  C   UNL     1       1.210   8.530  20.860  0.00  0.00    +0.000 A 
ATOM     12  C   UNL     1       1.902   7.754  19.933  0.00  0.00    +0.000 A 
ATOM     13  C   UNL     1       1.963   8.179  18.605  0.00  0.00    +0.000 A 
ATOM     14  C   UNL     1       1.305   9.351  18.204  0.00  0.00    +0.000 A 
ENDBRANCH   4  12
ENDBRANCH   3   5
ENDBRANCH   1   3
BRANCH   1  15
ATOM     15  C   UNL     1       2.387   3.352  18.433  0.00  0.00    +0.000 C 
BRANCH  15  16
ATOM     16  C   UNL     1       3.617   3.014  17.615  0.00  0.00    +0.000 C 
ATOM     17  O   UNL     1       3.926   1.852  17.350  0.00  0.00    +0.000 OA
ATOM     18  N   UNL     1       4.359   4.089  17.137  0.00  0.00    +0.000 N 
ATOM     19  C   UNL     1       5.538   3.799  16.316  0.00  0.00    +0.000 C 
ATOM     20  C   UNL     1       5.858   4.941  15.334  0.00  0.00    +0.000 C 
ATOM     21  N   UNL     1       5.935   6.287  15.949  0.00  0.00    +0.000 NA
ATOM     22  C   UNL     1       4.689   6.528  16.701  0.00  0.00    +0.000 C 
ATOM     23  C   UNL     1       4.321   5.436  17.721  0.00  0.00    +0.000 C 
BRANCH  21  24
ATOM     24  C   UNL     1       7.172   6.492  16.715  0.00  0.00    +0.000 C 
ATOM     25  C   UNL     1       7.240   7.903  17.316  0.00  0.00    +0.000 C 
ATOM     26  C   UNL     1       8.317   7.797  18.382  0.00  0.00    +0.000 C 
ATOM     27  C   UNL     1       8.146   6.406  18.973  0.00  0.00    +0.000 C 
ATOM     28  C   UNL     1       7.323   5.604  17.963  0.00  0.00    +0.000 C 
ENDBRANCH  21  24
ENDBRANCH  15  16
ENDBRANCH   1  15
TORSDOF 6
ENDMDL
MODEL 3
REMARK VINA RESULT:      -7.1      0.846      1.199
REMARK  Name = 
REMARK  7 active torsions:
REMARK  status: ('A' for Active; 'I' for Inactive)
REMARK    1  A    between atoms: C_1  and  C_2
REMARK    2  A    between atoms: C_5  and  N_6
REMARK    3  A    between atoms: C_7  and  C_9
REMARK    4  A    between atoms: C_9  and  S_10
REMARK    5  A    between atoms: S_10  and  C_12
REMARK    6  A    between atoms: C_12  and  C_13
REMARK    7  A    between atoms: N_18  and  C_19
REMARK                            x       y       z     vdW  Elec       q    Type
REMARK                         _______ _______ _______ _____ _____    ______ ____
ROOT
ATOM      1  S   UNL     1       1.882   4.375  19.360  0.00  0.00    +0.000 S 
ATOM      2  O   UNL     1       0.800   4.023  20.453  0.00  0.00    +0.000 OA
ENDROOT
BRANCH   1   3
ATOM      3  C   UNL     1       3.301   3.288  19.675  0.00  0.00    +0.000 C 
BRANCH   3   5
ATOM      4  N   UNL     1       4.201   3.900  17.499  0.00  0.00    +0.000 N 
ATOM      5  C   UNL     1       4.489   3.695  18.838  0.00  0.00    +0.000 C 
ATOM      6  O   UNL     1       5.600   3.782  19.365  0.00  0.00    +0.000 OA
ATOM      7  H   UNL     1       3.215   4.015  17.258  0.00  0.00    +0.000 HD
BRANCH   4  12
ATOM      8  C   UNL     1       7.873   5.280  13.326  0.00  0.00    +0.000 C 
ATOM      9  C   UNL     1       6.925   4.912  14.428  0.00  0.00    +0.000 A 
ATOM     10  C   UNL     1       7.085   5.450  15.704  0.00  0.00    +0.000 A 
ATOM     11  C   UNL     1       6.199   5.117  16.731  0.00  0.00    +0.000 A 
ATOM     12  C   UNL     1       5.137   4.245  16.499  0.00  0.00    +0.000 A 
ATOM     13  C   UNL     1       4.985   3.685  15.230  0.00  0.00    +0.000 A 
ATOM     14  C   UNL     1       5.869   4.024  14.194  0.00  0.00    +0.000 A 
ENDBRANCH   4  12
ENDBRANCH   3   5
ENDBRANCH   1   3
BRANCH   1  15
ATOM     15  C   UNL     1       2.678   5.921  19.882  0.00  0.00    +0.000 C 
BRANCH  15  16
ATOM     16  C   UNL     1       2.671   7.005  18.824  0.00  0.00    +0.000 C 
ATOM     17  O   UNL     1       3.287   6.888  17.765  0.00  0.00    +0.000 OA
ATOM     18  N   UNL     1       1.894   8.128  19.090  0.00  0.00    +0.000 N 
ATOM     19  C   UNL     1       1.840   9.182  18.074  0.00  0.00    +0.000 C 
ATOM     20  C   UNL     1       0.525   9.981  18.133  0.00  0.00    +0.000 C 
ATOM     21  N   UNL     1       0.169  10.494  19.478  0.00  0.00    +0.000 NA
ATOM     22  C   UNL     1       0.183   9.366  20.427  0.00  0.00    +0.000 C 
ATOM     23  C   UNL     1       1.480   8.538  20.438  0.00  0.00    +0.000 C 
BRANCH  21  24
ATOM     24  C   UNL     1       0.983  11.652  19.878  0.00  0.00    +0.000 C 
ATOM     25  C   UNL     1       0.928  12.773  18.830  0.00  0.00    +0.000 C 
ATOM     26  C   UNL     1       1.439  13.995  19.573  0.00  0.00    +0.000 C 
ATOM     27  C   UNL     1       0.901  13.845  20.988  0.00  0.00    +0.000 C 
ATOM     28  C   UNL     1       0.507  12.376  21.150  0.00  0.00    +0.000 C 
ENDBRANCH  21  24
ENDBRANCH  15  16
ENDBRANCH   1  15
TORSDOF 6
ENDMDL
MODEL 4
REMARK VINA RESULT:      -6.8      1.945      7.837
REMARK  Name = 
REMARK  7 active torsions:
REMARK  status: ('A' for Active; 'I' for Inactive)
REMARK    1  A    between atoms: C_1  and  C_2
REMARK    2  A    between atoms: C_5  and  N_6
REMARK    3  A    between atoms: C_7  and  C_9
REMARK    4  A    between atoms: C_9  and  S_10
REMARK    5  A    between atoms: S_10  and  C_12
REMARK    6  A    between atoms: C_12  and  C_13
REMARK    7  A    between atoms: N_18  and  C_19
REMARK                            x       y       z     vdW  Elec       q    Type
REMARK                         _______ _______ _______ _____ _____    ______ ____
ROOT
ATOM      1  S   UNL     1       3.433   2.445  20.114  0.00  0.00    +0.000 S 
ATOM      2  O   UNL     1       2.377   2.048  19.013  0.00  0.00    +0.000 OA
ENDROOT
BRANCH   1   3
ATOM      3  C   UNL     1       2.542   3.431  21.349  0.00  0.00    +0.000 C 
BRANCH   3   5
ATOM      4  N   UNL     1       2.533   5.768  20.673  0.00  0.00    +0.000 N 
ATOM      5  C   UNL     1       1.816   4.584  20.698  0.00  0.00    +0.000 C 
ATOM      6  O   UNL     1       0.669   4.418  20.280  0.00  0.00    +0.000 OA
ATOM      7  H   UNL     1       3.537   5.697  20.844  0.00  0.00    +0.000 HD
BRANCH   4  12
ATOM      8  C   UNL     1       0.660  10.830  18.755  0.00  0.00    +0.000 C 
ATOM      9  C   UNL     1       1.141   9.497  19.245  0.00  0.00    +0.000 A 
ATOM     10  C   UNL     1       1.890   8.668  18.410  0.00  0.00    +0.000 A 
ATOM     11  C   UNL     1       2.348   7.430  18.866  0.00  0.00    +0.000 A 
ATOM     12  C   UNL     1       2.069   7.001  20.161  0.00  0.00    +0.000 A 
ATOM     13  C   UNL     1       1.298   7.814  20.994  0.00  0.00    +0.000 A 
ATOM     14  C   UNL     1       0.844   9.062  20.542  0.00  0.00    +0.000 A 
ENDBRANCH   4  12
ENDBRANCH   3   5
ENDBRANCH   1   3
BRANCH   1  15
ATOM     15  C   UNL     1       4.424   3.804  19.431  0.00  0.00    +0.000 C 
BRANCH  15  16
ATOM     16  C   UNL     1       3.969   4.272  18.063  0.00  0.00    +0.000 C 
ATOM     17  O   UNL     1       2.778   4.329  17.756  0.00  0.00    +0.000 OA
ATOM     18  N   UNL     1       4.965   4.681  17.183  0.00  0.00    +0.000 N 
ATOM     19  C   UNL     1       4.557   5.170  15.863  0.00  0.00    +0.000 C 
ATOM     20  C   UNL     1       5.569   6.171  15.275  0.00  0.00    +0.000 C 
ATOM     21  N   UNL     1       6.976   5.707  15.279  0.00  0.00    +0.000 NA
ATOM     22  C   UNL     1       7.329   5.295  16.651  0.00  0.00    +0.000 C 
ATOM     23  C   UNL     1       6.372   4.274  17.291  0.00  0.00    +0.000 C 
BRANCH  21  24
ATOM     24  C   UNL     1       7.247   4.703  14.240  0.00  0.00    +0.000 C 
ATOM     25  C   UNL     1       5.953   4.053  13.729  0.00  0.00    +0.000 C 
ATOM     26  C   UNL     1       6.363   3.397  12.422  0.00  0.00    +0.000 C 
ATOM     27  C   UNL     1       7.380   4.349  11.809  0.00  0.00    +0.000 C 
ATOM     28  C   UNL     1       7.864   5.255  12.943  0.00  0.00    +0.000 C 
ENDBRANCH  21  24
ENDBRANCH  15  16
ENDBRANCH   1  15
TORSDOF 6
ENDMDL
MODEL 5
REMARK VINA RESULT:      -6.8      5.000      7.869
REMARK  Name = 
REMARK  7 active torsions:
REMARK  status: ('A' for Active; 'I' for Inactive)
REMARK    1  A    between atoms: C_1  and  C_2
REMARK    2  A    between atoms: C_5  and  N_6
REMARK    3  A    between atoms: C_7  and  C_9
REMARK    4  A    between atoms: C_9  and  S_10
REMARK    5  A    between atoms: S_10  and  C_12
REMARK    6  A    between atoms: C_12  and  C_13
REMARK    7  A    between atoms: N_18  and  C_19
REMARK                            x       y       z     vdW  Elec       q    Type
REMARK                         _______ _______ _______ _____ _____    ______ ____
ROOT
ATOM      1  S   UNL     1       7.296   5.766  17.812  0.00  0.00    +0.000 S 
ATOM      2  O   UNL     1       6.735   5.676  19.283  0.00  0.00    +0.000 OA
ENDROOT
BRANCH   1   3
ATOM      3  C   UNL     1       7.280   7.523  17.362  0.00  0.00    +0.000 C 
BRANCH   3   5
ATOM      4  N   UNL     1       8.332   9.652  17.893  0.00  0.00    +0.000 N 
ATOM      5  C   UNL     1       8.243   8.309  18.219  0.00  0.00    +0.000 C 
ATOM      6  O   UNL     1       8.889   7.728  19.092  0.00  0.00    +0.000 OA
ATOM      7  H   UNL     1       7.581  10.030  17.311  0.00  0.00    +0.000 HD
BRANCH   4  12
ATOM      8  C   UNL     1      11.782  13.569  20.250  0.00  0.00    +0.000 C 
ATOM      9  C   UNL     1      10.887  12.531  19.642  0.00  0.00    +0.000 A 
ATOM     10  C   UNL     1      10.044  11.767  20.449  0.00  0.00    +0.000 A 
ATOM     11  C   UNL     1       9.202  10.806  19.886  0.00  0.00    +0.000 A 
ATOM     12  C   UNL     1       9.185  10.594  18.509  0.00  0.00    +0.000 A 
ATOM     13  C   UNL     1      10.044  11.338  17.698  0.00  0.00    +0.000 A 
ATOM     14  C   UNL     1      10.885  12.310  18.260  0.00  0.00    +0.000 A 
ENDBRANCH   4  12
ENDBRANCH   3   5
ENDBRANCH   1   3
BRANCH   1  15
ATOM     15  C   UNL     1       5.955   5.250  16.703  0.00  0.00    +0.000 C 
BRANCH  15  16
ATOM     16  C   UNL     1       4.575   5.673  17.164  0.00  0.00    +0.000 C 
ATOM     17  O   UNL     1       4.244   6.857  17.230  0.00  0.00    +0.000 OA
ATOM     18  N   UNL     1       3.681   4.652  17.468  0.00  0.00    +0.000 N 
ATOM     19  C   UNL     1       2.327   5.027  17.887  0.00  0.00    +0.000 C 
ATOM     20  C   UNL     1       1.291   3.938  17.549  0.00  0.00    +0.000 C 
ATOM     21  N   UNL     1       1.651   2.575  18.004  0.00  0.00    +0.000 NA
ATOM     22  C   UNL     1       2.994   2.249  17.489  0.00  0.00    +0.000 C 
ATOM     23  C   UNL     1       4.086   3.284  17.814  0.00  0.00    +0.000 C 
BRANCH  21  24
ATOM     24  C   UNL     1       1.481   2.397  19.454  0.00  0.00    +0.000 C 
ATOM     25  C   UNL     1       2.829   2.199  20.162  0.00  0.00    +0.000 C 
ATOM     26  C   UNL     1       2.516   2.459  21.625  0.00  0.00    +0.000 C 
ATOM     27  C   UNL     1       1.485   3.578  21.612  0.00  0.00    +0.000 C 
ATOM     28  C   UNL     1       0.902   3.613  20.197  0.00  0.00    +0.000 C 
ENDBRANCH  21  24
ENDBRANCH  15  16
ENDBRANCH   1  15
TORSDOF 6
ENDMDL
MODEL 6
REMARK VINA RESULT:      -6.6      4.357      6.598
REMARK  Name = 
REMARK  7 active torsions:
REMARK  status: ('A' for Active; 'I' for Inactive)
REMARK    1  A    between atoms: C_1  and  C_2
REMARK    2  A    between atoms: C_5  and  N_6
REMARK    3  A    between atoms: C_7  and  C_9
REMARK    4  A    between atoms: C_9  and  S_10
REMARK    5  A    between atoms: S_10  and  C_12
REMARK    6  A    between atoms: C_12  and  C_13
REMARK    7  A    between atoms: N_18  and  C_19
REMARK                            x       y       z     vdW  Elec       q    Type
REMARK                         _______ _______ _______ _____ _____    ______ ____
ROOT
ATOM      1  S   UNL     1       0.464  10.348  19.866  0.00  0.00    +0.000 S 
ATOM      2  O   UNL     1      -1.012   9.804  19.761  0.00  0.00    +0.000 OA
ENDROOT
BRANCH   1   3
ATOM      3  C   UNL     1       1.394   9.126  20.833  0.00  0.00    +0.000 C 
BRANCH   3   5
ATOM      4  N   UNL     1       1.848   6.740  20.696  0.00  0.00    +0.000 N 
ATOM      5  C   UNL     1       1.751   7.927  19.989  0.00  0.00    +0.000 C 
ATOM      6  O   UNL     1       1.959   8.075  18.784  0.00  0.00    +0.000 OA
ATOM      7  H   UNL     1       1.430   6.729  21.628  0.00  0.00    +0.000 HD
BRANCH   4  12
ATOM      8  C   UNL     1       3.459   1.675  18.563  0.00  0.00    +0.000 C 
ATOM      9  C   UNL     1       3.026   3.002  19.108  0.00  0.00    +0.000 A 
ATOM     10  C   UNL     1       1.701   3.209  19.491  0.00  0.00    +0.000 A 
ATOM     11  C   UNL     1       1.296   4.442  20.007  0.00  0.00    +0.000 A 
ATOM     12  C   UNL     1       2.207   5.486  20.154  0.00  0.00    +0.000 A 
ATOM     13  C   UNL     1       3.529   5.294  19.751  0.00  0.00    +0.000 A 
ATOM     14  C   UNL     1       3.941   4.054  19.239  0.00  0.00    +0.000 A 
ENDBRANCH   4  12
ENDBRANCH   3   5
ENDBRANCH   1   3
BRANCH   1  15
ATOM     15  C   UNL     1       0.457  11.656  21.126  0.00  0.00    +0.000 C 
BRANCH  15  16
ATOM     16  C   UNL     1      -0.533  11.425  22.249  0.00  0.00    +0.000 C 
ATOM     17  O   UNL     1      -0.292  10.665  23.186  0.00  0.00    +0.000 OA
ATOM     18  N   UNL     1      -1.717  12.153  22.192  0.00  0.00    +0.000 N 
ATOM     19  C   UNL     1      -2.684  11.978  23.280  0.00  0.00    +0.000 C 
ATOM     20  C   UNL     1      -3.560  13.228  23.486  0.00  0.00    +0.000 C 
ATOM     21  N   UNL     1      -4.204  13.747  22.256  0.00  0.00    +0.000 NA
ATOM     22  C   UNL     1      -3.160  13.957  21.236  0.00  0.00    +0.000 C 
ATOM     23  C   UNL     1      -2.262  12.738  20.960  0.00  0.00    +0.000 C 
BRANCH  21  24
ATOM     24  C   UNL     1      -5.342  12.924  21.820  0.00  0.00    +0.000 C 
ATOM     25  C   UNL     1      -6.445  12.872  22.886  0.00  0.00    +0.000 C 
ATOM     26  C   UNL     1      -7.663  12.371  22.130  0.00  0.00    +0.000 C 
ATOM     27  C   UNL     1      -7.556  13.008  20.752  0.00  0.00    +0.000 C 
ATOM     28  C   UNL     1      -6.103  13.460  20.595  0.00  0.00    +0.000 C 
ENDBRANCH  21  24
ENDBRANCH  15  16
ENDBRANCH   1  15
TORSDOF 6
ENDMDL
MODEL 7
REMARK VINA RESULT:      -6.6      2.023      7.778
REMARK  Name = 
REMARK  7 active torsions:
REMARK  status: ('A' for Active; 'I' for Inactive)
REMARK    1  A    between atoms: C_1  and  C_2
REMARK    2  A    between atoms: C_5  and  N_6
REMARK    3  A    between atoms: C_7  and  C_9
REMARK    4  A    between atoms: C_9  and  S_10
REMARK    5  A    between atoms: S_10  and  C_12
REMARK    6  A    between atoms: C_12  and  C_13
REMARK    7  A    between atoms: N_18  and  C_19
REMARK                            x       y       z     vdW  Elec       q    Type
REMARK                         _______ _______ _______ _____ _____    ______ ____
ROOT
ATOM      1  S   UNL     1       2.893   2.276  20.393  0.00  0.00    +0.000 S 
ATOM      2  O   UNL     1       1.671   2.152  19.404  0.00  0.00    +0.000 OA
ENDROOT
BRANCH   1   3
ATOM      3  C   UNL     1       2.477   3.602  21.560  0.00  0.00    +0.000 C 
BRANCH   3   5
ATOM      4  N   UNL     1       2.509   5.897  20.755  0.00  0.00    +0.000 N 
ATOM      5  C   UNL     1       1.765   4.734  20.861  0.00  0.00    +0.000 C 
ATOM      6  O   UNL     1       0.606   4.573  20.475  0.00  0.00    +0.000 OA
ATOM      7  H   UNL     1       3.515   5.811  20.910  0.00  0.00    +0.000 HD
BRANCH   4  12
ATOM      8  C   UNL     1       0.690  10.737  18.292  0.00  0.00    +0.000 C 
ATOM      9  C   UNL     1       1.176   9.480  18.948  0.00  0.00    +0.000 A 
ATOM     10  C   UNL     1       0.898   9.234  20.292  0.00  0.00    +0.000 A 
ATOM     11  C   UNL     1       1.341   8.059  20.905  0.00  0.00    +0.000 A 
ATOM     12  C   UNL     1       2.064   7.110  20.185  0.00  0.00    +0.000 A 
ATOM     13  C   UNL     1       2.366   7.361  18.845  0.00  0.00    +0.000 A 
ATOM     14  C   UNL     1       1.915   8.536  18.225  0.00  0.00    +0.000 A 
ENDBRANCH   4  12
ENDBRANCH   3   5
ENDBRANCH   1   3
BRANCH   1  15
ATOM     15  C   UNL     1       4.200   3.173  19.508  0.00  0.00    +0.000 C 
BRANCH  15  16
ATOM     16  C   UNL     1       3.764   3.739  18.172  0.00  0.00    +0.000 C 
ATOM     17  O   UNL     1       2.580   3.790  17.840  0.00  0.00    +0.000 OA
ATOM     18  N   UNL     1       4.769   4.244  17.354  0.00  0.00    +0.000 N 
ATOM     19  C   UNL     1       4.378   4.828  16.067  0.00  0.00    +0.000 C 
ATOM     20  C   UNL     1       5.376   5.899  15.588  0.00  0.00    +0.000 C 
ATOM     21  N   UNL     1       6.795   5.473  15.590  0.00  0.00    +0.000 NA
ATOM     22  C   UNL     1       7.127   4.959  16.933  0.00  0.00    +0.000 C 
ATOM     23  C   UNL     1       6.184   3.865  17.464  0.00  0.00    +0.000 C 
BRANCH  21  24
ATOM     24  C   UNL     1       7.117   4.563  14.480  0.00  0.00    +0.000 C 
ATOM     25  C   UNL     1       5.849   4.006  13.818  0.00  0.00    +0.000 C 
ATOM     26  C   UNL     1       6.338   3.465  12.486  0.00  0.00    +0.000 C 
ATOM     27  C   UNL     1       7.421   4.438  12.042  0.00  0.00    +0.000 C 
ATOM     28  C   UNL     1       7.842   5.217  13.290  0.00  0.00    +0.000 C 
ENDBRANCH  21  24
ENDBRANCH  15  16
ENDBRANCH   1  15
TORSDOF 6
ENDMDL
MODEL 8
REMARK VINA RESULT:      -6.6      1.899      8.439
REMARK  Name = 
REMARK  7 active torsions:
REMARK  status: ('A' for Active; 'I' for Inactive)
REMARK    1  A    between atoms: C_1  and  C_2
REMARK    2  A    between atoms: C_5  and  N_6
REMARK    3  A    between atoms: C_7  and  C_9
REMARK    4  A    between atoms: C_9  and  S_10
REMARK    5  A    between atoms: S_10  and  C_12
REMARK    6  A    between atoms: C_12  and  C_13
REMARK    7  A    between atoms: N_18  and  C_19
REMARK                            x       y       z     vdW  Elec       q    Type
REMARK                         _______ _______ _______ _____ _____    ______ ____
ROOT
ATOM      1  S   UNL     1       2.846   3.740  19.408  0.00  0.00    +0.000 S 
ATOM      2  O   UNL     1       1.708   2.652  19.493  0.00  0.00    +0.000 OA
ENDROOT
BRANCH   1   3
ATOM      3  C   UNL     1       2.703   4.751  20.907  0.00  0.00    +0.000 C 
BRANCH   3   5
ATOM      4  N   UNL     1       2.042   7.093  20.905  0.00  0.00    +0.000 N 
ATOM      5  C   UNL     1       1.612   5.784  20.762  0.00  0.00    +0.000 C 
ATOM      6  O   UNL     1       0.453   5.415  20.568  0.00  0.00    +0.000 OA
ATOM      7  H   UNL     1       3.049   7.252  20.833  0.00  0.00    +0.000 HD
BRANCH   4  12
ATOM      8  C   UNL     1      -1.257  11.774  20.865  0.00  0.00    +0.000 C 
ATOM      9  C   UNL     1      -0.405  10.541  20.864  0.00  0.00    +0.000 A 
ATOM     10  C   UNL     1       0.236  10.129  19.696  0.00  0.00    +0.000 A 
ATOM     11  C   UNL     1       1.039   8.986  19.692  0.00  0.00    +0.000 A 
ATOM     12  C   UNL     1       1.219   8.239  20.855  0.00  0.00    +0.000 A 
ATOM     13  C   UNL     1       0.561   8.633  22.021  0.00  0.00    +0.000 A 
ATOM     14  C   UNL     1      -0.239   9.785  22.030  0.00  0.00    +0.000 A 
ENDBRANCH   4  12
ENDBRANCH   3   5
ENDBRANCH   1   3
BRANCH   1  15
ATOM     15  C   UNL     1       2.278   5.009  18.240  0.00  0.00    +0.000 C 
BRANCH  15  16
ATOM     16  C   UNL     1       3.363   5.968  17.796  0.00  0.00    +0.000 C 
ATOM     17  O   UNL     1       3.364   7.153  18.131  0.00  0.00    +0.000 OA
ATOM     18  N   UNL     1       4.388   5.432  17.024  0.00  0.00    +0.000 N 
ATOM     19  C   UNL     1       5.471   6.326  16.603  0.00  0.00    +0.000 C 
ATOM     20  C   UNL     1       6.795   5.571  16.379  0.00  0.00    +0.000 C 
ATOM     21  N   UNL     1       6.691   4.382  15.501  0.00  0.00    +0.000 NA
ATOM     22  C   UNL     1       5.629   3.505  16.026  0.00  0.00    +0.000 C 
ATOM     23  C   UNL     1       4.269   4.189  16.250  0.00  0.00    +0.000 C 
BRANCH  21  24
ATOM     24  C   UNL     1       6.560   4.735  14.079  0.00  0.00    +0.000 C 
ATOM     25  C   UNL     1       7.884   5.248  13.497  0.00  0.00    +0.000 C 
ATOM     26  C   UNL     1       7.687   5.151  11.995  0.00  0.00    +0.000 C 
ATOM     27  C   UNL     1       6.862   3.889  11.789  0.00  0.00    +0.000 C 
ATOM     28  C   UNL     1       6.231   3.559  13.143  0.00  0.00    +0.000 C 
ENDBRANCH  21  24
ENDBRANCH  15  16
ENDBRANCH   1  15
TORSDOF 6
ENDMDL
MODEL 9
REMARK VINA RESULT:      -6.5      1.961      7.974
REMARK  Name = 
REMARK  7 active torsions:
REMARK  status: ('A' for Active; 'I' for Inactive)
REMARK    1  A    between atoms: C_1  and  C_2
REMARK    2  A    between atoms: C_5  and  N_6
REMARK    3  A    between atoms: C_7  and  C_9
REMARK    4  A    between atoms: C_9  and  S_10
REMARK    5  A    between atoms: S_10  and  C_12
REMARK    6  A    between atoms: C_12  and  C_13
REMARK    7  A    between atoms: N_18  and  C_19
REMARK                            x       y       z     vdW  Elec       q    Type
REMARK                         _______ _______ _______ _____ _____    ______ ____
ROOT
ATOM      1  S   UNL     1       1.672   4.386  19.910  0.00  0.00    +0.000 S 
ATOM      2  O   UNL     1       0.240   4.953  20.251  0.00  0.00    +0.000 OA
ENDROOT
BRANCH   1   3
ATOM      3  C   UNL     1       2.842   5.746  20.182  0.00  0.00    +0.000 C 
BRANCH   3   5
ATOM      4  N   UNL     1       1.503   7.464  21.265  0.00  0.00    +0.000 N 
ATOM      5  C   UNL     1       2.146   7.082  20.099  0.00  0.00    +0.000 C 
ATOM      6  O   UNL     1       2.160   7.708  19.038  0.00  0.00    +0.000 OA
ATOM      7  H   UNL     1       1.767   6.963  22.116  0.00  0.00    +0.000 HD
BRANCH   4  12
ATOM      8  C   UNL     1      -1.651  12.210  21.834  0.00  0.00    +0.000 C 
ATOM      9  C   UNL     1      -0.812  10.976  21.693  0.00  0.00    +0.000 A 
ATOM     10  C   UNL     1      -0.305  10.335  22.823  0.00  0.00    +0.000 A 
ATOM     11  C   UNL     1       0.470   9.180  22.696  0.00  0.00    +0.000 A 
ATOM     12  C   UNL     1       0.747   8.644  21.440  0.00  0.00    +0.000 A 
ATOM     13  C   UNL     1       0.263   9.294  20.304  0.00  0.00    +0.000 A 
ATOM     14  C   UNL     1      -0.522  10.450  20.428  0.00  0.00    +0.000 A 
ENDBRANCH   4  12
ENDBRANCH   3   5
ENDBRANCH   1   3
BRANCH   1  15
ATOM     15  C   UNL     1       1.807   4.345  18.101  0.00  0.00    +0.000 C 
BRANCH  15  16
ATOM     16  C   UNL     1       3.035   3.618  17.590  0.00  0.00    +0.000 C 
ATOM     17  O   UNL     1       3.124   2.391  17.616  0.00  0.00    +0.000 OA
ATOM     18  N   UNL     1       4.042   4.407  17.045  0.00  0.00    +0.000 N 
ATOM     19  C   UNL     1       5.230   3.734  16.513  0.00  0.00    +0.000 C 
ATOM     20  C   UNL     1       5.909   4.548  15.396  0.00  0.00    +0.000 C 
ATOM     21  N   UNL     1       6.186   5.963  15.738  0.00  0.00    +0.000 NA
ATOM     22  C   UNL     1       4.932   6.586  16.202  0.00  0.00    +0.000 C 
ATOM     23  C   UNL     1       4.213   5.837  17.337  0.00  0.00    +0.000 C 
BRANCH  21  24
ATOM     24  C   UNL     1       7.329   6.114  16.651  0.00  0.00    +0.000 C 
ATOM     25  C   UNL     1       7.292   7.459  17.389  0.00  0.00    +0.000 C 
ATOM     26  C   UNL     1       8.251   7.267  18.550  0.00  0.00    +0.000 C 
ATOM     27  C   UNL     1       8.058   5.821  18.982  0.00  0.00    +0.000 C 
ATOM     28  C   UNL     1       7.371   5.108  17.815  0.00  0.00    +0.000 C 
ENDBRANCH  21  24
ENDBRANCH  15  16
ENDBRANCH   1  15
TORSDOF 6
ENDMDL
