MODEL 1
REMARK VINA RESULT:      -8.4      0.000      0.000
REMARK  Name = 
REMARK  6 active torsions:
REMARK  status: ('A' for Active; 'I' for Inactive)
REMARK    1  A    between atoms: C_2  and  C_3
REMARK    2  A    between atoms: C_4  and  C_5
REMARK    3  A    between atoms: C_8  and  N_9
REMARK    4  A    between atoms: N_14  and  C_15
REMARK    5  A    between atoms: C_15  and  C_16
REMARK    6  A    between atoms: N_18  and  C_19
REMARK                            x       y       z     vdW  Elec       q    Type
REMARK                         _______ _______ _______ _____ _____    ______ ____
ROOT
ATOM      1  O   UNL     1       5.930   7.427  17.207  0.00  0.00    +0.000 OA
ATOM      2  C   UNL     1       7.119   7.414  17.496  0.00  0.00    +0.000 C 
ATOM      3  N   UNL     1       7.849   6.271  17.698  0.00  0.00    +0.000 N 
ATOM      4  H   UNL     1       8.835   6.310  17.935  0.00  0.00    +0.000 HD
ENDROOT
BRANCH   2   5
ATOM      5  C   UNL     1       7.933   8.653  17.638  0.00  0.00    +0.000 C 
ATOM      6  C   UNL     1       8.507   9.002  18.800  0.00  0.00    +0.000 C 
BRANCH   6   7
ATOM      7  C   UNL     1       9.266  10.257  18.976  0.00  0.00    +0.000 A 
ATOM      8  C   UNL     1       9.664  10.693  20.250  0.00  0.00    +0.000 A 
ATOM      9  C   UNL     1      10.378  11.884  20.418  0.00  0.00    +0.000 A 
ATOM     10  C   UNL     1      10.723  12.644  19.297  0.00  0.00    +0.000 A 
ATOM     11  C   UNL     1      10.369  12.212  18.013  0.00  0.00    +0.000 A 
ATOM     12  C   UNL     1       9.646  11.018  17.859  0.00  0.00    +0.000 A 
BRANCH  10  13
ATOM     13  N   UNL     1      11.465  13.899  19.474  0.00  0.00    +0.000 N 
ATOM     14  O   UNL     1      12.318  14.190  18.622  0.00  0.00    +0.000 OA
ATOM     15  O   UNL     1      11.201  14.591  20.466  0.00  0.00    +0.000 OA
ENDBRANCH  10  13
ENDBRANCH   6   7
ENDBRANCH   2   5
BRANCH   3  16
ATOM     16  C   UNL     1       7.278   4.941  17.555  0.00  0.00    +0.000 C 
BRANCH  16  17
ATOM     17  C   UNL     1       6.379   4.619  18.760  0.00  0.00    +0.000 C 
ATOM     18  O   UNL     1       6.644   5.008  19.897  0.00  0.00    +0.000 OA
ATOM     19  N   UNL     1       5.253   3.865  18.470  0.00  0.00    +0.000 N 
ATOM     20  H   UNL     1       5.152   3.496  17.528  0.00  0.00    +0.000 HD
BRANCH  19  21
ATOM     21  C   UNL     1       4.301   3.473  19.515  0.00  0.00    +0.000 C 
ATOM     22  C   UNL     1       4.038   1.959  19.515  0.00  0.00    +0.000 C 
ATOM     23  C   UNL     1       3.063   1.694  18.379  0.00  0.00    +0.000 C 
ATOM     24  S   UNL     1       1.896   3.036  18.477  0.00  0.00    +0.000 S 
ATOM     25  O   UNL     1       0.801   2.637  19.338  0.00  0.00    +0.000 OA
ATOM     26  O   UNL     1       1.686   3.558  17.143  0.00  0.00    +0.000 OA
ATOM     27  C   UNL     1       2.945   4.167  19.373  0.00  0.00    +0.000 C 
ENDBRANCH  19  21
ENDBRANCH  16  17
ENDBRANCH   3  16
TORSDOF 6
ENDMDL
MODEL 2
REMARK VINA RESULT:      -8.3      1.750      2.458
REMARK  Name = 
REMARK  6 active torsions:
REMARK  status: ('A' for Active; 'I' for Inactive)
REMARK    1  A    between atoms: C_2  and  C_3
REMARK    2  A    between atoms: C_4  and  C_5
REMARK    3  A    between atoms: C_8  and  N_9
REMARK    4  A    between atoms: N_14  and  C_15
REMARK    5  A    between atoms: C_15  and  C_16
REMARK    6  A    between atoms: N_18  and  C_19
REMARK                            x       y       z     vdW  Elec       q    Type
REMARK                         _______ _______ _______ _____ _____    ______ ____
ROOT
ATOM      1  O   UNL     1       7.196   5.913  18.653  0.00  0.00    +0.000 OA
ATOM      2  C   UNL     1       7.445   6.589  17.663  0.00  0.00    +0.000 C 
ATOM      3  N   UNL     1       7.489   6.093  16.385  0.00  0.00    +0.000 N 
ATOM      4  H   UNL     1       7.699   6.693  15.594  0.00  0.00    +0.000 HD
ENDROOT
BRANCH   2   5
ATOM      5  C   UNL     1       7.707   8.053  17.725  0.00  0.00    +0.000 C 
ATOM      6  C   UNL     1       8.646   8.579  18.527  0.00  0.00    +0.000 C 
BRANCH   6   7
ATOM      7  C   UNL     1       8.878  10.033  18.647  0.00  0.00    +0.000 A 
ATOM      8  C   UNL     1       8.457  10.921  17.643  0.00  0.00    +0.000 A 
ATOM      9  C   UNL     1       8.681  12.297  17.752  0.00  0.00    +0.000 A 
ATOM     10  C   UNL     1       9.312  12.803  18.892  0.00  0.00    +0.000 A 
ATOM     11  C   UNL     1       9.709  11.942  19.923  0.00  0.00    +0.000 A 
ATOM     12  C   UNL     1       9.485  10.561  19.797  0.00  0.00    +0.000 A 
BRANCH  10  13
ATOM     13  N   UNL     1       9.555  14.247  19.003  0.00  0.00    +0.000 N 
ATOM     14  O   UNL     1      10.392  14.629  19.835  0.00  0.00    +0.000 OA
ATOM     15  O   UNL     1       8.906  15.000  18.265  0.00  0.00    +0.000 OA
ENDBRANCH  10  13
ENDBRANCH   6   7
ENDBRANCH   2   5
BRANCH   3  16
ATOM     16  C   UNL     1       7.209   4.700  16.075  0.00  0.00    +0.000 C 
BRANCH  16  17
ATOM     17  C   UNL     1       5.691   4.459  16.044  0.00  0.00    +0.000 C 
ATOM     18  O   UNL     1       4.991   4.819  15.099  0.00  0.00    +0.000 OA
ATOM     19  N   UNL     1       5.177   3.805  17.152  0.00  0.00    +0.000 N 
ATOM     20  H   UNL     1       5.799   3.627  17.937  0.00  0.00    +0.000 HD
BRANCH  19  21
ATOM     21  C   UNL     1       3.745   3.507  17.271  0.00  0.00    +0.000 C 
ATOM     22  C   UNL     1       2.992   4.602  18.042  0.00  0.00    +0.000 C 
ATOM     23  C   UNL     1       3.274   4.359  19.516  0.00  0.00    +0.000 C 
ATOM     24  S   UNL     1       3.178   2.590  19.698  0.00  0.00    +0.000 S 
ATOM     25  O   UNL     1       1.814   2.231  20.032  0.00  0.00    +0.000 OA
ATOM     26  O   UNL     1       4.312   2.149  20.482  0.00  0.00    +0.000 OA
ATOM     27  C   UNL     1       3.472   2.182  17.986  0.00  0.00    +0.000 C 
ENDBRANCH  19  21
ENDBRANCH  16  17
ENDBRANCH   3  16
TORSDOF 6
ENDMDL
MODEL 3
REMARK VINA RESULT:      -8.2      1.692      2.270
REMARK  Name = 
REMARK  6 active torsions:
REMARK  status: ('A' for Active; 'I' for Inactive)
REMARK    1  A    between atoms: C_2  and  C_3
REMARK    2  A    between atoms: C_4  and  C_5
REMARK    3  A    between atoms: C_8  and  N_9
REMARK    4  A    between atoms: N_14  and  C_15
REMARK    5  A    between atoms: C_15  and  C_16
REMARK    6  A    between atoms: N_18  and  C_19
REMARK                            x       y       z     vdW  Elec       q    Type
REMARK                         _______ _______ _______ _____ _____    ______ ____
ROOT
ATOM      1  O   UNL     1       7.189   6.157  18.669  0.00  0.00    +0.000 OA
ATOM      2  C   UNL     1       7.505   6.746  17.644  0.00  0.00    +0.000 C 
ATOM      3  N   UNL     1       7.548   6.161  16.404  0.00  0.00    +0.000 N 
ATOM      4  H   UNL     1       7.815   6.692  15.580  0.00  0.00    +0.000 HD
ENDROOT
BRANCH   2   5
ATOM      5  C   UNL     1       7.858   8.192  17.614  0.00  0.00    +0.000 C 
ATOM      6  C   UNL     1       8.603   8.767  18.572  0.00  0.00    +0.000 C 
BRANCH   6   7
ATOM      7  C   UNL     1       8.912  10.211  18.591  0.00  0.00    +0.000 A 
ATOM      8  C   UNL     1       9.850  10.742  19.493  0.00  0.00    +0.000 A 
ATOM      9  C   UNL     1      10.139  12.109  19.516  0.00  0.00    +0.000 A 
ATOM     10  C   UNL     1       9.503  12.963  18.610  0.00  0.00    +0.000 A 
ATOM     11  C   UNL     1       8.591  12.453  17.677  0.00  0.00    +0.000 A 
ATOM     12  C   UNL     1       8.305  11.078  17.669  0.00  0.00    +0.000 A 
BRANCH  10  13
ATOM     13  N   UNL     1       9.800  14.401  18.640  0.00  0.00    +0.000 N 
ATOM     14  O   UNL     1       8.859  15.181  18.846  0.00  0.00    +0.000 OA
ATOM     15  O   UNL     1      10.973  14.752  18.451  0.00  0.00    +0.000 OA
ENDBRANCH  10  13
ENDBRANCH   6   7
ENDBRANCH   2   5
BRANCH   3  16
ATOM     16  C   UNL     1       7.187   4.771  16.181  0.00  0.00    +0.000 C 
BRANCH  16  17
ATOM     17  C   UNL     1       5.658   4.626  16.106  0.00  0.00    +0.000 C 
ATOM     18  O   UNL     1       5.018   4.953  15.108  0.00  0.00    +0.000 OA
ATOM     19  N   UNL     1       5.061   4.097  17.239  0.00  0.00    +0.000 N 
ATOM     20  H   UNL     1       5.642   3.943  18.060  0.00  0.00    +0.000 HD
BRANCH  19  21
ATOM     21  C   UNL     1       3.609   3.902  17.322  0.00  0.00    +0.000 C 
ATOM     22  C   UNL     1       2.928   5.001  18.151  0.00  0.00    +0.000 C 
ATOM     23  C   UNL     1       3.166   4.647  19.610  0.00  0.00    +0.000 C 
ATOM     24  S   UNL     1       2.934   2.882  19.679  0.00  0.00    +0.000 S 
ATOM     25  O   UNL     1       1.542   2.609  19.974  0.00  0.00    +0.000 OA
ATOM     26  O   UNL     1       4.019   2.309  20.448  0.00  0.00    +0.000 OA
ATOM     27  C   UNL     1       3.226   2.560  17.949  0.00  0.00    +0.000 C 
ENDBRANCH  19  21
ENDBRANCH  16  17
ENDBRANCH   3  16
TORSDOF 6
ENDMDL
MODEL 4
REMARK VINA RESULT:      -8.1      1.491      1.957
REMARK  Name = 
REMARK  6 active torsions:
REMARK  status: ('A' for Active; 'I' for Inactive)
REMARK    1  A    between atoms: C_2  and  C_3
REMARK    2  A    between atoms: C_4  and  C_5
REMARK    3  A    between atoms: C_8  and  N_9
REMARK    4  A    between atoms: N_14  and  C_15
REMARK    5  A    between atoms: C_15  and  C_16
REMARK    6  A    between atoms: N_18  and  C_19
REMARK                            x       y       z     vdW  Elec       q    Type
REMARK                         _______ _______ _______ _____ _____    ______ ____
ROOT
ATOM      1  O   UNL     1       7.909   6.653  18.642  0.00  0.00    +0.000 OA
ATOM      2  C   UNL     1       7.665   7.523  17.816  0.00  0.00    +0.000 C 
ATOM      3  N   UNL     1       6.861   7.338  16.721  0.00  0.00    +0.000 N 
ATOM      4  H   UNL     1       6.686   8.092  16.063  0.00  0.00    +0.000 HD
ENDROOT
BRANCH   2   5
ATOM      5  C   UNL     1       8.197   8.909  17.917  0.00  0.00    +0.000 C 
ATOM      6  C   UNL     1       8.944   9.316  18.956  0.00  0.00    +0.000 C 
BRANCH   6   7
ATOM      7  C   UNL     1       9.429  10.703  19.102  0.00  0.00    +0.000 A 
ATOM      8  C   UNL     1       9.479  11.326  20.361  0.00  0.00    +0.000 A 
ATOM      9  C   UNL     1       9.932  12.642  20.500  0.00  0.00    +0.000 A 
ATOM     10  C   UNL     1      10.366  13.343  19.372  0.00  0.00    +0.000 A 
ATOM     11  C   UNL     1      10.359  12.732  18.112  0.00  0.00    +0.000 A 
ATOM     12  C   UNL     1       9.895  11.413  17.985  0.00  0.00    +0.000 A 
BRANCH  10  13
ATOM     13  N   UNL     1      10.835  14.728  19.517  0.00  0.00    +0.000 N 
ATOM     14  O   UNL     1      11.138  15.118  20.654  0.00  0.00    +0.000 OA
ATOM     15  O   UNL     1      10.895  15.427  18.496  0.00  0.00    +0.000 OA
ENDBRANCH  10  13
ENDBRANCH   6   7
ENDBRANCH   2   5
BRANCH   3  16
ATOM     16  C   UNL     1       6.185   6.080  16.448  0.00  0.00    +0.000 C 
BRANCH  16  17
ATOM     17  C   UNL     1       4.774   6.093  17.060  0.00  0.00    +0.000 C 
ATOM     18  O   UNL     1       4.187   7.140  17.328  0.00  0.00    +0.000 OA
ATOM     19  N   UNL     1       4.216   4.844  17.279  0.00  0.00    +0.000 N 
ATOM     20  H   UNL     1       4.799   4.024  17.126  0.00  0.00    +0.000 HD
BRANCH  19  21
ATOM     21  C   UNL     1       2.878   4.692  17.862  0.00  0.00    +0.000 C 
ATOM     22  C   UNL     1       2.902   4.809  19.394  0.00  0.00    +0.000 C 
ATOM     23  C   UNL     1       3.398   3.471  19.918  0.00  0.00    +0.000 C 
ATOM     24  S   UNL     1       2.577   2.265  18.896  0.00  0.00    +0.000 S 
ATOM     25  O   UNL     1       1.324   1.900  19.525  0.00  0.00    +0.000 OA
ATOM     26  O   UNL     1       3.553   1.280  18.478  0.00  0.00    +0.000 OA
ATOM     27  C   UNL     1       2.233   3.348  17.521  0.00  0.00    +0.000 C 
ENDBRANCH  19  21
ENDBRANCH  16  17
ENDBRANCH   3  16
TORSDOF 6
ENDMDL
MODEL 5
REMARK VINA RESULT:      -8.1      1.580      2.220
REMARK  Name = 
REMARK  6 active torsions:
REMARK  status: ('A' for Active; 'I' for Inactive)
REMARK    1  A    between atoms: C_2  and  C_3
REMARK    2  A    between atoms: C_4  and  C_5
REMARK    3  A    between atoms: C_8  and  N_9
REMARK    4  A    between atoms: N_14  and  C_15
REMARK    5  A    between atoms: C_15  and  C_16
REMARK    6  A    between atoms: N_18  and  C_19
REMARK                            x       y       z     vdW  Elec       q    Type
REMARK                         _______ _______ _______ _____ _____    ______ ____
ROOT
ATOM      1  O   UNL     1       7.974   6.631  18.995  0.00  0.00    +0.000 OA
ATOM      2  C   UNL     1       7.897   7.304  17.976  0.00  0.00    +0.000 C 
ATOM      3  N   UNL     1       7.472   6.819  16.766  0.00  0.00    +0.000 N 
ATOM      4  H   UNL     1       7.423   7.417  15.946  0.00  0.00    +0.000 HD
ENDROOT
BRANCH   2   5
ATOM      5  C   UNL     1       8.234   8.753  17.933  0.00  0.00    +0.000 C 
ATOM      6  C   UNL     1       8.994   9.340  18.872  0.00  0.00    +0.000 C 
BRANCH   6   7
ATOM      7  C   UNL     1       9.287  10.787  18.879  0.00  0.00    +0.000 A 
ATOM      8  C   UNL     1       8.809  11.631  17.862  0.00  0.00    +0.000 A 
ATOM      9  C   UNL     1       9.091  13.000  17.864  0.00  0.00    +0.000 A 
ATOM     10  C   UNL     1       9.843  13.546  18.908  0.00  0.00    +0.000 A 
ATOM     11  C   UNL     1      10.301  12.733  19.952  0.00  0.00    +0.000 A 
ATOM     12  C   UNL     1      10.016  11.358  19.934  0.00  0.00    +0.000 A 
BRANCH  10  13
ATOM     13  N   UNL     1      10.146  14.983  18.907  0.00  0.00    +0.000 N 
ATOM     14  O   UNL     1      10.851  15.423  17.986  0.00  0.00    +0.000 OA
ATOM     15  O   UNL     1       9.684  15.672  19.827  0.00  0.00    +0.000 OA
ENDBRANCH  10  13
ENDBRANCH   6   7
ENDBRANCH   2   5
BRANCH   3  16
ATOM     16  C   UNL     1       7.035   5.445  16.582  0.00  0.00    +0.000 C 
BRANCH  16  17
ATOM     17  C   UNL     1       5.503   5.387  16.465  0.00  0.00    +0.000 C 
ATOM     18  O   UNL     1       4.909   5.763  15.456  0.00  0.00    +0.000 OA
ATOM     19  N   UNL     1       4.848   4.876  17.574  0.00  0.00    +0.000 N 
ATOM     20  H   UNL     1       5.396   4.679  18.408  0.00  0.00    +0.000 HD
BRANCH  19  21
ATOM     21  C   UNL     1       3.385   4.762  17.617  0.00  0.00    +0.000 C 
ATOM     22  C   UNL     1       2.836   4.939  19.040  0.00  0.00    +0.000 C 
ATOM     23  C   UNL     1       3.066   3.617  19.756  0.00  0.00    +0.000 C 
ATOM     24  S   UNL     1       2.658   2.381  18.540  0.00  0.00    +0.000 S 
ATOM     25  O   UNL     1       1.252   2.054  18.664  0.00  0.00    +0.000 OA
ATOM     26  O   UNL     1       3.694   1.370  18.551  0.00  0.00    +0.000 OA
ATOM     27  C   UNL     1       2.881   3.412  17.102  0.00  0.00    +0.000 C 
ENDBRANCH  19  21
ENDBRANCH  16  17
ENDBRANCH   3  16
TORSDOF 6
ENDMDL
MODEL 6
REMARK VINA RESULT:      -8.0      1.608      2.089
REMARK  Name = 
REMARK  6 active torsions:
REMARK  status: ('A' for Active; 'I' for Inactive)
REMARK    1  A    between atoms: C_2  and  C_3
REMARK    2  A    between atoms: C_4  and  C_5
REMARK    3  A    between atoms: C_8  and  N_9
REMARK    4  A    between atoms: N_14  and  C_15
REMARK    5  A    between atoms: C_15  and  C_16
REMARK    6  A    between atoms: N_18  and  C_19
REMARK                            x       y       z     vdW  Elec       q    Type
REMARK                         _______ _______ _______ _____ _____    ______ ____
ROOT
ATOM      1  O   UNL     1       7.711   6.742  16.338  0.00  0.00    +0.000 OA
ATOM      2  C   UNL     1       7.668   6.843  17.557  0.00  0.00    +0.000 C 
ATOM      3  N   UNL     1       7.189   5.865  18.391  0.00  0.00    +0.000 N 
ATOM      4  H   UNL     1       7.174   5.993  19.398  0.00  0.00    +0.000 HD
ENDROOT
BRANCH   2   5
ATOM      5  C   UNL     1       8.158   8.041  18.291  0.00  0.00    +0.000 C 
ATOM      6  C   UNL     1       8.217   9.255  17.721  0.00  0.00    +0.000 C 
BRANCH   6   7
ATOM      7  C   UNL     1       8.757  10.442  18.414  0.00  0.00    +0.000 A 
ATOM      8  C   UNL     1       9.401  10.327  19.658  0.00  0.00    +0.000 A 
ATOM      9  C   UNL     1       9.908  11.451  20.318  0.00  0.00    +0.000 A 
ATOM     10  C   UNL     1       9.795  12.709  19.720  0.00  0.00    +0.000 A 
ATOM     11  C   UNL     1       9.190  12.845  18.464  0.00  0.00    +0.000 A 
ATOM     12  C   UNL     1       8.679  11.710  17.816  0.00  0.00    +0.000 A 
BRANCH  10  13
ATOM     13  N   UNL     1      10.321  13.891  20.416  0.00  0.00    +0.000 N 
ATOM     14  O   UNL     1      11.510  14.190  20.229  0.00  0.00    +0.000 OA
ATOM     15  O   UNL     1       9.548  14.518  21.154  0.00  0.00    +0.000 OA
ENDBRANCH  10  13
ENDBRANCH   6   7
ENDBRANCH   2   5
BRANCH   3  16
ATOM     16  C   UNL     1       6.710   4.582  17.902  0.00  0.00    +0.000 C 
BRANCH  16  17
ATOM     17  C   UNL     1       5.181   4.613  17.744  0.00  0.00    +0.000 C 
ATOM     18  O   UNL     1       4.628   5.254  16.852  0.00  0.00    +0.000 OA
ATOM     19  N   UNL     1       4.479   3.864  18.675  0.00  0.00    +0.000 N 
ATOM     20  H   UNL     1       4.997   3.443  19.442  0.00  0.00    +0.000 HD
BRANCH  19  21
ATOM     21  C   UNL     1       3.013   3.798  18.658  0.00  0.00    +0.000 C 
ATOM     22  C   UNL     1       2.374   5.005  19.363  0.00  0.00    +0.000 C 
ATOM     23  C   UNL     1       2.476   4.732  20.855  0.00  0.00    +0.000 C 
ATOM     24  S   UNL     1       2.084   3.002  21.015  0.00  0.00    +0.000 S 
ATOM     25  O   UNL     1       0.656   2.866  21.218  0.00  0.00    +0.000 OA
ATOM     26  O   UNL     1       3.056   2.393  21.898  0.00  0.00    +0.000 OA
ATOM     27  C   UNL     1       2.469   2.539  19.336  0.00  0.00    +0.000 C 
ENDBRANCH  19  21
ENDBRANCH  16  17
ENDBRANCH   3  16
TORSDOF 6
ENDMDL
MODEL 7
REMARK VINA RESULT:      -7.9      1.571      2.171
REMARK  Name = 
REMARK  6 active torsions:
REMARK  status: ('A' for Active; 'I' for Inactive)
REMARK    1  A    between atoms: C_2  and  C_3
REMARK    2  A    between atoms: C_4  and  C_5
REMARK    3  A    between atoms: C_8  and  N_9
REMARK    4  A    between atoms: N_14  and  C_15
REMARK    5  A    between atoms: C_15  and  C_16
REMARK    6  A    between atoms: N_18  and  C_19
REMARK                            x       y       z     vdW  Elec       q    Type
REMARK                         _______ _______ _______ _____ _____    ______ ____
ROOT
ATOM      1  O   UNL     1       7.526   5.194  19.017  0.00  0.00    +0.000 OA
ATOM      2  C   UNL     1       7.745   6.115  18.240  0.00  0.00    +0.000 C 
ATOM      3  N   UNL     1       7.560   6.036  16.884  0.00  0.00    +0.000 N 
ATOM      4  H   UNL     1       7.754   6.827  16.278  0.00  0.00    +0.000 HD
ENDROOT
BRANCH   2   5
ATOM      5  C   UNL     1       8.219   7.454  18.683  0.00  0.00    +0.000 C 
ATOM      6  C   UNL     1       8.101   8.547  17.912  0.00  0.00    +0.000 C 
BRANCH   6   7
ATOM      7  C   UNL     1       8.621   9.871  18.309  0.00  0.00    +0.000 A 
ATOM      8  C   UNL     1       9.458  10.017  19.428  0.00  0.00    +0.000 A 
ATOM      9  C   UNL     1       9.946  11.271  19.808  0.00  0.00    +0.000 A 
ATOM     10  C   UNL     1       9.616  12.397  19.050  0.00  0.00    +0.000 A 
ATOM     11  C   UNL     1       8.812  12.272  17.909  0.00  0.00    +0.000 A 
ATOM     12  C   UNL     1       8.323  11.008  17.542  0.00  0.00    +0.000 A 
BRANCH  10  13
ATOM     13  N   UNL     1      10.122  13.715  19.454  0.00  0.00    +0.000 N 
ATOM     14  O   UNL     1      10.314  13.914  20.662  0.00  0.00    +0.000 OA
ATOM     15  O   UNL     1      10.324  14.554  18.564  0.00  0.00    +0.000 OA
ENDBRANCH  10  13
ENDBRANCH   6   7
ENDBRANCH   2   5
BRANCH   3  16
ATOM     16  C   UNL     1       7.047   4.842  16.231  0.00  0.00    +0.000 C 
BRANCH  16  17
ATOM     17  C   UNL     1       5.510   4.879  16.189  0.00  0.00    +0.000 C 
ATOM     18  O   UNL     1       4.891   5.175  15.168  0.00  0.00    +0.000 OA
ATOM     19  N   UNL     1       4.881   4.551  17.379  0.00  0.00    +0.000 N 
ATOM     20  H   UNL     1       5.458   4.415  18.206  0.00  0.00    +0.000 HD
BRANCH  19  21
ATOM     21  C   UNL     1       3.419   4.547  17.498  0.00  0.00    +0.000 C 
ATOM     22  C   UNL     1       2.957   4.831  18.935  0.00  0.00    +0.000 C 
ATOM     23  C   UNL     1       3.130   3.532  19.706  0.00  0.00    +0.000 C 
ATOM     24  S   UNL     1       2.573   2.272  18.577  0.00  0.00    +0.000 S 
ATOM     25  O   UNL     1       1.156   2.056  18.785  0.00  0.00    +0.000 OA
ATOM     26  O   UNL     1       3.534   1.189  18.590  0.00  0.00    +0.000 OA
ATOM     27  C   UNL     1       2.794   3.214  17.078  0.00  0.00    +0.000 C 
ENDBRANCH  19  21
ENDBRANCH  16  17
ENDBRANCH   3  16
TORSDOF 6
ENDMDL
MODEL 8
REMARK VINA RESULT:      -7.9      0.830      1.274
REMARK  Name = 
REMARK  6 active torsions:
REMARK  status: ('A' for Active; 'I' for Inactive)
REMARK    1  A    between atoms: C_2  and  C_3
REMARK    2  A    between atoms: C_4  and  C_5
REMARK    3  A    between atoms: C_8  and  N_9
REMARK    4  A    between atoms: N_14  and  C_15
REMARK    5  A    between atoms: C_15  and  C_16
REMARK    6  A    between atoms: N_18  and  C_19
REMARK                            x       y       z     vdW  Elec       q    Type
REMARK                         _______ _______ _______ _____ _____    ______ ____
ROOT
ATOM      1  O   UNL     1       6.875   7.156  16.545  0.00  0.00    +0.000 OA
ATOM      2  C   UNL     1       7.492   7.459  17.557  0.00  0.00    +0.000 C 
ATOM      3  N   UNL     1       7.795   6.579  18.565  0.00  0.00    +0.000 N 
ATOM      4  H   UNL     1       8.311   6.877  19.387  0.00  0.00    +0.000 HD
ENDROOT
BRANCH   2   5
ATOM      5  C   UNL     1       8.017   8.829  17.808  0.00  0.00    +0.000 C 
ATOM      6  C   UNL     1       8.881   9.095  18.802  0.00  0.00    +0.000 C 
BRANCH   6   7
ATOM      7  C   UNL     1       9.364  10.457  19.103  0.00  0.00    +0.000 A 
ATOM      8  C   UNL     1       9.587  11.392  18.079  0.00  0.00    +0.000 A 
ATOM      9  C   UNL     1      10.051  12.680  18.363  0.00  0.00    +0.000 A 
ATOM     10  C   UNL     1      10.274  13.055  19.691  0.00  0.00    +0.000 A 
ATOM     11  C   UNL     1      10.025  12.152  20.732  0.00  0.00    +0.000 A 
ATOM     12  C   UNL     1       9.567  10.859  20.433  0.00  0.00    +0.000 A 
BRANCH  10  13
ATOM     13  N   UNL     1      10.768  14.405  19.988  0.00  0.00    +0.000 N 
ATOM     14  O   UNL     1      11.169  15.096  19.039  0.00  0.00    +0.000 OA
ATOM     15  O   UNL     1      10.762  14.775  21.171  0.00  0.00    +0.000 OA
ENDBRANCH  10  13
ENDBRANCH   6   7
ENDBRANCH   2   5
BRANCH   3  16
ATOM     16  C   UNL     1       7.433   5.172  18.511  0.00  0.00    +0.000 C 
BRANCH  16  17
ATOM     17  C   UNL     1       6.039   4.959  19.123  0.00  0.00    +0.000 C 
ATOM     18  O   UNL     1       5.341   5.899  19.503  0.00  0.00    +0.000 OA
ATOM     19  N   UNL     1       5.628   3.639  19.208  0.00  0.00    +0.000 N 
ATOM     20  H   UNL     1       6.297   2.912  18.966  0.00  0.00    +0.000 HD
BRANCH  19  21
ATOM     21  C   UNL     1       4.324   3.275  19.774  0.00  0.00    +0.000 C 
ATOM     22  C   UNL     1       3.978   1.800  19.519  0.00  0.00    +0.000 C 
ATOM     23  C   UNL     1       3.496   1.715  18.080  0.00  0.00    +0.000 C 
ATOM     24  S   UNL     1       2.476   3.160  17.870  0.00  0.00    +0.000 S 
ATOM     25  O   UNL     1       1.111   2.817  18.211  0.00  0.00    +0.000 OA
ATOM     26  O   UNL     1       2.829   3.791  16.616  0.00  0.00    +0.000 OA
ATOM     27  C   UNL     1       3.177   4.113  19.205  0.00  0.00    +0.000 C 
ENDBRANCH  19  21
ENDBRANCH  16  17
ENDBRANCH   3  16
TORSDOF 6
ENDMDL
MODEL 9
REMARK VINA RESULT:      -7.9      1.263      1.407
REMARK  Name = 
REMARK  6 active torsions:
REMARK  status: ('A' for Active; 'I' for Inactive)
REMARK    1  A    between atoms: C_2  and  C_3
REMARK    2  A    between atoms: C_4  and  C_5
REMARK    3  A    between atoms: C_8  and  N_9
REMARK    4  A    between atoms: N_14  and  C_15
REMARK    5  A    between atoms: C_15  and  C_16
REMARK    6  A    between atoms: N_18  and  C_19
REMARK                            x       y       z     vdW  Elec       q    Type
REMARK                         _______ _______ _______ _____ _____    ______ ____
ROOT
ATOM      1  O   UNL     1       8.154   6.612  18.858  0.00  0.00    +0.000 OA
ATOM      2  C   UNL     1       7.798   7.360  17.957  0.00  0.00    +0.000 C 
ATOM      3  N   UNL     1       7.001   6.975  16.909  0.00  0.00    +0.000 N 
ATOM      4  H   UNL     1       6.730   7.632  16.184  0.00  0.00    +0.000 HD
ENDROOT
BRANCH   2   5
ATOM      5  C   UNL     1       8.168   8.801  17.904  0.00  0.00    +0.000 C 
ATOM      6  C   UNL     1       8.968   9.369  18.820  0.00  0.00    +0.000 C 
BRANCH   6   7
ATOM      7  C   UNL     1       9.296  10.809  18.818  0.00  0.00    +0.000 A 
ATOM      8  C   UNL     1      10.176  11.356  19.767  0.00  0.00    +0.000 A 
ATOM      9  C   UNL     1      10.483  12.720  19.769  0.00  0.00    +0.000 A 
ATOM     10  C   UNL     1       9.925  13.553  18.796  0.00  0.00    +0.000 A 
ATOM     11  C   UNL     1       9.073  13.026  17.817  0.00  0.00    +0.000 A 
ATOM     12  C   UNL     1       8.767  11.655  17.830  0.00  0.00    +0.000 A 
BRANCH  10  13
ATOM     13  N   UNL     1      10.241  14.987  18.803  0.00  0.00    +0.000 N 
ATOM     14  O   UNL     1       9.492  15.746  18.170  0.00  0.00    +0.000 OA
ATOM     15  O   UNL     1      11.240  15.355  19.435  0.00  0.00    +0.000 OA
ENDBRANCH  10  13
ENDBRANCH   6   7
ENDBRANCH   2   5
BRANCH   3  16
ATOM     16  C   UNL     1       6.470   5.628  16.783  0.00  0.00    +0.000 C 
BRANCH  16  17
ATOM     17  C   UNL     1       5.358   5.397  17.819  0.00  0.00    +0.000 C 
ATOM     18  O   UNL     1       4.554   6.277  18.122  0.00  0.00    +0.000 OA
ATOM     19  N   UNL     1       5.329   4.129  18.378  0.00  0.00    +0.000 N 
ATOM     20  H   UNL     1       6.085   3.488  18.153  0.00  0.00    +0.000 HD
BRANCH  19  21
ATOM     21  C   UNL     1       4.329   3.758  19.386  0.00  0.00    +0.000 C 
ATOM     22  C   UNL     1       4.299   2.243  19.636  0.00  0.00    +0.000 C 
ATOM     23  C   UNL     1       3.518   1.634  18.483  0.00  0.00    +0.000 C 
ATOM     24  S   UNL     1       2.159   2.757  18.229  0.00  0.00    +0.000 S 
ATOM     25  O   UNL     1       1.042   2.325  19.044  0.00  0.00    +0.000 OA
ATOM     26  O   UNL     1       2.033   3.009  16.809  0.00  0.00    +0.000 OA
ATOM     27  C   UNL     1       2.910   4.180  18.997  0.00  0.00    +0.000 C 
ENDBRANCH  19  21
ENDBRANCH  16  17
ENDBRANCH   3  16
TORSDOF 6
ENDMDL
