MODEL 1
REMARK VINA RESULT:      -8.8      0.000      0.000
REMARK  Name = 
REMARK  4 active torsions:
REMARK  status: ('A' for Active; 'I' for Inactive)
REMARK    1  A    between atoms: C_1  and  C_2
REMARK    2  A    between atoms: C_3  and  O_4
REMARK    3  A    between atoms: C_5  and  C_6
REMARK    4  A    between atoms: C_6  and  N_7
REMARK                            x       y       z     vdW  Elec       q    Type
REMARK                         _______ _______ _______ _____ _____    ______ ____
ROOT
ATOM      1  C   UNL     1       7.512   6.302  17.807  0.00  0.00    +0.000 C 
ATOM      2  C   UNL     1       6.554   5.327  17.181  0.00  0.00    +0.000 A 
ATOM      3  C   UNL     1       5.528   4.644  17.855  0.00  0.00    +0.000 A 
ATOM      4  C   UNL     1       4.675   3.727  17.196  0.00  0.00    +0.000 A 
ATOM      5  C   UNL     1       4.861   3.506  15.818  0.00  0.00    +0.000 A 
ATOM      6  C   UNL     1       5.873   4.158  15.117  0.00  0.00    +0.000 A 
ATOM      7  C   UNL     1       6.130   3.952  13.702  0.00  0.00    +0.000 A 
ATOM      8  C   UNL     1       7.121   4.600  13.100  0.00  0.00    +0.000 A 
ATOM      9  C   UNL     1       8.005   5.542  13.776  0.00  0.00    +0.000 A 
ATOM     10  O   UNL     1       8.914   6.112  13.195  0.00  0.00    +0.000 OA
ATOM     11  O   UNL     1       7.742   5.738  15.124  0.00  0.00    +0.000 OA
ATOM     12  C   UNL     1       6.697   5.052  15.804  0.00  0.00    +0.000 A 
ATOM     13  C   UNL     1       7.258   4.260  11.665  0.00  0.00    +0.000 C 
ATOM     14  C   UNL     1       6.129   3.249  11.436  0.00  0.00    +0.000 C 
ATOM     15  C   UNL     1       5.395   3.056  12.772  0.00  0.00    +0.000 C 
ENDROOT
BRANCH   3  16
ATOM     16  O   UNL     1       5.311   4.847  19.192  0.00  0.00    +0.000 OA
ATOM     17  H   UNL     1       5.495   4.028  19.678  0.00  0.00    +0.000 HD
ENDBRANCH   3  16
BRANCH   4  18
ATOM     18  C   UNL     1       3.505   3.034  17.886  0.00  0.00    +0.000 C 
BRANCH  18  19
ATOM     19  N   UNL     1       3.147   3.567  19.235  0.00  0.00    +0.000 NA
ATOM     20  C   UNL     1       1.805   4.166  19.195  0.00  0.00    +0.000 C 
ATOM     21  C   UNL     1       1.093   4.344  20.537  0.00  0.00    +0.000 C 
ATOM     22  C   UNL     1       1.187   3.124  21.435  0.00  0.00    +0.000 C 
ATOM     23  C   UNL     1       2.636   2.700  21.586  0.00  0.00    +0.000 C 
ATOM     24  C   UNL     1       3.331   2.501  20.237  0.00  0.00    +0.000 C 
ENDBRANCH  18  19
ENDBRANCH   4  18
TORSDOF 3
ENDMDL
MODEL 2
REMARK VINA RESULT:      -8.4      1.345      1.933
REMARK  Name = 
REMARK  4 active torsions:
REMARK  status: ('A' for Active; 'I' for Inactive)
REMARK    1  A    between atoms: C_1  and  C_2
REMARK    2  A    between atoms: C_3  and  O_4
REMARK    3  A    between atoms: C_5  and  C_6
REMARK    4  A    between atoms: C_6  and  N_7
REMARK                            x       y       z     vdW  Elec       q    Type
REMARK                         _______ _______ _______ _____ _____    ______ ____
ROOT
ATOM      1  C   UNL     1       7.766   6.537  17.960  0.00  0.00    +0.000 C 
ATOM      2  C   UNL     1       6.660   5.647  17.466  0.00  0.00    +0.000 A 
ATOM      3  C   UNL     1       5.609   5.138  18.247  0.00  0.00    +0.000 A 
ATOM      4  C   UNL     1       4.611   4.291  17.709  0.00  0.00    +0.000 A 
ATOM      5  C   UNL     1       4.675   3.960  16.343  0.00  0.00    +0.000 A 
ATOM      6  C   UNL     1       5.707   4.437  15.536  0.00  0.00    +0.000 A 
ATOM      7  C   UNL     1       5.841   4.110  14.127  0.00  0.00    +0.000 A 
ATOM      8  C   UNL     1       6.857   4.592  13.421  0.00  0.00    +0.000 A 
ATOM      9  C   UNL     1       7.890   5.461  13.973  0.00  0.00    +0.000 A 
ATOM     10  O   UNL     1       8.818   5.878  13.299  0.00  0.00    +0.000 OA
ATOM     11  O   UNL     1       7.745   5.776  15.316  0.00  0.00    +0.000 OA
ATOM     12  C   UNL     1       6.675   5.267  16.106  0.00  0.00    +0.000 A 
ATOM     13  C   UNL     1       6.855   4.145  12.010  0.00  0.00    +0.000 C 
ATOM     14  C   UNL     1       5.602   3.267  11.923  0.00  0.00    +0.000 C 
ATOM     15  C   UNL     1       4.944   3.252  13.311  0.00  0.00    +0.000 C 
ENDROOT
BRANCH   3  16
ATOM     16  O   UNL     1       5.509   5.453  19.577  0.00  0.00    +0.000 OA
ATOM     17  H   UNL     1       5.997   6.272  19.754  0.00  0.00    +0.000 HD
ENDBRANCH   3  16
BRANCH   4  18
ATOM     18  C   UNL     1       3.418   3.792  18.517  0.00  0.00    +0.000 C 
BRANCH  18  19
ATOM     19  N   UNL     1       2.367   4.813  18.809  0.00  0.00    +0.000 NA
ATOM     20  C   UNL     1       2.258   5.015  20.261  0.00  0.00    +0.000 C 
ATOM     21  C   UNL     1       1.589   6.310  20.725  0.00  0.00    +0.000 C 
ATOM     22  C   UNL     1       2.072   7.539  19.976  0.00  0.00    +0.000 C 
ATOM     23  C   UNL     1       1.954   7.315  18.479  0.00  0.00    +0.000 C 
ATOM     24  C   UNL     1       2.647   6.029  18.024  0.00  0.00    +0.000 C 
ENDBRANCH  18  19
ENDBRANCH   4  18
TORSDOF 3
ENDMDL
MODEL 3
REMARK VINA RESULT:      -8.3      2.399      7.439
REMARK  Name = 
REMARK  4 active torsions:
REMARK  status: ('A' for Active; 'I' for Inactive)
REMARK    1  A    between atoms: C_1  and  C_2
REMARK    2  A    between atoms: C_3  and  O_4
REMARK    3  A    between atoms: C_5  and  C_6
REMARK    4  A    between atoms: C_6  and  N_7
REMARK                            x       y       z     vdW  Elec       q    Type
REMARK                         _______ _______ _______ _____ _____    ______ ____
ROOT
ATOM      1  C   UNL     1       3.259   8.258  17.423  0.00  0.00    +0.000 C 
ATOM      2  C   UNL     1       3.841   6.874  17.502  0.00  0.00    +0.000 A 
ATOM      3  C   UNL     1       4.781   6.330  16.611  0.00  0.00    +0.000 A 
ATOM      4  C   UNL     1       5.270   5.009  16.745  0.00  0.00    +0.000 A 
ATOM      5  C   UNL     1       4.803   4.224  17.816  0.00  0.00    +0.000 A 
ATOM      6  C   UNL     1       3.864   4.724  18.716  0.00  0.00    +0.000 A 
ATOM      7  C   UNL     1       3.326   3.955  19.824  0.00  0.00    +0.000 A 
ATOM      8  C   UNL     1       2.424   4.492  20.638  0.00  0.00    +0.000 A 
ATOM      9  C   UNL     1       1.914   5.851  20.501  0.00  0.00    +0.000 A 
ATOM     10  O   UNL     1       1.076   6.312  21.259  0.00  0.00    +0.000 OA
ATOM     11  O   UNL     1       2.444   6.580  19.446  0.00  0.00    +0.000 OA
ATOM     12  C   UNL     1       3.403   6.031  18.548  0.00  0.00    +0.000 A 
ATOM     13  C   UNL     1       1.966   3.567  21.699  0.00  0.00    +0.000 C 
ATOM     14  C   UNL     1       2.772   2.293  21.425  0.00  0.00    +0.000 C 
ATOM     15  C   UNL     1       3.660   2.556  20.199  0.00  0.00    +0.000 C 
ENDROOT
BRANCH   3  16
ATOM     16  O   UNL     1       5.267   7.072  15.566  0.00  0.00    +0.000 OA
ATOM     17  H   UNL     1       5.761   6.496  14.963  0.00  0.00    +0.000 HD
ENDBRANCH   3  16
BRANCH   4  18
ATOM     18  C   UNL     1       6.348   4.424  15.838  0.00  0.00    +0.000 C 
BRANCH  18  19
ATOM     19  N   UNL     1       6.181   4.700  14.380  0.00  0.00    +0.000 NA
ATOM     20  C   UNL     1       7.483   5.030  13.783  0.00  0.00    +0.000 C 
ATOM     21  C   UNL     1       7.595   4.895  12.263  0.00  0.00    +0.000 C 
ATOM     22  C   UNL     1       6.990   3.610  11.727  0.00  0.00    +0.000 C 
ATOM     23  C   UNL     1       5.567   3.456  12.231  0.00  0.00    +0.000 C 
ATOM     24  C   UNL     1       5.470   3.570  13.754  0.00  0.00    +0.000 C 
ENDBRANCH  18  19
ENDBRANCH   4  18
TORSDOF 3
ENDMDL
MODEL 4
REMARK VINA RESULT:      -8.3      3.774      7.629
REMARK  Name = 
REMARK  4 active torsions:
REMARK  status: ('A' for Active; 'I' for Inactive)
REMARK    1  A    between atoms: C_1  and  C_2
REMARK    2  A    between atoms: C_3  and  O_4
REMARK    3  A    between atoms: C_5  and  C_6
REMARK    4  A    between atoms: C_6  and  N_7
REMARK                            x       y       z     vdW  Elec       q    Type
REMARK                         _______ _______ _______ _____ _____    ______ ____
ROOT
ATOM      1  C   UNL     1       2.100   4.387  21.256  0.00  0.00    +0.000 C 
ATOM      2  C   UNL     1       2.498   5.216  20.067  0.00  0.00    +0.000 A 
ATOM      3  C   UNL     1       3.318   4.788  19.010  0.00  0.00    +0.000 A 
ATOM      4  C   UNL     1       3.660   5.638  17.930  0.00  0.00    +0.000 A 
ATOM      5  C   UNL     1       3.149   6.949  17.919  0.00  0.00    +0.000 A 
ATOM      6  C   UNL     1       2.341   7.414  18.954  0.00  0.00    +0.000 A 
ATOM      7  C   UNL     1       1.805   8.762  19.010  0.00  0.00    +0.000 A 
ATOM      8  C   UNL     1       1.048   9.141  20.034  0.00  0.00    +0.000 A 
ATOM      9  C   UNL     1       0.697   8.271  21.150  0.00  0.00    +0.000 A 
ATOM     10  O   UNL     1       0.009   8.654  22.082  0.00  0.00    +0.000 OA
ATOM     11  O   UNL     1       1.205   6.982  21.079  0.00  0.00    +0.000 OA
ATOM     12  C   UNL     1       2.028   6.546  20.003  0.00  0.00    +0.000 A 
ATOM     13  C   UNL     1       0.603  10.550  19.945  0.00  0.00    +0.000 C 
ATOM     14  C   UNL     1       1.219  11.030  18.626  0.00  0.00    +0.000 C 
ATOM     15  C   UNL     1       2.001   9.853  18.020  0.00  0.00    +0.000 C 
ENDROOT
BRANCH   3  16
ATOM     16  O   UNL     1       3.820   3.514  18.983  0.00  0.00    +0.000 OA
ATOM     17  H   UNL     1       3.969   3.243  18.064  0.00  0.00    +0.000 HD
ENDBRANCH   3  16
BRANCH   4  18
ATOM     18  C   UNL     1       4.482   5.173  16.733  0.00  0.00    +0.000 C 
BRANCH  18  19
ATOM     19  N   UNL     1       5.943   5.475  16.799  0.00  0.00    +0.000 NA
ATOM     20  C   UNL     1       6.145   6.922  16.971  0.00  0.00    +0.000 C 
ATOM     21  C   UNL     1       7.508   7.364  17.508  0.00  0.00    +0.000 C 
ATOM     22  C   UNL     1       7.987   6.540  18.688  0.00  0.00    +0.000 C 
ATOM     23  C   UNL     1       7.939   5.063  18.345  0.00  0.00    +0.000 C 
ATOM     24  C   UNL     1       6.564   4.626  17.832  0.00  0.00    +0.000 C 
ENDBRANCH  18  19
ENDBRANCH   4  18
TORSDOF 3
ENDMDL
MODEL 5
REMARK VINA RESULT:      -8.1      0.895      1.359
REMARK  Name = 
REMARK  4 active torsions:
REMARK  status: ('A' for Active; 'I' for Inactive)
REMARK    1  A    between atoms: C_1  and  C_2
REMARK    2  A    between atoms: C_3  and  O_4
REMARK    3  A    between atoms: C_5  and  C_6
REMARK    4  A    between atoms: C_6  and  N_7
REMARK                            x       y       z     vdW  Elec       q    Type
REMARK                         _______ _______ _______ _____ _____    ______ ____
ROOT
ATOM      1  C   UNL     1       7.345   6.967  17.716  0.00  0.00    +0.000 C 
ATOM      2  C   UNL     1       6.232   6.120  17.165  0.00  0.00    +0.000 A 
ATOM      3  C   UNL     1       5.029   5.820  17.827  0.00  0.00    +0.000 A 
ATOM      4  C   UNL     1       4.033   5.000  17.245  0.00  0.00    +0.000 A 
ATOM      5  C   UNL     1       4.259   4.480  15.957  0.00  0.00    +0.000 A 
ATOM      6  C   UNL     1       5.443   4.746  15.272  0.00  0.00    +0.000 A 
ATOM      7  C   UNL     1       5.743   4.219  13.953  0.00  0.00    +0.000 A 
ATOM      8  C   UNL     1       6.898   4.506  13.363  0.00  0.00    +0.000 A 
ATOM      9  C   UNL     1       7.928   5.346  13.960  0.00  0.00    +0.000 A 
ATOM     10  O   UNL     1       8.985   5.582  13.396  0.00  0.00    +0.000 OA
ATOM     11  O   UNL     1       7.625   5.855  15.216  0.00  0.00    +0.000 OA
ATOM     12  C   UNL     1       6.402   5.558  15.881  0.00  0.00    +0.000 A 
ATOM     13  C   UNL     1       7.052   3.871  12.034  0.00  0.00    +0.000 C 
ATOM     14  C   UNL     1       5.737   3.104  11.858  0.00  0.00    +0.000 C 
ATOM     15  C   UNL     1       4.886   3.340  13.116  0.00  0.00    +0.000 C 
ENDROOT
BRANCH   3  16
ATOM     16  O   UNL     1       4.772   6.322  19.075  0.00  0.00    +0.000 OA
ATOM     17  H   UNL     1       3.821   6.489  19.168  0.00  0.00    +0.000 HD
ENDBRANCH   3  16
BRANCH   4  18
ATOM     18  C   UNL     1       2.688   4.725  17.908  0.00  0.00    +0.000 C 
BRANCH  18  19
ATOM     19  N   UNL     1       2.615   3.475  18.722  0.00  0.00    +0.000 NA
ATOM     20  C   UNL     1       3.886   3.267  19.432  0.00  0.00    +0.000 C 
ATOM     21  C   UNL     1       3.852   2.326  20.638  0.00  0.00    +0.000 C 
ATOM     22  C   UNL     1       2.674   2.574  21.562  0.00  0.00    +0.000 C 
ATOM     23  C   UNL     1       1.380   2.566  20.769  0.00  0.00    +0.000 C 
ATOM     24  C   UNL     1       1.417   3.528  19.579  0.00  0.00    +0.000 C 
ENDBRANCH  18  19
ENDBRANCH   4  18
TORSDOF 3
ENDMDL
MODEL 6
REMARK VINA RESULT:      -8.1      0.885      1.067
REMARK  Name = 
REMARK  4 active torsions:
REMARK  status: ('A' for Active; 'I' for Inactive)
REMARK    1  A    between atoms: C_1  and  C_2
REMARK    2  A    between atoms: C_3  and  O_4
REMARK    3  A    between atoms: C_5  and  C_6
REMARK    4  A    between atoms: C_6  and  N_7
REMARK                            x       y       z     vdW  Elec       q    Type
REMARK                         _______ _______ _______ _____ _____    ______ ____
ROOT
ATOM      1  C   UNL     1       7.920   6.537  17.778  0.00  0.00    +0.000 C 
ATOM      2  C   UNL     1       6.977   5.448  17.351  0.00  0.00    +0.000 A 
ATOM      3  C   UNL     1       6.123   4.725  18.201  0.00  0.00    +0.000 A 
ATOM      4  C   UNL     1       5.273   3.700  17.722  0.00  0.00    +0.000 A 
ATOM      5  C   UNL     1       5.282   3.408  16.345  0.00  0.00    +0.000 A 
ATOM      6  C   UNL     1       6.121   4.096  15.471  0.00  0.00    +0.000 A 
ATOM      7  C   UNL     1       6.192   3.823  14.046  0.00  0.00    +0.000 A 
ATOM      8  C   UNL     1       7.023   4.512  13.272  0.00  0.00    +0.000 A 
ATOM      9  C   UNL     1       7.904   5.565  13.762  0.00  0.00    +0.000 A 
ATOM     10  O   UNL     1       8.666   6.172  13.027  0.00  0.00    +0.000 OA
ATOM     11  O   UNL     1       7.818   5.825  15.123  0.00  0.00    +0.000 OA
ATOM     12  C   UNL     1       6.947   5.098  15.982  0.00  0.00    +0.000 A 
ATOM     13  C   UNL     1       6.986   4.094  11.853  0.00  0.00    +0.000 C 
ATOM     14  C   UNL     1       5.934   2.980  11.843  0.00  0.00    +0.000 C 
ATOM     15  C   UNL     1       5.418   2.812  13.281  0.00  0.00    +0.000 C 
ENDROOT
BRANCH   3  16
ATOM     16  O   UNL     1       6.080   4.994  19.544  0.00  0.00    +0.000 OA
ATOM     17  H   UNL     1       6.490   5.856  19.715  0.00  0.00    +0.000 HD
ENDBRANCH   3  16
BRANCH   4  18
ATOM     18  C   UNL     1       4.282   2.957  18.611  0.00  0.00    +0.000 C 
BRANCH  18  19
ATOM     19  N   UNL     1       2.915   3.554  18.688  0.00  0.00    +0.000 NA
ATOM     20  C   UNL     1       1.902   2.511  18.474  0.00  0.00    +0.000 C 
ATOM     21  C   UNL     1       0.484   2.821  18.958  0.00  0.00    +0.000 C 
ATOM     22  C   UNL     1       0.443   3.429  20.348  0.00  0.00    +0.000 C 
ATOM     23  C   UNL     1       1.367   4.631  20.417  0.00  0.00    +0.000 C 
ATOM     24  C   UNL     1       2.788   4.303  19.952  0.00  0.00    +0.000 C 
ENDBRANCH  18  19
ENDBRANCH   4  18
TORSDOF 3
ENDMDL
MODEL 7
REMARK VINA RESULT:      -8.0      3.249      7.205
REMARK  Name = 
REMARK  4 active torsions:
REMARK  status: ('A' for Active; 'I' for Inactive)
REMARK    1  A    between atoms: C_1  and  C_2
REMARK    2  A    between atoms: C_3  and  O_4
REMARK    3  A    between atoms: C_5  and  C_6
REMARK    4  A    between atoms: C_6  and  N_7
REMARK                            x       y       z     vdW  Elec       q    Type
REMARK                         _______ _______ _______ _____ _____    ______ ____
ROOT
ATOM      1  C   UNL     1       1.909   3.749  21.579  0.00  0.00    +0.000 C 
ATOM      2  C   UNL     1       2.324   4.332  20.257  0.00  0.00    +0.000 A 
ATOM      3  C   UNL     1       2.964   3.633  19.220  0.00  0.00    +0.000 A 
ATOM      4  C   UNL     1       3.339   4.259  18.008  0.00  0.00    +0.000 A 
ATOM      5  C   UNL     1       3.046   5.626  17.838  0.00  0.00    +0.000 A 
ATOM      6  C   UNL     1       2.421   6.356  18.847  0.00  0.00    +0.000 A 
ATOM      7  C   UNL     1       2.116   7.772  18.741  0.00  0.00    +0.000 A 
ATOM      8  C   UNL     1       1.527   8.408  19.747  0.00  0.00    +0.000 A 
ATOM      9  C   UNL     1       1.144   7.768  21.000  0.00  0.00    +0.000 A 
ATOM     10  O   UNL     1       0.614   8.384  21.910  0.00  0.00    +0.000 OA
ATOM     11  O   UNL     1       1.429   6.413  21.084  0.00  0.00    +0.000 OA
ATOM     12  C   UNL     1       2.070   5.703  20.030  0.00  0.00    +0.000 A 
ATOM     13  C   UNL     1       1.308   9.849  19.483  0.00  0.00    +0.000 C 
ATOM     14  C   UNL     1       1.870  10.035  18.069  0.00  0.00    +0.000 C 
ATOM     15  C   UNL     1       2.393   8.671  17.590  0.00  0.00    +0.000 C 
ENDROOT
BRANCH   3  16
ATOM     16  O   UNL     1       3.250   2.299  19.347  0.00  0.00    +0.000 OA
ATOM     17  H   UNL     1       2.607   1.780  18.839  0.00  0.00    +0.000 HD
ENDBRANCH   3  16
BRANCH   4  18
ATOM     18  C   UNL     1       3.961   3.504  16.838  0.00  0.00    +0.000 C 
BRANCH  18  19
ATOM     19  N   UNL     1       5.413   3.768  16.603  0.00  0.00    +0.000 NA
ATOM     20  C   UNL     1       5.577   4.657  15.443  0.00  0.00    +0.000 C 
ATOM     21  C   UNL     1       6.913   5.393  15.326  0.00  0.00    +0.000 C 
ATOM     22  C   UNL     1       7.376   6.009  16.634  0.00  0.00    +0.000 C 
ATOM     23  C   UNL     1       7.372   4.963  17.732  0.00  0.00    +0.000 C 
ATOM     24  C   UNL     1       6.024   4.249  17.856  0.00  0.00    +0.000 C 
ENDBRANCH  18  19
ENDBRANCH   4  18
TORSDOF 3
ENDMDL
MODEL 8
REMARK VINA RESULT:      -7.9      4.557      6.340
REMARK  Name = 
REMARK  4 active torsions:
REMARK  status: ('A' for Active; 'I' for Inactive)
REMARK    1  A    between atoms: C_1  and  C_2
REMARK    2  A    between atoms: C_3  and  O_4
REMARK    3  A    between atoms: C_5  and  C_6
REMARK    4  A    between atoms: C_6  and  N_7
REMARK                            x       y       z     vdW  Elec       q    Type
REMARK                         _______ _______ _______ _____ _____    ______ ____
ROOT
ATOM      1  C   UNL     1       1.795   5.185  20.968  0.00  0.00    +0.000 C 
ATOM      2  C   UNL     1       2.239   6.119  19.878  0.00  0.00    +0.000 A 
ATOM      3  C   UNL     1       1.862   7.467  19.752  0.00  0.00    +0.000 A 
ATOM      4  C   UNL     1       2.312   8.279  18.684  0.00  0.00    +0.000 A 
ATOM      5  C   UNL     1       3.174   7.714  17.727  0.00  0.00    +0.000 A 
ATOM      6  C   UNL     1       3.564   6.379  17.811  0.00  0.00    +0.000 A 
ATOM      7  C   UNL     1       4.432   5.733  16.841  0.00  0.00    +0.000 A 
ATOM      8  C   UNL     1       4.754   4.452  16.979  0.00  0.00    +0.000 A 
ATOM      9  C   UNL     1       4.289   3.610  18.074  0.00  0.00    +0.000 A 
ATOM     10  O   UNL     1       4.595   2.432  18.165  0.00  0.00    +0.000 OA
ATOM     11  O   UNL     1       3.471   4.241  19.001  0.00  0.00    +0.000 OA
ATOM     12  C   UNL     1       3.096   5.609  18.878  0.00  0.00    +0.000 A 
ATOM     13  C   UNL     1       5.626   3.947  15.894  0.00  0.00    +0.000 C 
ATOM     14  C   UNL     1       5.828   5.178  15.004  0.00  0.00    +0.000 C 
ATOM     15  C   UNL     1       5.045   6.342  15.633  0.00  0.00    +0.000 C 
ENDROOT
BRANCH   3  16
ATOM     16  O   UNL     1       1.035   8.052  20.675  0.00  0.00    +0.000 OA
ATOM     17  H   UNL     1       0.209   7.547  20.735  0.00  0.00    +0.000 HD
ENDBRANCH   3  16
BRANCH   4  18
ATOM     18  C   UNL     1       1.980   9.763  18.570  0.00  0.00    +0.000 C 
BRANCH  18  19
ATOM     19  N   UNL     1       0.575  10.137  18.914  0.00  0.00    +0.000 NA
ATOM     20  C   UNL     1       0.521  11.548  19.322  0.00  0.00    +0.000 C 
ATOM     21  C   UNL     1      -0.850  12.225  19.269  0.00  0.00    +0.000 C 
ATOM     22  C   UNL     1      -1.616  11.933  17.991  0.00  0.00    +0.000 C 
ATOM     23  C   UNL     1      -1.687  10.435  17.758  0.00  0.00    +0.000 C 
ATOM     24  C   UNL     1      -0.308   9.772  17.791  0.00  0.00    +0.000 C 
ENDBRANCH  18  19
ENDBRANCH   4  18
TORSDOF 3
ENDMDL
MODEL 9
REMARK VINA RESULT:      -7.6      3.303      6.120
REMARK  Name = 
REMARK  4 active torsions:
REMARK  status: ('A' for Active; 'I' for Inactive)
REMARK    1  A    between atoms: C_1  and  C_2
REMARK    2  A    between atoms: C_3  and  O_4
REMARK    3  A    between atoms: C_5  and  C_6
REMARK    4  A    between atoms: C_6  and  N_7
REMARK                            x       y       z     vdW  Elec       q    Type
REMARK                         _______ _______ _______ _____ _____    ______ ____
ROOT
ATOM      1  C   UNL     1       4.884   7.016  15.720  0.00  0.00    +0.000 C 
ATOM      2  C   UNL     1       4.393   6.455  17.025  0.00  0.00    +0.000 A 
ATOM      3  C   UNL     1       4.740   5.203  17.560  0.00  0.00    +0.000 A 
ATOM      4  C   UNL     1       4.221   4.739  18.792  0.00  0.00    +0.000 A 
ATOM      5  C   UNL     1       3.337   5.570  19.504  0.00  0.00    +0.000 A 
ATOM      6  C   UNL     1       2.961   6.815  19.004  0.00  0.00    +0.000 A 
ATOM      7  C   UNL     1       2.034   7.706  19.680  0.00  0.00    +0.000 A 
ATOM      8  C   UNL     1       1.712   8.875  19.139  0.00  0.00    +0.000 A 
ATOM      9  C   UNL     1       2.240   9.355  17.867  0.00  0.00    +0.000 A 
ATOM     10  O   UNL     1       1.915  10.430  17.391  0.00  0.00    +0.000 OA
ATOM     11  O   UNL     1       3.134   8.500  17.237  0.00  0.00    +0.000 OA
ATOM     12  C   UNL     1       3.492   7.236  17.782  0.00  0.00    +0.000 A 
ATOM     13  C   UNL     1       0.741   9.648  19.946  0.00  0.00    +0.000 C 
ATOM     14  C   UNL     1       0.493   8.742  21.157  0.00  0.00    +0.000 C 
ATOM     15  C   UNL     1       1.345   7.476  20.977  0.00  0.00    +0.000 C 
ENDROOT
BRANCH   3  16
ATOM     16  O   UNL     1       5.609   4.376  16.898  0.00  0.00    +0.000 OA
ATOM     17  H   UNL     1       5.417   3.453  17.128  0.00  0.00    +0.000 HD
ENDBRANCH   3  16
BRANCH   4  18
ATOM     18  C   UNL     1       4.644   3.420  19.430  0.00  0.00    +0.000 C 
BRANCH  18  19
ATOM     19  N   UNL     1       3.527   2.526  19.859  0.00  0.00    +0.000 NA
ATOM     20  C   UNL     1       2.975   2.996  21.138  0.00  0.00    +0.000 C 
ATOM     21  C   UNL     1       1.572   2.507  21.500  0.00  0.00    +0.000 C 
ATOM     22  C   UNL     1       0.588   2.592  20.348  0.00  0.00    +0.000 C 
ATOM     23  C   UNL     1       1.159   1.898  19.125  0.00  0.00    +0.000 C 
ATOM     24  C   UNL     1       2.553   2.411  18.758  0.00  0.00    +0.000 C 
ENDBRANCH  18  19
ENDBRANCH   4  18
TORSDOF 3
ENDMDL
