MODEL 1
REMARK VINA RESULT:      -8.4      0.000      0.000
REMARK  Name = 
REMARK  5 active torsions:
REMARK  status: ('A' for Active; 'I' for Inactive)
REMARK    1  A    between atoms: C_1  and  C_2
REMARK    2  A    between atoms: C_5  and  O_6
REMARK    3  A    between atoms: C_7  and  C_8
REMARK    4  A    between atoms: C_7  and  C_9
REMARK    5  A    between atoms: C_14  and  C_15
REMARK                            x       y       z     vdW  Elec       q    Type
REMARK                         _______ _______ _______ _____ _____    ______ ____
ROOT
ATOM      1  C   UNL     1       4.438   1.533  19.954  0.00  0.00    +0.000 C 
ATOM      2  C   UNL     1       3.473   2.731  19.880  0.00  0.00    +0.000 C 
ATOM      3  C   UNL     1       2.031   2.216  19.750  0.00  0.00    +0.000 C 
ATOM      4  C   UNL     1       0.988   3.330  19.703  0.00  0.00    +0.000 C 
ATOM      5  C   UNL     1       1.308   4.422  18.679  0.00  0.00    +0.000 C 
ATOM      6  C   UNL     1       2.762   4.971  18.810  0.00  0.00    +0.000 C 
ATOM      7  C   UNL     1       2.863   5.755  20.151  0.00  0.00    +0.000 C 
ATOM      8  C   UNL     1       3.008   6.038  17.710  0.00  0.00    +0.000 C 
ATOM      9  C   UNL     1       3.816   3.771  18.761  0.00  0.00    +0.000 C 
ATOM     10  C   UNL     1       3.915   3.064  17.382  0.00  0.00    +0.000 C 
ATOM     11  C   UNL     1       5.096   3.746  16.837  0.00  0.00    +0.000 A 
ATOM     12  C   UNL     1       5.472   3.766  15.510  0.00  0.00    +0.000 A 
ATOM     13  C   UNL     1       6.556   4.552  15.122  0.00  0.00    +0.000 A 
ATOM     14  C   UNL     1       7.263   5.277  16.132  0.00  0.00    +0.000 A 
ATOM     15  C   UNL     1       6.868   5.219  17.483  0.00  0.00    +0.000 A 
ATOM     16  I   UNL     1       7.881   6.339  18.903  0.00  0.00    +0.000 I 
ATOM     17  C   UNL     1       5.770   4.442  17.821  0.00  0.00    +0.000 A 
ATOM     18  O   UNL     1       5.172   4.306  19.065  0.00  0.00    +0.000 OA
ENDROOT
BRANCH  13  19
ATOM     19  C   UNL     1       6.940   4.629  13.663  0.00  0.00    +0.000 C 
ATOM     20  O   UNL     1       7.760   5.522  13.338  0.00  0.00    +0.000 OA
ATOM     21  O   UNL     1       6.399   3.784  12.885  0.00  0.00    +0.000 OA
ENDBRANCH  13  19
BRANCH   5  22
ATOM     22  O   UNL     1       1.035   3.952  17.365  0.00  0.00    +0.000 OA
ATOM     23  H   UNL     1       0.822   4.686  16.765  0.00  0.00    +0.000 HD
ENDBRANCH   5  22
TORSDOF 2
ENDMDL
MODEL 2
REMARK VINA RESULT:      -6.3      8.586     10.793
REMARK  Name = 
REMARK  5 active torsions:
REMARK  status: ('A' for Active; 'I' for Inactive)
REMARK    1  A    between atoms: C_1  and  C_2
REMARK    2  A    between atoms: C_5  and  O_6
REMARK    3  A    between atoms: C_7  and  C_8
REMARK    4  A    between atoms: C_7  and  C_9
REMARK    5  A    between atoms: C_14  and  C_15
REMARK                            x       y       z     vdW  Elec       q    Type
REMARK                         _______ _______ _______ _____ _____    ______ ____
ROOT
ATOM      1  C   UNL     1      -1.446  11.182  23.166  0.00  0.00    +0.000 C 
ATOM      2  C   UNL     1      -0.738  12.431  22.610  0.00  0.00    +0.000 C 
ATOM      3  C   UNL     1      -1.313  13.686  23.284  0.00  0.00    +0.000 C 
ATOM      4  C   UNL     1      -0.650  14.983  22.825  0.00  0.00    +0.000 C 
ATOM      5  C   UNL     1      -0.578  15.124  21.302  0.00  0.00    +0.000 C 
ATOM      6  C   UNL     1       0.023  13.867  20.602  0.00  0.00    +0.000 C 
ATOM      7  C   UNL     1       1.530  13.775  20.984  0.00  0.00    +0.000 C 
ATOM      8  C   UNL     1       0.018  14.084  19.066  0.00  0.00    +0.000 C 
ATOM      9  C   UNL     1      -0.767  12.551  21.048  0.00  0.00    +0.000 C 
ATOM     10  C   UNL     1      -2.229  12.478  20.532  0.00  0.00    +0.000 C 
ATOM     11  C   UNL     1      -2.035  11.619  19.356  0.00  0.00    +0.000 A 
ATOM     12  C   UNL     1      -2.927  11.468  18.315  0.00  0.00    +0.000 A 
ATOM     13  C   UNL     1      -2.556  10.704  17.208  0.00  0.00    +0.000 A 
ATOM     14  C   UNL     1      -1.274  10.071  17.221  0.00  0.00    +0.000 A 
ATOM     15  C   UNL     1      -0.395  10.227  18.310  0.00  0.00    +0.000 A 
ATOM     16  I   UNL     1       1.481   9.344  18.256  0.00  0.00    +0.000 I 
ATOM     17  C   UNL     1      -0.794  11.013  19.380  0.00  0.00    +0.000 A 
ATOM     18  O   UNL     1      -0.062  11.358  20.507  0.00  0.00    +0.000 OA
ENDROOT
BRANCH  13  19
ATOM     19  C   UNL     1      -3.500  10.581  16.035  0.00  0.00    +0.000 C 
ATOM     20  O   UNL     1      -3.076   9.964  15.028  0.00  0.00    +0.000 OA
ATOM     21  O   UNL     1      -4.645  11.114  16.165  0.00  0.00    +0.000 OA
ENDBRANCH  13  19
BRANCH   5  22
ATOM     22  O   UNL     1      -1.859  15.459  20.784  0.00  0.00    +0.000 OA
ATOM     23  H   UNL     1      -1.911  16.401  20.552  0.00  0.00    +0.000 HD
ENDBRANCH   5  22
TORSDOF 2
ENDMDL
MODEL 3
REMARK VINA RESULT:      -6.0      2.422      3.781
REMARK  Name = 
REMARK  5 active torsions:
REMARK  status: ('A' for Active; 'I' for Inactive)
REMARK    1  A    between atoms: C_1  and  C_2
REMARK    2  A    between atoms: C_5  and  O_6
REMARK    3  A    between atoms: C_7  and  C_8
REMARK    4  A    between atoms: C_7  and  C_9
REMARK    5  A    between atoms: C_14  and  C_15
REMARK                            x       y       z     vdW  Elec       q    Type
REMARK                         _______ _______ _______ _____ _____    ______ ____
ROOT
ATOM      1  C   UNL     1       0.885   5.054  17.236  0.00  0.00    +0.000 C 
ATOM      2  C   UNL     1       1.530   3.897  18.022  0.00  0.00    +0.000 C 
ATOM      3  C   UNL     1       0.827   3.750  19.380  0.00  0.00    +0.000 C 
ATOM      4  C   UNL     1       1.371   2.601  20.227  0.00  0.00    +0.000 C 
ATOM      5  C   UNL     1       2.896   2.613  20.361  0.00  0.00    +0.000 C 
ATOM      6  C   UNL     1       3.627   2.742  18.990  0.00  0.00    +0.000 C 
ATOM      7  C   UNL     1       3.389   1.426  18.191  0.00  0.00    +0.000 C 
ATOM      8  C   UNL     1       5.159   2.788  19.228  0.00  0.00    +0.000 C 
ATOM      9  C   UNL     1       3.083   4.012  18.187  0.00  0.00    +0.000 C 
ATOM     10  C   UNL     1       3.455   5.378  18.823  0.00  0.00    +0.000 C 
ATOM     11  C   UNL     1       4.628   5.721  18.007  0.00  0.00    +0.000 A 
ATOM     12  C   UNL     1       5.577   6.671  18.322  0.00  0.00    +0.000 A 
ATOM     13  C   UNL     1       6.699   6.807  17.506  0.00  0.00    +0.000 A 
ATOM     14  C   UNL     1       6.798   5.978  16.346  0.00  0.00    +0.000 A 
ATOM     15  C   UNL     1       5.801   5.032  16.039  0.00  0.00    +0.000 A 
ATOM     16  I   UNL     1       6.018   3.805  14.381  0.00  0.00    +0.000 I 
ATOM     17  C   UNL     1       4.712   4.914  16.890  0.00  0.00    +0.000 A 
ATOM     18  O   UNL     1       3.667   4.004  16.818  0.00  0.00    +0.000 OA
ENDROOT
BRANCH  13  19
ATOM     19  C   UNL     1       7.774   7.803  17.875  0.00  0.00    +0.000 C 
ATOM     20  O   UNL     1       7.830   8.856  17.193  0.00  0.00    +0.000 OA
ATOM     21  O   UNL     1       8.533   7.492  18.843  0.00  0.00    +0.000 OA
ENDBRANCH  13  19
BRANCH   5  22
ATOM     22  O   UNL     1       3.295   3.629  21.273  0.00  0.00    +0.000 OA
ATOM     23  H   UNL     1       4.261   3.646  21.381  0.00  0.00    +0.000 HD
ENDBRANCH   5  22
TORSDOF 2
ENDMDL
MODEL 4
REMARK VINA RESULT:      -6.0     10.114     11.835
REMARK  Name = 
REMARK  5 active torsions:
REMARK  status: ('A' for Active; 'I' for Inactive)
REMARK    1  A    between atoms: C_1  and  C_2
REMARK    2  A    between atoms: C_5  and  O_6
REMARK    3  A    between atoms: C_7  and  C_8
REMARK    4  A    between atoms: C_7  and  C_9
REMARK    5  A    between atoms: C_14  and  C_15
REMARK                            x       y       z     vdW  Elec       q    Type
REMARK                         _______ _______ _______ _____ _____    ______ ____
ROOT
ATOM      1  C   UNL     1      11.230  14.268  16.657  0.00  0.00    +0.000 C 
ATOM      2  C   UNL     1      11.134  13.647  18.062  0.00  0.00    +0.000 C 
ATOM      3  C   UNL     1      11.548  12.169  17.995  0.00  0.00    +0.000 C 
ATOM      4  C   UNL     1      11.521  11.465  19.350  0.00  0.00    +0.000 C 
ATOM      5  C   UNL     1      10.210  11.666  20.114  0.00  0.00    +0.000 C 
ATOM      6  C   UNL     1       9.784  13.162  20.211  0.00  0.00    +0.000 C 
ATOM      7  C   UNL     1      10.803  13.896  21.132  0.00  0.00    +0.000 C 
ATOM      8  C   UNL     1       8.430  13.264  20.961  0.00  0.00    +0.000 C 
ATOM      9  C   UNL     1       9.741  13.823  18.756  0.00  0.00    +0.000 C 
ATOM     10  C   UNL     1       8.612  13.277  17.840  0.00  0.00    +0.000 C 
ATOM     11  C   UNL     1       7.604  14.328  18.035  0.00  0.00    +0.000 A 
ATOM     12  C   UNL     1       6.263  14.222  17.726  0.00  0.00    +0.000 A 
ATOM     13  C   UNL     1       5.403  15.263  18.075  0.00  0.00    +0.000 A 
ATOM     14  C   UNL     1       5.958  16.420  18.704  0.00  0.00    +0.000 A 
ATOM     15  C   UNL     1       7.335  16.507  18.985  0.00  0.00    +0.000 A 
ATOM     16  I   UNL     1       8.086  18.177  19.959  0.00  0.00    +0.000 I 
ATOM     17  C   UNL     1       8.152  15.440  18.643  0.00  0.00    +0.000 A 
ATOM     18  O   UNL     1       9.507  15.287  18.897  0.00  0.00    +0.000 OA
ENDROOT
BRANCH  13  19
ATOM     19  C   UNL     1       3.923  15.133  17.796  0.00  0.00    +0.000 C 
ATOM     20  O   UNL     1       3.369  16.097  17.214  0.00  0.00    +0.000 OA
ATOM     21  O   UNL     1       3.363  14.059  18.174  0.00  0.00    +0.000 OA
ENDBRANCH  13  19
BRANCH   5  22
ATOM     22  O   UNL     1       9.187  10.859  19.544  0.00  0.00    +0.000 OA
ATOM     23  H   UNL     1       9.471   9.933  19.465  0.00  0.00    +0.000 HD
ENDBRANCH   5  22
TORSDOF 2
ENDMDL
MODEL 5
REMARK VINA RESULT:      -5.7     10.667     13.299
REMARK  Name = 
REMARK  5 active torsions:
REMARK  status: ('A' for Active; 'I' for Inactive)
REMARK    1  A    between atoms: C_1  and  C_2
REMARK    2  A    between atoms: C_5  and  O_6
REMARK    3  A    between atoms: C_7  and  C_8
REMARK    4  A    between atoms: C_7  and  C_9
REMARK    5  A    between atoms: C_14  and  C_15
REMARK                            x       y       z     vdW  Elec       q    Type
REMARK                         _______ _______ _______ _____ _____    ______ ____
ROOT
ATOM      1  C   UNL     1      -3.153  16.400  24.171  0.00  0.00    +0.000 C 
ATOM      2  C   UNL     1      -4.255  15.848  23.248  0.00  0.00    +0.000 C 
ATOM      3  C   UNL     1      -5.579  15.775  24.024  0.00  0.00    +0.000 C 
ATOM      4  C   UNL     1      -6.750  15.269  23.183  0.00  0.00    +0.000 C 
ATOM      5  C   UNL     1      -6.446  13.971  22.433  0.00  0.00    +0.000 C 
ATOM      6  C   UNL     1      -5.115  14.033  21.623  0.00  0.00    +0.000 C 
ATOM      7  C   UNL     1      -5.309  15.039  20.451  0.00  0.00    +0.000 C 
ATOM      8  C   UNL     1      -4.868  12.666  20.933  0.00  0.00    +0.000 C 
ATOM      9  C   UNL     1      -3.907  14.479  22.571  0.00  0.00    +0.000 C 
ATOM     10  C   UNL     1      -3.522  13.430  23.649  0.00  0.00    +0.000 C 
ATOM     11  C   UNL     1      -2.382  12.790  22.977  0.00  0.00    +0.000 A 
ATOM     12  C   UNL     1      -1.833  11.570  23.312  0.00  0.00    +0.000 A 
ATOM     13  C   UNL     1      -0.825  11.036  22.510  0.00  0.00    +0.000 A 
ATOM     14  C   UNL     1      -0.372  11.802  21.391  0.00  0.00    +0.000 A 
ATOM     15  C   UNL     1      -0.939  13.055  21.088  0.00  0.00    +0.000 A 
ATOM     16  I   UNL     1      -0.296  14.100  19.416  0.00  0.00    +0.000 I 
ATOM     17  C   UNL     1      -1.954  13.539  21.899  0.00  0.00    +0.000 A 
ATOM     18  O   UNL     1      -2.694  14.701  21.738  0.00  0.00    +0.000 OA
ENDROOT
BRANCH  13  19
ATOM     19  C   UNL     1      -0.258   9.673  22.833  0.00  0.00    +0.000 C 
ATOM     20  O   UNL     1       0.426   9.577  23.881  0.00  0.00    +0.000 OA
ATOM     21  O   UNL     1      -0.519   8.738  22.016  0.00  0.00    +0.000 OA
ENDBRANCH  13  19
BRANCH   5  22
ATOM     22  O   UNL     1      -6.467  12.871  23.335  0.00  0.00    +0.000 OA
ATOM     23  H   UNL     1      -6.597  12.032  22.864  0.00  0.00    +0.000 HD
ENDBRANCH   5  22
TORSDOF 2
ENDMDL
MODEL 6
REMARK VINA RESULT:      -5.6     10.036     12.422
REMARK  Name = 
REMARK  5 active torsions:
REMARK  status: ('A' for Active; 'I' for Inactive)
REMARK    1  A    between atoms: C_1  and  C_2
REMARK    2  A    between atoms: C_5  and  O_6
REMARK    3  A    between atoms: C_7  and  C_8
REMARK    4  A    between atoms: C_7  and  C_9
REMARK    5  A    between atoms: C_14  and  C_15
REMARK                            x       y       z     vdW  Elec       q    Type
REMARK                         _______ _______ _______ _____ _____    ______ ____
ROOT
ATOM      1  C   UNL     1       8.075  12.530  17.450  0.00  0.00    +0.000 C 
ATOM      2  C   UNL     1       9.344  13.316  17.829  0.00  0.00    +0.000 C 
ATOM      3  C   UNL     1      10.582  12.558  17.325  0.00  0.00    +0.000 C 
ATOM      4  C   UNL     1      11.898  13.274  17.622  0.00  0.00    +0.000 C 
ATOM      5  C   UNL     1      12.039  13.710  19.082  0.00  0.00    +0.000 C 
ATOM      6  C   UNL     1      10.799  14.499  19.605  0.00  0.00    +0.000 C 
ATOM      7  C   UNL     1      10.754  15.870  18.868  0.00  0.00    +0.000 C 
ATOM      8  C   UNL     1      11.013  14.860  21.098  0.00  0.00    +0.000 C 
ATOM      9  C   UNL     1       9.461  13.663  19.352  0.00  0.00    +0.000 C 
ATOM     10  C   UNL     1       9.342  12.372  20.206  0.00  0.00    +0.000 C 
ATOM     11  C   UNL     1       8.487  12.871  21.292  0.00  0.00    +0.000 A 
ATOM     12  C   UNL     1       8.307  12.264  22.518  0.00  0.00    +0.000 A 
ATOM     13  C   UNL     1       7.554  12.914  23.494  0.00  0.00    +0.000 A 
ATOM     14  C   UNL     1       6.960  14.173  23.165  0.00  0.00    +0.000 A 
ATOM     15  C   UNL     1       7.144  14.756  21.897  0.00  0.00    +0.000 A 
ATOM     16  I   UNL     1       6.319  16.614  21.487  0.00  0.00    +0.000 I 
ATOM     17  C   UNL     1       7.920  14.086  20.963  0.00  0.00    +0.000 A 
ATOM     18  O   UNL     1       8.288  14.513  19.695  0.00  0.00    +0.000 OA
ENDROOT
BRANCH  13  19
ATOM     19  C   UNL     1       7.400  12.287  24.860  0.00  0.00    +0.000 C 
ATOM     20  O   UNL     1       7.672  13.009  25.850  0.00  0.00    +0.000 OA
ATOM     21  O   UNL     1       7.008  11.080  24.894  0.00  0.00    +0.000 OA
ENDBRANCH  13  19
BRANCH   5  22
ATOM     22  O   UNL     1      12.333  12.583  19.899  0.00  0.00    +0.000 OA
ATOM     23  H   UNL     1      12.703  12.855  20.755  0.00  0.00    +0.000 HD
ENDBRANCH   5  22
TORSDOF 2
ENDMDL
MODEL 7
REMARK VINA RESULT:      -5.6      2.792      6.089
REMARK  Name = 
REMARK  5 active torsions:
REMARK  status: ('A' for Active; 'I' for Inactive)
REMARK    1  A    between atoms: C_1  and  C_2
REMARK    2  A    between atoms: C_5  and  O_6
REMARK    3  A    between atoms: C_7  and  C_8
REMARK    4  A    between atoms: C_7  and  C_9
REMARK    5  A    between atoms: C_14  and  C_15
REMARK                            x       y       z     vdW  Elec       q    Type
REMARK                         _______ _______ _______ _____ _____    ______ ____
ROOT
ATOM      1  C   UNL     1       7.410   5.144  19.437  0.00  0.00    +0.000 C 
ATOM      2  C   UNL     1       6.685   4.537  18.223  0.00  0.00    +0.000 C 
ATOM      3  C   UNL     1       7.384   4.990  16.932  0.00  0.00    +0.000 C 
ATOM      4  C   UNL     1       6.759   4.411  15.664  0.00  0.00    +0.000 C 
ATOM      5  C   UNL     1       5.241   4.594  15.595  0.00  0.00    +0.000 C 
ATOM      6  C   UNL     1       4.511   4.120  16.889  0.00  0.00    +0.000 C 
ATOM      7  C   UNL     1       4.641   2.571  16.977  0.00  0.00    +0.000 C 
ATOM      8  C   UNL     1       2.989   4.381  16.746  0.00  0.00    +0.000 C 
ATOM      9  C   UNL     1       5.146   4.826  18.176  0.00  0.00    +0.000 C 
ATOM     10  C   UNL     1       4.885   6.354  18.260  0.00  0.00    +0.000 C 
ATOM     11  C   UNL     1       3.735   6.359  19.176  0.00  0.00    +0.000 A 
ATOM     12  C   UNL     1       2.865   7.412  19.367  0.00  0.00    +0.000 A 
ATOM     13  C   UNL     1       1.751   7.232  20.185  0.00  0.00    +0.000 A 
ATOM     14  C   UNL     1       1.580   5.967  20.829  0.00  0.00    +0.000 A 
ATOM     15  C   UNL     1       2.499   4.918  20.630  0.00  0.00    +0.000 A 
ATOM     16  I   UNL     1       2.176   3.079  21.531  0.00  0.00    +0.000 I 
ATOM     17  C   UNL     1       3.581   5.133  19.790  0.00  0.00    +0.000 A 
ATOM     18  O   UNL     1       4.552   4.222  19.400  0.00  0.00    +0.000 OA
ENDROOT
BRANCH  13  19
ATOM     19  C   UNL     1       0.759   8.359  20.355  0.00  0.00    +0.000 C 
ATOM     20  O   UNL     1      -0.048   8.265  21.312  0.00  0.00    +0.000 OA
ATOM     21  O   UNL     1       0.823   9.308  19.515  0.00  0.00    +0.000 OA
ENDBRANCH  13  19
BRANCH   5  22
ATOM     22  O   UNL     1       4.927   5.943  15.274  0.00  0.00    +0.000 OA
ATOM     23  H   UNL     1       4.609   6.427  16.054  0.00  0.00    +0.000 HD
ENDBRANCH   5  22
TORSDOF 2
ENDMDL
MODEL 8
REMARK VINA RESULT:      -5.5      9.610     12.182
REMARK  Name = 
REMARK  5 active torsions:
REMARK  status: ('A' for Active; 'I' for Inactive)
REMARK    1  A    between atoms: C_1  and  C_2
REMARK    2  A    between atoms: C_5  and  O_6
REMARK    3  A    between atoms: C_7  and  C_8
REMARK    4  A    between atoms: C_7  and  C_9
REMARK    5  A    between atoms: C_14  and  C_15
REMARK                            x       y       z     vdW  Elec       q    Type
REMARK                         _______ _______ _______ _____ _____    ______ ____
ROOT
ATOM      1  C   UNL     1      -1.493  15.253  24.893  0.00  0.00    +0.000 C 
ATOM      2  C   UNL     1      -2.634  15.173  23.862  0.00  0.00    +0.000 C 
ATOM      3  C   UNL     1      -3.982  15.106  24.597  0.00  0.00    +0.000 C 
ATOM      4  C   UNL     1      -5.186  15.058  23.659  0.00  0.00    +0.000 C 
ATOM      5  C   UNL     1      -5.067  13.992  22.567  0.00  0.00    +0.000 C 
ATOM      6  C   UNL     1      -3.713  14.058  21.797  0.00  0.00    +0.000 C 
ATOM      7  C   UNL     1      -3.697  15.371  20.960  0.00  0.00    +0.000 C 
ATOM      8  C   UNL     1      -3.665  12.919  20.745  0.00  0.00    +0.000 C 
ATOM      9  C   UNL     1      -2.487  14.012  22.821  0.00  0.00    +0.000 C 
ATOM     10  C   UNL     1      -2.317  12.654  23.554  0.00  0.00    +0.000 C 
ATOM     11  C   UNL     1      -1.271  12.049  22.717  0.00  0.00    +0.000 A 
ATOM     12  C   UNL     1      -0.940  10.711  22.687  0.00  0.00    +0.000 A 
ATOM     13  C   UNL     1      -0.001  10.264  21.757  0.00  0.00    +0.000 A 
ATOM     14  C   UNL     1       0.612  11.228  20.897  0.00  0.00    +0.000 A 
ATOM     15  C   UNL     1       0.267  12.592  20.967  0.00  0.00    +0.000 A 
ATOM     16  I   UNL     1       1.134  13.943  19.655  0.00  0.00    +0.000 I 
ATOM     17  C   UNL     1      -0.687  12.989  21.891  0.00  0.00    +0.000 A 
ATOM     18  O   UNL     1      -1.223  14.256  22.073  0.00  0.00    +0.000 OA
ENDROOT
BRANCH  13  19
ATOM     19  C   UNL     1       0.326   8.791  21.674  0.00  0.00    +0.000 C 
ATOM     20  O   UNL     1      -0.639   7.991  21.747  0.00  0.00    +0.000 OA
ATOM     21  O   UNL     1       1.550   8.485  21.538  0.00  0.00    +0.000 OA
ENDBRANCH  13  19
BRANCH   5  22
ATOM     22  O   UNL     1      -5.300  12.702  23.120  0.00  0.00    +0.000 OA
ATOM     23  H   UNL     1      -5.487  12.755  24.072  0.00  0.00    +0.000 HD
ENDBRANCH   5  22
TORSDOF 2
ENDMDL
