MODEL 1
REMARK VINA RESULT:      -6.4      0.000      0.000
REMARK  Name = 
REMARK  4 active torsions:
REMARK  status: ('A' for Active; 'I' for Inactive)
REMARK    1  A    between atoms: O_1  and  C_2
REMARK    2  A    between atoms: C_5  and  C_6
REMARK    3  A    between atoms: C_6  and  C_7
REMARK    4  A    between atoms: C_13  and  O_14
REMARK                            x       y       z     vdW  Elec       q    Type
REMARK                         _______ _______ _______ _____ _____    ______ ____
ROOT
ATOM      1  C   UNL     1       6.545   5.749  16.754  0.00  0.00    +0.000 A 
ATOM      2  C   UNL     1       5.366   6.489  16.713  0.00  0.00    +0.000 A 
ATOM      3  C   UNL     1       4.389   6.295  17.699  0.00  0.00    +0.000 A 
ATOM      4  C   UNL     1       4.582   5.358  18.727  0.00  0.00    +0.000 A 
ATOM      5  C   UNL     1       5.764   4.603  18.733  0.00  0.00    +0.000 A 
ATOM      6  C   UNL     1       6.743   4.811  17.761  0.00  0.00    +0.000 A 
ENDROOT
BRANCH   1   7
ATOM      7  O   UNL     1       7.511   5.929  15.805  0.00  0.00    +0.000 OA
ATOM      8  H   UNL     1       8.351   6.126  16.244  0.00  0.00    +0.000 HD
ENDBRANCH   1   7
BRANCH   6   9
ATOM      9  O   UNL     1       7.902   4.085  17.791  0.00  0.00    +0.000 OA
ATOM     10  H   UNL     1       7.675   3.143  17.846  0.00  0.00    +0.000 HD
ENDBRANCH   6   9
BRANCH   4  11
ATOM     11  C   UNL     1       3.500   5.115  19.762  0.00  0.00    +0.000 C 
BRANCH  11  12
ATOM     12  C   UNL     1       2.777   3.755  19.738  0.00  0.00    +0.000 C 
ATOM     13  C   UNL     1       1.345   3.807  19.165  0.00  0.00    +0.000 C 
ATOM     14  N   UNL     1       0.574   3.180  20.216  0.00  0.00    +0.000 N 
ATOM     15  C   UNL     1       1.409   2.931  21.256  0.00  0.00    +0.000 C 
ATOM     16  N   UNL     1       2.676   3.164  21.115  0.00  0.00    +0.000 NA
ATOM     17  H   UNL     1      -0.331   3.580  20.436  0.00  0.00    +0.000 HD
ENDBRANCH  11  12
ENDBRANCH   4  11
TORSDOF 4
ENDMDL
MODEL 2
REMARK VINA RESULT:      -6.4      1.006      1.145
REMARK  Name = 
REMARK  4 active torsions:
REMARK  status: ('A' for Active; 'I' for Inactive)
REMARK    1  A    between atoms: O_1  and  C_2
REMARK    2  A    between atoms: C_5  and  C_6
REMARK    3  A    between atoms: C_6  and  C_7
REMARK    4  A    between atoms: C_13  and  O_14
REMARK                            x       y       z     vdW  Elec       q    Type
REMARK                         _______ _______ _______ _____ _____    ______ ____
ROOT
ATOM      1  C   UNL     1       6.506   5.456  16.185  0.00  0.00    +0.000 A 
ATOM      2  C   UNL     1       5.259   6.074  16.141  0.00  0.00    +0.000 A 
ATOM      3  C   UNL     1       4.391   5.966  17.235  0.00  0.00    +0.000 A 
ATOM      4  C   UNL     1       4.761   5.237  18.377  0.00  0.00    +0.000 A 
ATOM      5  C   UNL     1       6.009   4.598  18.389  0.00  0.00    +0.000 A 
ATOM      6  C   UNL     1       6.880   4.722  17.306  0.00  0.00    +0.000 A 
ENDROOT
BRANCH   1   7
ATOM      7  O   UNL     1       7.369   5.556  15.130  0.00  0.00    +0.000 OA
ATOM      8  H   UNL     1       7.155   6.352  14.621  0.00  0.00    +0.000 HD
ENDBRANCH   1   7
BRANCH   6   9
ATOM      9  O   UNL     1       8.105   4.113  17.338  0.00  0.00    +0.000 OA
ATOM     10  H   UNL     1       8.470   4.106  16.439  0.00  0.00    +0.000 HD
ENDBRANCH   6   9
BRANCH   4  11
ATOM     11  C   UNL     1       3.797   5.080  19.537  0.00  0.00    +0.000 C 
BRANCH  11  12
ATOM     12  C   UNL     1       2.316   4.811  19.209  0.00  0.00    +0.000 C 
ATOM     13  C   UNL     1       1.383   4.812  20.438  0.00  0.00    +0.000 C 
ATOM     14  N   UNL     1       0.707   3.540  20.307  0.00  0.00    +0.000 N 
ATOM     15  C   UNL     1       1.255   2.881  19.255  0.00  0.00    +0.000 C 
ATOM     16  N   UNL     1       2.138   3.487  18.524  0.00  0.00    +0.000 NA
ATOM     17  H   UNL     1       0.546   3.005  21.152  0.00  0.00    +0.000 HD
ENDBRANCH  11  12
ENDBRANCH   4  11
TORSDOF 4
ENDMDL
MODEL 3
REMARK VINA RESULT:      -6.3      1.459      1.491
REMARK  Name = 
REMARK  4 active torsions:
REMARK  status: ('A' for Active; 'I' for Inactive)
REMARK    1  A    between atoms: O_1  and  C_2
REMARK    2  A    between atoms: C_5  and  C_6
REMARK    3  A    between atoms: C_6  and  C_7
REMARK    4  A    between atoms: C_13  and  O_14
REMARK                            x       y       z     vdW  Elec       q    Type
REMARK                         _______ _______ _______ _____ _____    ______ ____
ROOT
ATOM      1  C   UNL     1       6.118   5.503  16.147  0.00  0.00    +0.000 A 
ATOM      2  C   UNL     1       5.420   6.526  16.785  0.00  0.00    +0.000 A 
ATOM      3  C   UNL     1       4.205   6.245  17.424  0.00  0.00    +0.000 A 
ATOM      4  C   UNL     1       3.679   4.943  17.425  0.00  0.00    +0.000 A 
ATOM      5  C   UNL     1       4.382   3.934  16.752  0.00  0.00    +0.000 A 
ATOM      6  C   UNL     1       5.601   4.212  16.132  0.00  0.00    +0.000 A 
ENDROOT
BRANCH   1   7
ATOM      7  O   UNL     1       7.307   5.757  15.524  0.00  0.00    +0.000 OA
ATOM      8  H   UNL     1       8.015   5.295  15.997  0.00  0.00    +0.000 HD
ENDBRANCH   1   7
BRANCH   6   9
ATOM      9  O   UNL     1       6.291   3.214  15.498  0.00  0.00    +0.000 OA
ATOM     10  H   UNL     1       7.097   3.593  15.114  0.00  0.00    +0.000 HD
ENDBRANCH   6   9
BRANCH   4  11
ATOM     11  C   UNL     1       2.338   4.654  18.073  0.00  0.00    +0.000 C 
BRANCH  11  12
ATOM     12  C   UNL     1       2.264   3.494  19.084  0.00  0.00    +0.000 C 
ATOM     13  C   UNL     1       0.832   2.996  19.374  0.00  0.00    +0.000 C 
ATOM     14  N   UNL     1       0.774   3.063  20.818  0.00  0.00    +0.000 N 
ATOM     15  C   UNL     1       1.929   3.622  21.258  0.00  0.00    +0.000 C 
ATOM     16  N   UNL     1       2.870   3.877  20.404  0.00  0.00    +0.000 NA
ATOM     17  H   UNL     1      -0.088   3.393  21.238  0.00  0.00    +0.000 HD
ENDBRANCH  11  12
ENDBRANCH   4  11
TORSDOF 4
ENDMDL
MODEL 4
REMARK VINA RESULT:      -6.3      1.439      1.849
REMARK  Name = 
REMARK  4 active torsions:
REMARK  status: ('A' for Active; 'I' for Inactive)
REMARK    1  A    between atoms: O_1  and  C_2
REMARK    2  A    between atoms: C_5  and  C_6
REMARK    3  A    between atoms: C_6  and  C_7
REMARK    4  A    between atoms: C_13  and  O_14
REMARK                            x       y       z     vdW  Elec       q    Type
REMARK                         _______ _______ _______ _____ _____    ______ ____
ROOT
ATOM      1  C   UNL     1       6.649   5.365  16.255  0.00  0.00    +0.000 A 
ATOM      2  C   UNL     1       5.396   5.948  16.088  0.00  0.00    +0.000 A 
ATOM      3  C   UNL     1       4.435   5.836  17.102  0.00  0.00    +0.000 A 
ATOM      4  C   UNL     1       4.719   5.136  18.286  0.00  0.00    +0.000 A 
ATOM      5  C   UNL     1       5.977   4.531  18.422  0.00  0.00    +0.000 A 
ATOM      6  C   UNL     1       6.938   4.660  17.419  0.00  0.00    +0.000 A 
ENDROOT
BRANCH   1   7
ATOM      7  O   UNL     1       7.600   5.470  15.281  0.00  0.00    +0.000 OA
ATOM      8  H   UNL     1       8.424   5.788  15.677  0.00  0.00    +0.000 HD
ENDBRANCH   1   7
BRANCH   6   9
ATOM      9  O   UNL     1       8.171   4.086  17.573  0.00  0.00    +0.000 OA
ATOM     10  H   UNL     1       8.239   3.334  16.963  0.00  0.00    +0.000 HD
ENDBRANCH   6   9
BRANCH   4  11
ATOM     11  C   UNL     1       3.659   4.973  19.358  0.00  0.00    +0.000 C 
BRANCH  11  12
ATOM     12  C   UNL     1       2.778   3.709  19.310  0.00  0.00    +0.000 C 
ATOM     13  C   UNL     1       3.528   2.400  19.637  0.00  0.00    +0.000 C 
ATOM     14  N   UNL     1       3.204   1.572  18.496  0.00  0.00    +0.000 N 
ATOM     15  C   UNL     1       2.496   2.328  17.618  0.00  0.00    +0.000 C 
ATOM     16  N   UNL     1       2.150   3.530  17.958  0.00  0.00    +0.000 NA
ATOM     17  H   UNL     1       3.940   0.990  18.114  0.00  0.00    +0.000 HD
ENDBRANCH  11  12
ENDBRANCH   4  11
TORSDOF 4
ENDMDL
MODEL 5
REMARK VINA RESULT:      -6.3      4.072      5.949
REMARK  Name = 
REMARK  4 active torsions:
REMARK  status: ('A' for Active; 'I' for Inactive)
REMARK    1  A    between atoms: O_1  and  C_2
REMARK    2  A    between atoms: C_5  and  C_6
REMARK    3  A    between atoms: C_6  and  C_7
REMARK    4  A    between atoms: C_13  and  O_14
REMARK                            x       y       z     vdW  Elec       q    Type
REMARK                         _______ _______ _______ _____ _____    ______ ____
ROOT
ATOM      1  C   UNL     1       1.389   3.663  19.633  0.00  0.00    +0.000 A 
ATOM      2  C   UNL     1       1.366   3.304  18.288  0.00  0.00    +0.000 A 
ATOM      3  C   UNL     1       2.340   3.809  17.416  0.00  0.00    +0.000 A 
ATOM      4  C   UNL     1       3.339   4.680  17.882  0.00  0.00    +0.000 A 
ATOM      5  C   UNL     1       3.326   5.053  19.234  0.00  0.00    +0.000 A 
ATOM      6  C   UNL     1       2.367   4.534  20.104  0.00  0.00    +0.000 A 
ENDROOT
BRANCH   1   7
ATOM      7  O   UNL     1       0.452   3.176  20.499  0.00  0.00    +0.000 OA
ATOM      8  H   UNL     1      -0.205   2.669  20.000  0.00  0.00    +0.000 HD
ENDBRANCH   1   7
BRANCH   6   9
ATOM      9  O   UNL     1       2.379   4.886  21.426  0.00  0.00    +0.000 OA
ATOM     10  H   UNL     1       1.464   4.902  21.749  0.00  0.00    +0.000 HD
ENDBRANCH   6   9
BRANCH   4  11
ATOM     11  C   UNL     1       4.359   5.265  16.924  0.00  0.00    +0.000 C 
BRANCH  11  12
ATOM     12  C   UNL     1       5.478   4.338  16.413  0.00  0.00    +0.000 C 
ATOM     13  C   UNL     1       6.867   4.624  17.023  0.00  0.00    +0.000 C 
ATOM     14  N   UNL     1       7.691   4.775  15.843  0.00  0.00    +0.000 N 
ATOM     15  C   UNL     1       6.882   4.709  14.756  0.00  0.00    +0.000 C 
ATOM     16  N   UNL     1       5.627   4.429  14.921  0.00  0.00    +0.000 NA
ATOM     17  H   UNL     1       8.394   5.505  15.852  0.00  0.00    +0.000 HD
ENDBRANCH  11  12
ENDBRANCH   4  11
TORSDOF 4
ENDMDL
MODEL 6
REMARK VINA RESULT:      -6.3      1.612      2.119
REMARK  Name = 
REMARK  4 active torsions:
REMARK  status: ('A' for Active; 'I' for Inactive)
REMARK    1  A    between atoms: O_1  and  C_2
REMARK    2  A    between atoms: C_5  and  C_6
REMARK    3  A    between atoms: C_6  and  C_7
REMARK    4  A    between atoms: C_13  and  O_14
REMARK                            x       y       z     vdW  Elec       q    Type
REMARK                         _______ _______ _______ _____ _____    ______ ____
ROOT
ATOM      1  C   UNL     1       6.830   4.516  17.595  0.00  0.00    +0.000 A 
ATOM      2  C   UNL     1       5.990   4.322  16.502  0.00  0.00    +0.000 A 
ATOM      3  C   UNL     1       4.634   4.661  16.598  0.00  0.00    +0.000 A 
ATOM      4  C   UNL     1       4.109   5.192  17.788  0.00  0.00    +0.000 A 
ATOM      5  C   UNL     1       4.966   5.352  18.886  0.00  0.00    +0.000 A 
ATOM      6  C   UNL     1       6.320   5.030  18.783  0.00  0.00    +0.000 A 
ENDROOT
BRANCH   1   7
ATOM      7  O   UNL     1       8.156   4.197  17.518  0.00  0.00    +0.000 OA
ATOM      8  H   UNL     1       8.564   4.714  16.808  0.00  0.00    +0.000 HD
ENDBRANCH   1   7
BRANCH   6   9
ATOM      9  O   UNL     1       7.151   5.213  19.854  0.00  0.00    +0.000 OA
ATOM     10  H   UNL     1       6.618   5.493  20.615  0.00  0.00    +0.000 HD
ENDBRANCH   6   9
BRANCH   4  11
ATOM     11  C   UNL     1       2.630   5.509  17.904  0.00  0.00    +0.000 C 
BRANCH  11  12
ATOM     12  C   UNL     1       1.673   4.353  18.249  0.00  0.00    +0.000 C 
ATOM     13  C   UNL     1       1.722   3.908  19.726  0.00  0.00    +0.000 C 
ATOM     14  N   UNL     1       1.951   2.484  19.607  0.00  0.00    +0.000 N 
ATOM     15  C   UNL     1       2.125   2.197  18.292  0.00  0.00    +0.000 C 
ATOM     16  N   UNL     1       1.958   3.137  17.415  0.00  0.00    +0.000 NA
ATOM     17  H   UNL     1       2.595   2.056  20.262  0.00  0.00    +0.000 HD
ENDBRANCH  11  12
ENDBRANCH   4  11
TORSDOF 4
ENDMDL
MODEL 7
REMARK VINA RESULT:      -6.2      1.221      1.279
REMARK  Name = 
REMARK  4 active torsions:
REMARK  status: ('A' for Active; 'I' for Inactive)
REMARK    1  A    between atoms: O_1  and  C_2
REMARK    2  A    between atoms: C_5  and  C_6
REMARK    3  A    between atoms: C_6  and  C_7
REMARK    4  A    between atoms: C_13  and  O_14
REMARK                            x       y       z     vdW  Elec       q    Type
REMARK                         _______ _______ _______ _____ _____    ______ ____
ROOT
ATOM      1  C   UNL     1       6.585   6.179  16.913  0.00  0.00    +0.000 A 
ATOM      2  C   UNL     1       5.372   6.858  17.002  0.00  0.00    +0.000 A 
ATOM      3  C   UNL     1       4.190   6.143  17.232  0.00  0.00    +0.000 A 
ATOM      4  C   UNL     1       4.211   4.745  17.372  0.00  0.00    +0.000 A 
ATOM      5  C   UNL     1       5.438   4.078  17.250  0.00  0.00    +0.000 A 
ATOM      6  C   UNL     1       6.617   4.794  17.038  0.00  0.00    +0.000 A 
ENDROOT
BRANCH   1   7
ATOM      7  O   UNL     1       7.749   6.860  16.695  0.00  0.00    +0.000 OA
ATOM      8  H   UNL     1       7.572   7.603  16.100  0.00  0.00    +0.000 HD
ENDBRANCH   1   7
BRANCH   6   9
ATOM      9  O   UNL     1       7.812   4.134  16.945  0.00  0.00    +0.000 OA
ATOM     10  H   UNL     1       7.643   3.232  16.627  0.00  0.00    +0.000 HD
ENDBRANCH   6   9
BRANCH   4  11
ATOM     11  C   UNL     1       2.922   3.971  17.569  0.00  0.00    +0.000 C 
BRANCH  11  12
ATOM     12  C   UNL     1       2.611   3.443  18.983  0.00  0.00    +0.000 C 
ATOM     13  C   UNL     1       1.207   2.819  19.133  0.00  0.00    +0.000 C 
ATOM     14  N   UNL     1       0.673   3.542  20.266  0.00  0.00    +0.000 N 
ATOM     15  C   UNL     1       1.572   4.496  20.615  0.00  0.00    +0.000 C 
ATOM     16  N   UNL     1       2.718   4.533  20.011  0.00  0.00    +0.000 NA
ATOM     17  H   UNL     1      -0.302   3.819  20.229  0.00  0.00    +0.000 HD
ENDBRANCH  11  12
ENDBRANCH   4  11
TORSDOF 4
ENDMDL
MODEL 8
REMARK VINA RESULT:      -6.2      1.399      1.832
REMARK  Name = 
REMARK  4 active torsions:
REMARK  status: ('A' for Active; 'I' for Inactive)
REMARK    1  A    between atoms: O_1  and  C_2
REMARK    2  A    between atoms: C_5  and  C_6
REMARK    3  A    between atoms: C_6  and  C_7
REMARK    4  A    between atoms: C_13  and  O_14
REMARK                            x       y       z     vdW  Elec       q    Type
REMARK                         _______ _______ _______ _____ _____    ______ ____
ROOT
ATOM      1  C   UNL     1       6.409   5.309  16.031  0.00  0.00    +0.000 A 
ATOM      2  C   UNL     1       5.673   4.134  15.905  0.00  0.00    +0.000 A 
ATOM      3  C   UNL     1       4.435   4.016  16.551  0.00  0.00    +0.000 A 
ATOM      4  C   UNL     1       3.927   5.069  17.329  0.00  0.00    +0.000 A 
ATOM      5  C   UNL     1       4.697   6.232  17.467  0.00  0.00    +0.000 A 
ATOM      6  C   UNL     1       5.922   6.355  16.809  0.00  0.00    +0.000 A 
ENDROOT
BRANCH   1   7
ATOM      7  O   UNL     1       7.615   5.445  15.404  0.00  0.00    +0.000 OA
ATOM      8  H   UNL     1       8.003   4.567  15.274  0.00  0.00    +0.000 HD
ENDBRANCH   1   7
BRANCH   6   9
ATOM      9  O   UNL     1       6.654   7.504  16.932  0.00  0.00    +0.000 OA
ATOM     10  H   UNL     1       6.703   7.739  17.872  0.00  0.00    +0.000 HD
ENDBRANCH   6   9
BRANCH   4  11
ATOM     11  C   UNL     1       2.611   4.916  18.068  0.00  0.00    +0.000 C 
BRANCH  11  12
ATOM     12  C   UNL     1       2.471   3.736  19.049  0.00  0.00    +0.000 C 
ATOM     13  C   UNL     1       1.071   3.086  19.063  0.00  0.00    +0.000 C 
ATOM     14  N   UNL     1       0.734   3.120  20.469  0.00  0.00    +0.000 N 
ATOM     15  C   UNL     1       1.720   3.788  21.119  0.00  0.00    +0.000 C 
ATOM     16  N   UNL     1       2.773   4.156  20.458  0.00  0.00    +0.000 NA
ATOM     17  H   UNL     1      -0.221   3.351  20.717  0.00  0.00    +0.000 HD
ENDBRANCH  11  12
ENDBRANCH   4  11
TORSDOF 4
ENDMDL
MODEL 9
REMARK VINA RESULT:      -6.2      3.975      5.904
REMARK  Name = 
REMARK  4 active torsions:
REMARK  status: ('A' for Active; 'I' for Inactive)
REMARK    1  A    between atoms: O_1  and  C_2
REMARK    2  A    between atoms: C_5  and  C_6
REMARK    3  A    between atoms: C_6  and  C_7
REMARK    4  A    between atoms: C_13  and  O_14
REMARK                            x       y       z     vdW  Elec       q    Type
REMARK                         _______ _______ _______ _____ _____    ______ ____
ROOT
ATOM      1  C   UNL     1       1.496   3.698  20.125  0.00  0.00    +0.000 A 
ATOM      2  C   UNL     1       2.340   4.702  20.593  0.00  0.00    +0.000 A 
ATOM      3  C   UNL     1       3.176   5.380  19.697  0.00  0.00    +0.000 A 
ATOM      4  C   UNL     1       3.179   5.057  18.330  0.00  0.00    +0.000 A 
ATOM      5  C   UNL     1       2.343   4.023  17.885  0.00  0.00    +0.000 A 
ATOM      6  C   UNL     1       1.497   3.361  18.776  0.00  0.00    +0.000 A 
ENDROOT
BRANCH   1   7
ATOM      7  O   UNL     1       0.668   3.030  20.983  0.00  0.00    +0.000 OA
ATOM      8  H   UNL     1       0.433   2.175  20.593  0.00  0.00    +0.000 HD
ENDBRANCH   1   7
BRANCH   6   9
ATOM      9  O   UNL     1       0.669   2.369  18.325  0.00  0.00    +0.000 OA
ATOM     10  H   UNL     1       1.168   1.803  17.715  0.00  0.00    +0.000 HD
ENDBRANCH   6   9
BRANCH   4  11
ATOM     11  C   UNL     1       4.124   5.758  17.374  0.00  0.00    +0.000 C 
BRANCH  11  12
ATOM     12  C   UNL     1       5.613   5.364  17.417  0.00  0.00    +0.000 C 
ATOM     13  C   UNL     1       6.584   6.514  17.077  0.00  0.00    +0.000 C 
ATOM     14  N   UNL     1       7.391   5.931  16.028  0.00  0.00    +0.000 N 
ATOM     15  C   UNL     1       6.880   4.707  15.740  0.00  0.00    +0.000 C 
ATOM     16  N   UNL     1       5.910   4.243  16.463  0.00  0.00    +0.000 NA
ATOM     17  H   UNL     1       7.641   6.522  15.244  0.00  0.00    +0.000 HD
ENDBRANCH  11  12
ENDBRANCH   4  11
TORSDOF 4
ENDMDL
