MODEL 1
REMARK VINA RESULT:      -8.1      0.000      0.000
REMARK  Name = 
REMARK  2 active torsions:
REMARK  status: ('A' for Active; 'I' for Inactive)
REMARK    1  A    between atoms: C_5  and  N_6
REMARK    2  A    between atoms: C_9  and  C_10
REMARK                            x       y       z     vdW  Elec       q    Type
REMARK                         _______ _______ _______ _____ _____    ______ ____
ROOT
ATOM      1  N   UNL     1       3.778   6.024  18.091  0.00  0.00    +0.000 N 
ATOM      2  N   UNL     1       3.402   5.210  19.102  0.00  0.00    +0.000 NA
ATOM      3  N   UNL     1       2.620   5.947  19.874  0.00  0.00    +0.000 NA
ATOM      4  C   UNL     1       2.551   7.190  19.297  0.00  0.00    +0.000 A 
ATOM      5  N   UNL     1       3.320   7.295  18.202  0.00  0.00    +0.000 NA
ENDROOT
BRANCH   4   6
ATOM      6  C   UNL     1       1.647   8.219  19.769  0.00  0.00    +0.000 A 
ATOM      7  C   UNL     1       1.358   9.317  18.974  0.00  0.00    +0.000 A 
ATOM      8  N   UNL     1       0.601  10.369  19.367  0.00  0.00    +0.000 NA
ATOM      9  C   UNL     1       0.104  10.353  20.616  0.00  0.00    +0.000 A 
ATOM     10  C   UNL     1      -0.638  11.438  21.059  0.00  0.00    +0.000 A 
ATOM     11  C   UNL     1      -1.166  11.485  22.352  0.00  0.00    +0.000 A 
ATOM     12  C   UNL     1      -0.957  10.423  23.225  0.00  0.00    +0.000 A 
ATOM     13  C   UNL     1      -0.216   9.319  22.803  0.00  0.00    +0.000 A 
ATOM     14  C   UNL     1       0.322   9.278  21.502  0.00  0.00    +0.000 A 
ATOM     15  C   UNL     1       1.100   8.199  21.054  0.00  0.00    +0.000 A 
ENDBRANCH   4   6
BRANCH   1  20
ATOM     16 CL   UNL     1       7.010   4.427  13.501  0.00  0.00    +0.000 Cl
ATOM     17  C   UNL     1       6.026   4.820  14.849  0.00  0.00    +0.000 A 
ATOM     18  C   UNL     1       5.535   3.830  15.682  0.00  0.00    +0.000 A 
ATOM     19  C   UNL     1       4.774   4.217  16.782  0.00  0.00    +0.000 A 
ATOM     20  C   UNL     1       4.534   5.579  16.994  0.00  0.00    +0.000 A 
ATOM     21  C   UNL     1       5.051   6.494  16.086  0.00  0.00    +0.000 A 
ATOM     22  N   UNL     1       5.801   6.140  15.016  0.00  0.00    +0.000 NA
ENDBRANCH   1  20
TORSDOF 2
ENDMDL
MODEL 2
REMARK VINA RESULT:      -8.1      3.014      8.719
REMARK  Name = 
REMARK  2 active torsions:
REMARK  status: ('A' for Active; 'I' for Inactive)
REMARK    1  A    between atoms: C_5  and  N_6
REMARK    2  A    between atoms: C_9  and  C_10
REMARK                            x       y       z     vdW  Elec       q    Type
REMARK                         _______ _______ _______ _____ _____    ______ ____
ROOT
ATOM      1  N   UNL     1       3.079   6.567  18.961  0.00  0.00    +0.000 N 
ATOM      2  N   UNL     1       3.680   5.607  19.699  0.00  0.00    +0.000 NA
ATOM      3  N   UNL     1       4.501   4.987  18.867  0.00  0.00    +0.000 NA
ATOM      4  C   UNL     1       4.365   5.599  17.647  0.00  0.00    +0.000 A 
ATOM      5  N   UNL     1       3.430   6.561  17.652  0.00  0.00    +0.000 NA
ENDROOT
BRANCH   4   6
ATOM      6  C   UNL     1       5.234   5.303  16.525  0.00  0.00    +0.000 A 
ATOM      7  C   UNL     1       6.488   5.887  16.436  0.00  0.00    +0.000 A 
ATOM      8  N   UNL     1       7.326   5.743  15.382  0.00  0.00    +0.000 NA
ATOM      9  C   UNL     1       6.911   4.990  14.348  0.00  0.00    +0.000 A 
ATOM     10  C   UNL     1       7.732   4.860  13.238  0.00  0.00    +0.000 A 
ATOM     11  C   UNL     1       7.348   4.104  12.127  0.00  0.00    +0.000 A 
ATOM     12  C   UNL     1       6.119   3.454  12.123  0.00  0.00    +0.000 A 
ATOM     13  C   UNL     1       5.276   3.566  13.228  0.00  0.00    +0.000 A 
ATOM     14  C   UNL     1       5.662   4.336  14.343  0.00  0.00    +0.000 A 
ATOM     15  C   UNL     1       4.826   4.498  15.459  0.00  0.00    +0.000 A 
ENDBRANCH   4   6
BRANCH   1  20
ATOM     16 CL   UNL     1      -0.593  10.616  21.007  0.00  0.00    +0.000 Cl
ATOM     17  C   UNL     1       0.506   9.408  20.485  0.00  0.00    +0.000 A 
ATOM     18  C   UNL     1       0.845   8.351  21.313  0.00  0.00    +0.000 A 
ATOM     19  C   UNL     1       1.712   7.381  20.815  0.00  0.00    +0.000 A 
ATOM     20  C   UNL     1       2.206   7.518  19.514  0.00  0.00    +0.000 A 
ATOM     21  C   UNL     1       1.825   8.628  18.771  0.00  0.00    +0.000 A 
ATOM     22  N   UNL     1       0.975   9.577  19.232  0.00  0.00    +0.000 NA
ENDBRANCH   1  20
TORSDOF 2
ENDMDL
MODEL 3
REMARK VINA RESULT:      -8.0      3.102      8.783
REMARK  Name = 
REMARK  2 active torsions:
REMARK  status: ('A' for Active; 'I' for Inactive)
REMARK    1  A    between atoms: C_5  and  N_6
REMARK    2  A    between atoms: C_9  and  C_10
REMARK                            x       y       z     vdW  Elec       q    Type
REMARK                         _______ _______ _______ _____ _____    ______ ____
ROOT
ATOM      1  N   UNL     1       3.087   6.602  18.937  0.00  0.00    +0.000 N 
ATOM      2  N   UNL     1       3.694   5.654  19.685  0.00  0.00    +0.000 NA
ATOM      3  N   UNL     1       4.516   5.027  18.859  0.00  0.00    +0.000 NA
ATOM      4  C   UNL     1       4.374   5.624  17.631  0.00  0.00    +0.000 A 
ATOM      5  N   UNL     1       3.436   6.583  17.627  0.00  0.00    +0.000 NA
ENDROOT
BRANCH   4   6
ATOM      6  C   UNL     1       5.241   5.317  16.511  0.00  0.00    +0.000 A 
ATOM      7  C   UNL     1       6.498   5.896  16.418  0.00  0.00    +0.000 A 
ATOM      8  N   UNL     1       7.335   5.741  15.365  0.00  0.00    +0.000 NA
ATOM      9  C   UNL     1       6.917   4.984  14.336  0.00  0.00    +0.000 A 
ATOM     10  C   UNL     1       7.737   4.845  13.227  0.00  0.00    +0.000 A 
ATOM     11  C   UNL     1       7.350   4.083  12.121  0.00  0.00    +0.000 A 
ATOM     12  C   UNL     1       6.118   3.439  12.120  0.00  0.00    +0.000 A 
ATOM     13  C   UNL     1       5.276   3.561  13.225  0.00  0.00    +0.000 A 
ATOM     14  C   UNL     1       5.665   4.336  14.335  0.00  0.00    +0.000 A 
ATOM     15  C   UNL     1       4.830   4.508  15.450  0.00  0.00    +0.000 A 
ENDBRANCH   4   6
BRANCH   1  20
ATOM     16 CL   UNL     1      -0.500  10.467  21.439  0.00  0.00    +0.000 Cl
ATOM     17  C   UNL     1       0.527   9.358  20.629  0.00  0.00    +0.000 A 
ATOM     18  C   UNL     1       0.947   9.598  19.332  0.00  0.00    +0.000 A 
ATOM     19  C   UNL     1       1.813   8.678  18.744  0.00  0.00    +0.000 A 
ATOM     20  C   UNL     1       2.211   7.557  19.480  0.00  0.00    +0.000 A 
ATOM     21  C   UNL     1       1.714   7.394  20.766  0.00  0.00    +0.000 A 
ATOM     22  N   UNL     1       0.880   8.281  21.360  0.00  0.00    +0.000 NA
ENDBRANCH   1  20
TORSDOF 2
ENDMDL
MODEL 4
REMARK VINA RESULT:      -7.9      3.542      8.448
REMARK  Name = 
REMARK  2 active torsions:
REMARK  status: ('A' for Active; 'I' for Inactive)
REMARK    1  A    between atoms: C_5  and  N_6
REMARK    2  A    between atoms: C_9  and  C_10
REMARK                            x       y       z     vdW  Elec       q    Type
REMARK                         _______ _______ _______ _____ _____    ______ ____
ROOT
ATOM      1  N   UNL     1       1.421   7.665  20.599  0.00  0.00    +0.000 N 
ATOM      2  N   UNL     1       1.197   6.465  21.177  0.00  0.00    +0.000 NA
ATOM      3  N   UNL     1       2.001   5.618  20.556  0.00  0.00    +0.000 NA
ATOM      4  C   UNL     1       2.689   6.344  19.616  0.00  0.00    +0.000 A 
ATOM      5  N   UNL     1       2.305   7.628  19.571  0.00  0.00    +0.000 NA
ENDROOT
BRANCH   4   6
ATOM      6  C   UNL     1       3.789   5.787  18.854  0.00  0.00    +0.000 A 
ATOM      7  C   UNL     1       4.836   5.147  19.499  0.00  0.00    +0.000 A 
ATOM      8  N   UNL     1       5.947   4.682  18.879  0.00  0.00    +0.000 NA
ATOM      9  C   UNL     1       6.045   4.859  17.550  0.00  0.00    +0.000 A 
ATOM     10  C   UNL     1       7.191   4.430  16.897  0.00  0.00    +0.000 A 
ATOM     11  C   UNL     1       7.356   4.601  15.520  0.00  0.00    +0.000 A 
ATOM     12  C   UNL     1       6.354   5.209  14.772  0.00  0.00    +0.000 A 
ATOM     13  C   UNL     1       5.191   5.647  15.404  0.00  0.00    +0.000 A 
ATOM     14  C   UNL     1       5.031   5.481  16.793  0.00  0.00    +0.000 A 
ATOM     15  C   UNL     1       3.888   5.938  17.469  0.00  0.00    +0.000 A 
ENDBRANCH   4   6
BRANCH   1  20
ATOM     16 CL   UNL     1      -0.913  12.568  22.737  0.00  0.00    +0.000 Cl
ATOM     17  C   UNL     1      -0.275  11.138  22.041  0.00  0.00    +0.000 A 
ATOM     18  C   UNL     1      -0.281  10.952  20.669  0.00  0.00    +0.000 A 
ATOM     19  C   UNL     1       0.288   9.785  20.163  0.00  0.00    +0.000 A 
ATOM     20  C   UNL     1       0.831   8.855  21.056  0.00  0.00    +0.000 A 
ATOM     21  C   UNL     1       0.766   9.122  22.417  0.00  0.00    +0.000 A 
ATOM     22  N   UNL     1       0.227  10.254  22.929  0.00  0.00    +0.000 NA
ENDBRANCH   1  20
TORSDOF 2
ENDMDL
MODEL 5
REMARK VINA RESULT:      -7.8      0.786      1.135
REMARK  Name = 
REMARK  2 active torsions:
REMARK  status: ('A' for Active; 'I' for Inactive)
REMARK    1  A    between atoms: C_5  and  N_6
REMARK    2  A    between atoms: C_9  and  C_10
REMARK                            x       y       z     vdW  Elec       q    Type
REMARK                         _______ _______ _______ _____ _____    ______ ____
ROOT
ATOM      1  N   UNL     1       3.465   6.141  18.354  0.00  0.00    +0.000 N 
ATOM      2  N   UNL     1       3.082   5.387  19.408  0.00  0.00    +0.000 NA
ATOM      3  N   UNL     1       2.319   6.175  20.147  0.00  0.00    +0.000 NA
ATOM      4  C   UNL     1       2.267   7.388  19.507  0.00  0.00    +0.000 A 
ATOM      5  N   UNL     1       3.029   7.423  18.403  0.00  0.00    +0.000 NA
ENDROOT
BRANCH   4   6
ATOM      6  C   UNL     1       1.383   8.456  19.931  0.00  0.00    +0.000 A 
ATOM      7  C   UNL     1       1.148   9.542  19.102  0.00  0.00    +0.000 A 
ATOM      8  N   UNL     1       0.415  10.626  19.450  0.00  0.00    +0.000 NA
ATOM      9  C   UNL     1      -0.113  10.656  20.686  0.00  0.00    +0.000 A 
ATOM     10  C   UNL     1      -0.831  11.773  21.084  0.00  0.00    +0.000 A 
ATOM     11  C   UNL     1      -1.390  11.869  22.361  0.00  0.00    +0.000 A 
ATOM     12  C   UNL     1      -1.235  10.823  23.265  0.00  0.00    +0.000 A 
ATOM     13  C   UNL     1      -0.519   9.687  22.889  0.00  0.00    +0.000 A 
ATOM     14  C   UNL     1       0.050   9.598  21.603  0.00  0.00    +0.000 A 
ATOM     15  C   UNL     1       0.805   8.484  21.201  0.00  0.00    +0.000 A 
ENDBRANCH   4   6
BRANCH   1  20
ATOM     16 CL   UNL     1       6.430   3.760  13.926  0.00  0.00    +0.000 Cl
ATOM     17  C   UNL     1       5.604   4.529  15.217  0.00  0.00    +0.000 A 
ATOM     18  C   UNL     1       5.519   5.909  15.283  0.00  0.00    +0.000 A 
ATOM     19  C   UNL     1       4.800   6.472  16.336  0.00  0.00    +0.000 A 
ATOM     20  C   UNL     1       4.205   5.626  17.277  0.00  0.00    +0.000 A 
ATOM     21  C   UNL     1       4.368   4.254  17.136  0.00  0.00    +0.000 A 
ATOM     22  N   UNL     1       5.054   3.686  16.115  0.00  0.00    +0.000 NA
ENDBRANCH   1  20
TORSDOF 2
ENDMDL
MODEL 6
REMARK VINA RESULT:      -7.7      3.723      8.629
REMARK  Name = 
REMARK  2 active torsions:
REMARK  status: ('A' for Active; 'I' for Inactive)
REMARK    1  A    between atoms: C_5  and  N_6
REMARK    2  A    between atoms: C_9  and  C_10
REMARK                            x       y       z     vdW  Elec       q    Type
REMARK                         _______ _______ _______ _____ _____    ______ ____
ROOT
ATOM      1  N   UNL     1       0.941   9.827  19.774  0.00  0.00    +0.000 N 
ATOM      2  N   UNL     1       1.196  10.477  18.617  0.00  0.00    +0.000 NA
ATOM      3  N   UNL     1       1.935   9.645  17.901  0.00  0.00    +0.000 NA
ATOM      4  C   UNL     1       2.102   8.514  18.659  0.00  0.00    +0.000 A 
ATOM      5  N   UNL     1       1.541   8.616  19.873  0.00  0.00    +0.000 NA
ENDROOT
BRANCH   4   6
ATOM      6  C   UNL     1       2.717   7.310  18.135  0.00  0.00    +0.000 A 
ATOM      7  C   UNL     1       2.302   6.062  18.576  0.00  0.00    +0.000 A 
ATOM      8  N   UNL     1       2.879   4.892  18.214  0.00  0.00    +0.000 NA
ATOM      9  C   UNL     1       3.931   4.942  17.379  0.00  0.00    +0.000 A 
ATOM     10  C   UNL     1       4.568   3.762  17.027  0.00  0.00    +0.000 A 
ATOM     11  C   UNL     1       5.676   3.754  16.176  0.00  0.00    +0.000 A 
ATOM     12  C   UNL     1       6.160   4.949  15.656  0.00  0.00    +0.000 A 
ATOM     13  C   UNL     1       5.536   6.150  15.992  0.00  0.00    +0.000 A 
ATOM     14  C   UNL     1       4.425   6.156  16.857  0.00  0.00    +0.000 A 
ATOM     15  C   UNL     1       3.791   7.348  17.244  0.00  0.00    +0.000 A 
ENDBRANCH   4   6
BRANCH   1  20
ATOM     16 CL   UNL     1      -2.741  12.087  23.698  0.00  0.00    +0.000 Cl
ATOM     17  C   UNL     1      -1.613  11.395  22.609  0.00  0.00    +0.000 A 
ATOM     18  C   UNL     1      -0.812  10.334  22.995  0.00  0.00    +0.000 A 
ATOM     19  C   UNL     1       0.057   9.791  22.051  0.00  0.00    +0.000 A 
ATOM     20  C   UNL     1       0.088  10.340  20.766  0.00  0.00    +0.000 A 
ATOM     21  C   UNL     1      -0.737  11.421  20.483  0.00  0.00    +0.000 A 
ATOM     22  N   UNL     1      -1.596  11.957  21.383  0.00  0.00    +0.000 NA
ENDBRANCH   1  20
TORSDOF 2
ENDMDL
MODEL 7
REMARK VINA RESULT:      -7.6      1.488      2.284
REMARK  Name = 
REMARK  2 active torsions:
REMARK  status: ('A' for Active; 'I' for Inactive)
REMARK    1  A    between atoms: C_5  and  N_6
REMARK    2  A    between atoms: C_9  and  C_10
REMARK                            x       y       z     vdW  Elec       q    Type
REMARK                         _______ _______ _______ _____ _____    ______ ____
ROOT
ATOM      1  N   UNL     1       2.840   6.319  19.140  0.00  0.00    +0.000 N 
ATOM      2  N   UNL     1       2.188   5.500  19.995  0.00  0.00    +0.000 NA
ATOM      3  N   UNL     1       1.513   6.300  20.803  0.00  0.00    +0.000 NA
ATOM      4  C   UNL     1       1.784   7.585  20.405  0.00  0.00    +0.000 A 
ATOM      5  N   UNL     1       2.667   7.639  19.397  0.00  0.00    +0.000 NA
ENDROOT
BRANCH   4   6
ATOM      6  C   UNL     1       1.087   8.733  20.950  0.00  0.00    +0.000 A 
ATOM      7  C   UNL     1       1.123   8.995  22.311  0.00  0.00    +0.000 A 
ATOM      8  N   UNL     1       0.428   9.985  22.919  0.00  0.00    +0.000 NA
ATOM      9  C   UNL     1      -0.357  10.763  22.153  0.00  0.00    +0.000 A 
ATOM     10  C   UNL     1      -1.113  11.757  22.756  0.00  0.00    +0.000 A 
ATOM     11  C   UNL     1      -1.959  12.585  22.014  0.00  0.00    +0.000 A 
ATOM     12  C   UNL     1      -2.052  12.425  20.636  0.00  0.00    +0.000 A 
ATOM     13  C   UNL     1      -1.301  11.434  20.005  0.00  0.00    +0.000 A 
ATOM     14  C   UNL     1      -0.455  10.595  20.757  0.00  0.00    +0.000 A 
ATOM     15  C   UNL     1       0.291   9.566  20.160  0.00  0.00    +0.000 A 
ENDBRANCH   4   6
BRANCH   1  20
ATOM     16 CL   UNL     1       5.808   4.120  14.621  0.00  0.00    +0.000 Cl
ATOM     17  C   UNL     1       4.990   4.829  15.951  0.00  0.00    +0.000 A 
ATOM     18  C   UNL     1       5.079   6.189  16.195  0.00  0.00    +0.000 A 
ATOM     19  C   UNL     1       4.359   6.711  17.268  0.00  0.00    +0.000 A 
ATOM     20  C   UNL     1       3.589   5.845  18.050  0.00  0.00    +0.000 A 
ATOM     21  C   UNL     1       3.585   4.492  17.739  0.00  0.00    +0.000 A 
ATOM     22  N   UNL     1       4.269   3.966  16.695  0.00  0.00    +0.000 NA
ENDBRANCH   1  20
TORSDOF 2
ENDMDL
MODEL 8
REMARK VINA RESULT:      -7.6      3.945      8.338
REMARK  Name = 
REMARK  2 active torsions:
REMARK  status: ('A' for Active; 'I' for Inactive)
REMARK    1  A    between atoms: C_5  and  N_6
REMARK    2  A    between atoms: C_9  and  C_10
REMARK                            x       y       z     vdW  Elec       q    Type
REMARK                         _______ _______ _______ _____ _____    ______ ____
ROOT
ATOM      1  N   UNL     1       1.036   9.702  19.643  0.00  0.00    +0.000 N 
ATOM      2  N   UNL     1       1.317  10.066  18.372  0.00  0.00    +0.000 NA
ATOM      3  N   UNL     1       1.985   9.048  17.854  0.00  0.00    +0.000 NA
ATOM      4  C   UNL     1       2.084   8.098  18.839  0.00  0.00    +0.000 A 
ATOM      5  N   UNL     1       1.550   8.501  20.002  0.00  0.00    +0.000 NA
ENDROOT
BRANCH   4   6
ATOM      6  C   UNL     1       2.604   6.768  18.589  0.00  0.00    +0.000 A 
ATOM      7  C   UNL     1       3.656   6.581  17.706  0.00  0.00    +0.000 A 
ATOM      8  N   UNL     1       4.143   5.371  17.341  0.00  0.00    +0.000 NA
ATOM      9  C   UNL     1       3.562   4.277  17.864  0.00  0.00    +0.000 A 
ATOM     10  C   UNL     1       4.013   3.025  17.474  0.00  0.00    +0.000 A 
ATOM     11  C   UNL     1       3.438   1.852  17.971  0.00  0.00    +0.000 A 
ATOM     12  C   UNL     1       2.392   1.926  18.884  0.00  0.00    +0.000 A 
ATOM     13  C   UNL     1       1.921   3.173  19.294  0.00  0.00    +0.000 A 
ATOM     14  C   UNL     1       2.497   4.353  18.785  0.00  0.00    +0.000 A 
ATOM     15  C   UNL     1       2.028   5.626  19.150  0.00  0.00    +0.000 A 
ENDBRANCH   4   6
BRANCH   1  20
ATOM     16 CL   UNL     1      -2.114  12.866  23.402  0.00  0.00    +0.000 Cl
ATOM     17  C   UNL     1      -1.250  11.947  22.241  0.00  0.00    +0.000 A 
ATOM     18  C   UNL     1      -1.474  12.123  20.887  0.00  0.00    +0.000 A 
ATOM     19  C   UNL     1      -0.711  11.373  19.993  0.00  0.00    +0.000 A 
ATOM     20  C   UNL     1       0.236  10.478  20.499  0.00  0.00    +0.000 A 
ATOM     21  C   UNL     1       0.369  10.356  21.876  0.00  0.00    +0.000 A 
ATOM     22  N   UNL     1      -0.355  11.082  22.761  0.00  0.00    +0.000 NA
ENDBRANCH   1  20
TORSDOF 2
ENDMDL
MODEL 9
REMARK VINA RESULT:      -7.5      1.379      2.046
REMARK  Name = 
REMARK  2 active torsions:
REMARK  status: ('A' for Active; 'I' for Inactive)
REMARK    1  A    between atoms: C_5  and  N_6
REMARK    2  A    between atoms: C_9  and  C_10
REMARK                            x       y       z     vdW  Elec       q    Type
REMARK                         _______ _______ _______ _____ _____    ______ ____
ROOT
ATOM      1  N   UNL     1       2.831   6.265  19.177  0.00  0.00    +0.000 N 
ATOM      2  N   UNL     1       2.191   5.465  20.058  0.00  0.00    +0.000 NA
ATOM      3  N   UNL     1       1.524   6.283  20.856  0.00  0.00    +0.000 NA
ATOM      4  C   UNL     1       1.787   7.559  20.425  0.00  0.00    +0.000 A 
ATOM      5  N   UNL     1       2.658   7.590  19.405  0.00  0.00    +0.000 NA
ENDROOT
BRANCH   4   6
ATOM      6  C   UNL     1       1.094   8.718  20.951  0.00  0.00    +0.000 A 
ATOM      7  C   UNL     1       1.127   8.998  22.308  0.00  0.00    +0.000 A 
ATOM      8  N   UNL     1       0.435  10.001  22.899  0.00  0.00    +0.000 NA
ATOM      9  C   UNL     1      -0.344  10.772  22.120  0.00  0.00    +0.000 A 
ATOM     10  C   UNL     1      -1.096  11.778  22.705  0.00  0.00    +0.000 A 
ATOM     11  C   UNL     1      -1.935  12.601  21.949  0.00  0.00    +0.000 A 
ATOM     12  C   UNL     1      -2.023  12.422  20.572  0.00  0.00    +0.000 A 
ATOM     13  C   UNL     1      -1.275  11.418  19.958  0.00  0.00    +0.000 A 
ATOM     14  C   UNL     1      -0.437  10.585  20.725  0.00  0.00    +0.000 A 
ATOM     15  C   UNL     1       0.306   9.544  20.146  0.00  0.00    +0.000 A 
ENDBRANCH   4   6
BRANCH   1  20
ATOM     16 CL   UNL     1       6.029   4.429  14.654  0.00  0.00    +0.000 Cl
ATOM     17  C   UNL     1       5.042   4.900  15.974  0.00  0.00    +0.000 A 
ATOM     18  C   UNL     1       4.328   3.960  16.697  0.00  0.00    +0.000 A 
ATOM     19  C   UNL     1       3.575   4.403  17.783  0.00  0.00    +0.000 A 
ATOM     20  C   UNL     1       3.568   5.767  18.090  0.00  0.00    +0.000 A 
ATOM     21  C   UNL     1       4.298   6.634  17.288  0.00  0.00    +0.000 A 
ATOM     22  N   UNL     1       5.044   6.224  16.234  0.00  0.00    +0.000 NA
ENDBRANCH   1  20
TORSDOF 2
ENDMDL
