MODEL 1
REMARK VINA RESULT:      -9.7      0.000      0.000
REMARK  Name = 
REMARK  5 active torsions:
REMARK  status: ('A' for Active; 'I' for Inactive)
REMARK    1  A    between atoms: C_1  and  O_2
REMARK    2  A    between atoms: O_2  and  C_3
REMARK    3  A    between atoms: C_9  and  C_10
REMARK    4  A    between atoms: C_19  and  N_20
REMARK    5  A    between atoms: C_21  and  C_22
REMARK                            x       y       z     vdW  Elec       q    Type
REMARK                         _______ _______ _______ _____ _____    ______ ____
ROOT
ATOM      1  C   UNL     1       2.716   6.561  18.782  0.00  0.00    +0.000 A 
ATOM      2  C   UNL     1       2.493   7.805  18.150  0.00  0.00    +0.000 A 
ATOM      3  C   UNL     1       1.739   8.826  18.756  0.00  0.00    +0.000 A 
ATOM      4  C   UNL     1       1.404  10.029  18.123  0.00  0.00    +0.000 A 
ATOM      5  N   UNL     1       0.647  11.005  18.679  0.00  0.00    +0.000 NA
ATOM      6  C   UNL     1       0.203  10.781  19.933  0.00  0.00    +0.000 A 
ATOM      7  C   UNL     1       0.482   9.633  20.653  0.00  0.00    +0.000 A 
ATOM      8  C   UNL     1       1.259   8.634  20.053  0.00  0.00    +0.000 A 
ATOM      9  C   UNL     1       1.553   7.438  20.721  0.00  0.00    +0.000 A 
ATOM     10  C   UNL     1       2.262   6.384  20.118  0.00  0.00    +0.000 A 
ENDROOT
BRANCH   1  17
ATOM     11  C   UNL     1       6.844   6.050  16.501  0.00  0.00    +0.000 A 
ATOM     12  C   UNL     1       6.832   4.933  15.674  0.00  0.00    +0.000 A 
ATOM     13  C   UNL     1       5.748   4.043  15.679  0.00  0.00    +0.000 A 
ATOM     14  C   UNL     1       4.665   4.328  16.520  0.00  0.00    +0.000 A 
ATOM     15  N   UNL     1       3.496   3.627  16.740  0.00  0.00    +0.000 N 
ATOM     16  C   UNL     1       2.690   4.303  17.619  0.00  0.00    +0.000 A 
ATOM     17  C   UNL     1       3.303   5.500  17.946  0.00  0.00    +0.000 A 
ATOM     18  C   UNL     1       4.608   5.470  17.320  0.00  0.00    +0.000 A 
ATOM     19  C   UNL     1       5.739   6.320  17.320  0.00  0.00    +0.000 A 
ATOM     20  H   UNL     1       3.282   2.736  16.310  0.00  0.00    +0.000 HD
BRANCH  11  22
ATOM     21  C   UNL     1       7.751   7.930  17.645  0.00  0.00    +0.000 C 
ATOM     22  O   UNL     1       7.857   6.964  16.608  0.00  0.00    +0.000 OA
ENDBRANCH  11  22
ENDBRANCH   1  17
BRANCH  10  23
ATOM     23  N   UNL     1       2.493   5.175  20.841  0.00  0.00    +0.000 N 
ATOM     24  C   UNL     1       1.652   4.076  20.938  0.00  0.00    +0.000 C 
ATOM     25  C   UNL     1       2.119   3.025  21.914  0.00  0.00    +0.000 C 
ATOM     26  O   UNL     1       0.599   3.890  20.335  0.00  0.00    +0.000 OA
ATOM     27  H   UNL     1       3.369   5.125  21.340  0.00  0.00    +0.000 HD
ENDBRANCH  10  23
TORSDOF 3
ENDMDL
MODEL 2
REMARK VINA RESULT:      -8.2      2.251      6.098
REMARK  Name = 
REMARK  5 active torsions:
REMARK  status: ('A' for Active; 'I' for Inactive)
REMARK    1  A    between atoms: C_1  and  O_2
REMARK    2  A    between atoms: O_2  and  C_3
REMARK    3  A    between atoms: C_9  and  C_10
REMARK    4  A    between atoms: C_19  and  N_20
REMARK    5  A    between atoms: C_21  and  C_22
REMARK                            x       y       z     vdW  Elec       q    Type
REMARK                         _______ _______ _______ _____ _____    ______ ____
ROOT
ATOM      1  C   UNL     1       3.297   5.769  18.199  0.00  0.00    +0.000 A 
ATOM      2  C   UNL     1       4.448   6.467  17.767  0.00  0.00    +0.000 A 
ATOM      3  C   UNL     1       5.379   5.894  16.882  0.00  0.00    +0.000 A 
ATOM      4  C   UNL     1       6.583   6.506  16.515  0.00  0.00    +0.000 A 
ATOM      5  N   UNL     1       7.507   5.952  15.694  0.00  0.00    +0.000 NA
ATOM      6  C   UNL     1       7.221   4.727  15.206  0.00  0.00    +0.000 A 
ATOM      7  C   UNL     1       6.058   4.037  15.497  0.00  0.00    +0.000 A 
ATOM      8  C   UNL     1       5.122   4.627  16.355  0.00  0.00    +0.000 A 
ATOM      9  C   UNL     1       3.938   3.967  16.709  0.00  0.00    +0.000 A 
ATOM     10  C   UNL     1       3.017   4.497  17.629  0.00  0.00    +0.000 A 
ENDROOT
BRANCH   1  17
ATOM     11  C   UNL     1       1.418  10.059  18.956  0.00  0.00    +0.000 A 
ATOM     12  C   UNL     1       0.974  10.194  20.266  0.00  0.00    +0.000 A 
ATOM     13  C   UNL     1       0.987   9.105  21.149  0.00  0.00    +0.000 A 
ATOM     14  C   UNL     1       1.488   7.884  20.682  0.00  0.00    +0.000 A 
ATOM     15  N   UNL     1       1.599   6.662  21.315  0.00  0.00    +0.000 N 
ATOM     16  C   UNL     1       2.196   5.746  20.489  0.00  0.00    +0.000 A 
ATOM     17  C   UNL     1       2.542   6.380  19.308  0.00  0.00    +0.000 A 
ATOM     18  C   UNL     1       2.002   7.720  19.395  0.00  0.00    +0.000 A 
ATOM     19  C   UNL     1       1.930   8.829  18.520  0.00  0.00    +0.000 A 
ATOM     20  H   UNL     1       1.273   6.482  22.256  0.00  0.00    +0.000 HD
BRANCH  11  22
ATOM     21  C   UNL     1       2.102  12.245  18.308  0.00  0.00    +0.000 C 
ATOM     22  O   UNL     1       1.419  11.037  17.999  0.00  0.00    +0.000 OA
ENDBRANCH  11  22
ENDBRANCH   1  17
BRANCH  10  23
ATOM     23  N   UNL     1       1.849   3.754  17.977  0.00  0.00    +0.000 N 
ATOM     24  C   UNL     1       1.766   2.663  18.830  0.00  0.00    +0.000 C 
ATOM     25  C   UNL     1       0.410   2.002  18.857  0.00  0.00    +0.000 C 
ATOM     26  O   UNL     1       2.660   2.195  19.529  0.00  0.00    +0.000 OA
ATOM     27  H   UNL     1       0.990   4.062  17.545  0.00  0.00    +0.000 HD
ENDBRANCH  10  23
TORSDOF 3
ENDMDL
MODEL 3
REMARK VINA RESULT:      -8.2      2.566      7.108
REMARK  Name = 
REMARK  5 active torsions:
REMARK  status: ('A' for Active; 'I' for Inactive)
REMARK    1  A    between atoms: C_1  and  O_2
REMARK    2  A    between atoms: O_2  and  C_3
REMARK    3  A    between atoms: C_9  and  C_10
REMARK    4  A    between atoms: C_19  and  N_20
REMARK    5  A    between atoms: C_21  and  C_22
REMARK                            x       y       z     vdW  Elec       q    Type
REMARK                         _______ _______ _______ _____ _____    ______ ____
ROOT
ATOM      1  C   UNL     1       5.609   4.639  16.525  0.00  0.00    +0.000 A 
ATOM      2  C   UNL     1       5.091   3.946  15.407  0.00  0.00    +0.000 A 
ATOM      3  C   UNL     1       5.732   3.963  14.156  0.00  0.00    +0.000 A 
ATOM      4  C   UNL     1       5.199   3.382  12.999  0.00  0.00    +0.000 A 
ATOM      5  N   UNL     1       5.786   3.422  11.779  0.00  0.00    +0.000 NA
ATOM      6  C   UNL     1       6.967   4.069  11.700  0.00  0.00    +0.000 A 
ATOM      7  C   UNL     1       7.587   4.670  12.781  0.00  0.00    +0.000 A 
ATOM      8  C   UNL     1       6.956   4.622  14.031  0.00  0.00    +0.000 A 
ATOM      9  C   UNL     1       7.521   5.235  15.157  0.00  0.00    +0.000 A 
ATOM     10  C   UNL     1       6.876   5.274  16.406  0.00  0.00    +0.000 A 
ENDROOT
BRANCH   1  17
ATOM     11  C   UNL     1       2.595   7.944  18.104  0.00  0.00    +0.000 A 
ATOM     12  C   UNL     1       2.142   7.647  19.385  0.00  0.00    +0.000 A 
ATOM     13  C   UNL     1       2.471   6.433  20.003  0.00  0.00    +0.000 A 
ATOM     14  C   UNL     1       3.295   5.540  19.307  0.00  0.00    +0.000 A 
ATOM     15  N   UNL     1       3.754   4.287  19.659  0.00  0.00    +0.000 N 
ATOM     16  C   UNL     1       4.580   3.787  18.686  0.00  0.00    +0.000 A 
ATOM     17  C   UNL     1       4.722   4.745  17.696  0.00  0.00    +0.000 A 
ATOM     18  C   UNL     1       3.823   5.824  18.047  0.00  0.00    +0.000 A 
ATOM     19  C   UNL     1       3.432   7.039  17.437  0.00  0.00    +0.000 A 
ATOM     20  H   UNL     1       3.500   3.813  20.516  0.00  0.00    +0.000 HD
BRANCH  11  22
ATOM     21  C   UNL     1       1.755  10.171  18.105  0.00  0.00    +0.000 C 
ATOM     22  O   UNL     1       2.309   9.076  17.389  0.00  0.00    +0.000 OA
ENDBRANCH  11  22
ENDBRANCH   1  17
BRANCH  10  23
ATOM     23  N   UNL     1       7.488   5.951  17.504  0.00  0.00    +0.000 N 
ATOM     24  C   UNL     1       7.609   7.321  17.689  0.00  0.00    +0.000 C 
ATOM     25  C   UNL     1       8.456   7.711  18.874  0.00  0.00    +0.000 C 
ATOM     26  O   UNL     1       7.121   8.211  16.998  0.00  0.00    +0.000 OA
ATOM     27  H   UNL     1       7.879   5.357  18.220  0.00  0.00    +0.000 HD
ENDBRANCH  10  23
TORSDOF 3
ENDMDL
MODEL 4
REMARK VINA RESULT:      -7.6      2.761      6.852
REMARK  Name = 
REMARK  5 active torsions:
REMARK  status: ('A' for Active; 'I' for Inactive)
REMARK    1  A    between atoms: C_1  and  O_2
REMARK    2  A    between atoms: O_2  and  C_3
REMARK    3  A    between atoms: C_9  and  C_10
REMARK    4  A    between atoms: C_19  and  N_20
REMARK    5  A    between atoms: C_21  and  C_22
REMARK                            x       y       z     vdW  Elec       q    Type
REMARK                         _______ _______ _______ _____ _____    ______ ____
ROOT
ATOM      1  C   UNL     1       5.286   3.771  16.598  0.00  0.00    +0.000 A 
ATOM      2  C   UNL     1       4.943   3.468  15.261  0.00  0.00    +0.000 A 
ATOM      3  C   UNL     1       5.741   3.872  14.176  0.00  0.00    +0.000 A 
ATOM      4  C   UNL     1       5.385   3.688  12.835  0.00  0.00    +0.000 A 
ATOM      5  N   UNL     1       6.125   4.105  11.779  0.00  0.00    +0.000 NA
ATOM      6  C   UNL     1       7.283   4.733  12.067  0.00  0.00    +0.000 A 
ATOM      7  C   UNL     1       7.735   4.958  13.355  0.00  0.00    +0.000 A 
ATOM      8  C   UNL     1       6.948   4.526  14.430  0.00  0.00    +0.000 A 
ATOM      9  C   UNL     1       7.339   4.750  15.757  0.00  0.00    +0.000 A 
ATOM     10  C   UNL     1       6.535   4.400  16.856  0.00  0.00    +0.000 A 
ENDROOT
BRANCH   1  17
ATOM     11  C   UNL     1       2.482   6.534  19.245  0.00  0.00    +0.000 A 
ATOM     12  C   UNL     1       1.806   5.795  20.211  0.00  0.00    +0.000 A 
ATOM     13  C   UNL     1       1.891   4.396  20.238  0.00  0.00    +0.000 A 
ATOM     14  C   UNL     1       2.699   3.765  19.284  0.00  0.00    +0.000 A 
ATOM     15  N   UNL     1       2.946   2.424  19.068  0.00  0.00    +0.000 N 
ATOM     16  C   UNL     1       3.845   2.260  18.046  0.00  0.00    +0.000 A 
ATOM     17  C   UNL     1       4.249   3.511  17.612  0.00  0.00    +0.000 A 
ATOM     18  C   UNL     1       3.443   4.470  18.338  0.00  0.00    +0.000 A 
ATOM     19  C   UNL     1       3.297   5.877  18.313  0.00  0.00    +0.000 A 
ATOM     20  H   UNL     1       2.510   1.677  19.594  0.00  0.00    +0.000 HD
BRANCH  11  22
ATOM     21  C   UNL     1       2.523   8.405  17.775  0.00  0.00    +0.000 C 
ATOM     22  O   UNL     1       2.445   7.894  19.099  0.00  0.00    +0.000 OA
ENDBRANCH  11  22
ENDBRANCH   1  17
BRANCH  10  23
ATOM     23  N   UNL     1       6.974   4.692  18.182  0.00  0.00    +0.000 N 
ATOM     24  C   UNL     1       7.550   5.868  18.640  0.00  0.00    +0.000 C 
ATOM     25  C   UNL     1       8.053   5.797  20.061  0.00  0.00    +0.000 C 
ATOM     26  O   UNL     1       7.695   6.918  18.019  0.00  0.00    +0.000 OA
ATOM     27  H   UNL     1       6.852   3.951  18.857  0.00  0.00    +0.000 HD
ENDBRANCH  10  23
TORSDOF 3
ENDMDL
MODEL 5
REMARK VINA RESULT:      -7.6      2.594      7.238
REMARK  Name = 
REMARK  5 active torsions:
REMARK  status: ('A' for Active; 'I' for Inactive)
REMARK    1  A    between atoms: C_1  and  O_2
REMARK    2  A    between atoms: O_2  and  C_3
REMARK    3  A    between atoms: C_9  and  C_10
REMARK    4  A    between atoms: C_19  and  N_20
REMARK    5  A    between atoms: C_21  and  C_22
REMARK                            x       y       z     vdW  Elec       q    Type
REMARK                         _______ _______ _______ _____ _____    ______ ____
ROOT
ATOM      1  C   UNL     1       5.317   5.361  16.041  0.00  0.00    +0.000 A 
ATOM      2  C   UNL     1       4.699   4.520  15.088  0.00  0.00    +0.000 A 
ATOM      3  C   UNL     1       5.371   4.076  13.936  0.00  0.00    +0.000 A 
ATOM      4  C   UNL     1       4.764   3.332  12.917  0.00  0.00    +0.000 A 
ATOM      5  N   UNL     1       5.388   2.930  11.784  0.00  0.00    +0.000 NA
ATOM      6  C   UNL     1       6.685   3.279  11.655  0.00  0.00    +0.000 A 
ATOM      7  C   UNL     1       7.383   4.003  12.604  0.00  0.00    +0.000 A 
ATOM      8  C   UNL     1       6.714   4.416  13.763  0.00  0.00    +0.000 A 
ATOM      9  C   UNL     1       7.360   5.175  14.748  0.00  0.00    +0.000 A 
ATOM     10  C   UNL     1       6.696   5.671  15.883  0.00  0.00    +0.000 A 
ENDROOT
BRANCH   1  17
ATOM     11  C   UNL     1       3.122   3.667  19.890  0.00  0.00    +0.000 A 
ATOM     12  C   UNL     1       2.228   4.594  20.414  0.00  0.00    +0.000 A 
ATOM     13  C   UNL     1       2.151   5.894  19.894  0.00  0.00    +0.000 A 
ATOM     14  C   UNL     1       2.977   6.223  18.814  0.00  0.00    +0.000 A 
ATOM     15  N   UNL     1       3.122   7.413  18.129  0.00  0.00    +0.000 N 
ATOM     16  C   UNL     1       4.018   7.270  17.102  0.00  0.00    +0.000 A 
ATOM     17  C   UNL     1       4.434   5.950  17.063  0.00  0.00    +0.000 A 
ATOM     18  C   UNL     1       3.843   5.306  18.216  0.00  0.00    +0.000 A 
ATOM     19  C   UNL     1       3.926   4.018  18.797  0.00  0.00    +0.000 A 
ATOM     20  H   UNL     1       2.634   8.266  18.370  0.00  0.00    +0.000 HD
BRANCH  11  22
ATOM     21  C   UNL     1       4.644   1.892  20.339  0.00  0.00    +0.000 C 
ATOM     22  O   UNL     1       3.311   2.387  20.336  0.00  0.00    +0.000 OA
ENDBRANCH  11  22
ENDBRANCH   1  17
BRANCH  10  23
ATOM     23  N   UNL     1       7.403   6.473  16.829  0.00  0.00    +0.000 N 
ATOM     24  C   UNL     1       7.740   6.140  18.133  0.00  0.00    +0.000 C 
ATOM     25  C   UNL     1       8.343   7.274  18.924  0.00  0.00    +0.000 C 
ATOM     26  O   UNL     1       7.589   5.054  18.686  0.00  0.00    +0.000 OA
ATOM     27  H   UNL     1       7.681   7.388  16.505  0.00  0.00    +0.000 HD
ENDBRANCH  10  23
TORSDOF 3
ENDMDL
MODEL 6
REMARK VINA RESULT:      -7.6      3.629      6.145
REMARK  Name = 
REMARK  5 active torsions:
REMARK  status: ('A' for Active; 'I' for Inactive)
REMARK    1  A    between atoms: C_1  and  O_2
REMARK    2  A    between atoms: O_2  and  C_3
REMARK    3  A    between atoms: C_9  and  C_10
REMARK    4  A    between atoms: C_19  and  N_20
REMARK    5  A    between atoms: C_21  and  C_22
REMARK                            x       y       z     vdW  Elec       q    Type
REMARK                         _______ _______ _______ _____ _____    ______ ____
ROOT
ATOM      1  C   UNL     1       5.196   4.817  16.405  0.00  0.00    +0.000 A 
ATOM      2  C   UNL     1       4.326   3.712  16.537  0.00  0.00    +0.000 A 
ATOM      3  C   UNL     1       3.552   3.505  17.693  0.00  0.00    +0.000 A 
ATOM      4  C   UNL     1       2.761   2.371  17.910  0.00  0.00    +0.000 A 
ATOM      5  N   UNL     1       2.040   2.140  19.033  0.00  0.00    +0.000 NA
ATOM      6  C   UNL     1       2.101   3.086  19.992  0.00  0.00    +0.000 A 
ATOM      7  C   UNL     1       2.842   4.248  19.878  0.00  0.00    +0.000 A 
ATOM      8  C   UNL     1       3.587   4.460  18.711  0.00  0.00    +0.000 A 
ATOM      9  C   UNL     1       4.378   5.605  18.547  0.00  0.00    +0.000 A 
ATOM     10  C   UNL     1       5.198   5.809  17.424  0.00  0.00    +0.000 A 
ENDROOT
BRANCH   1  17
ATOM     11  C   UNL     1       4.863   3.330  11.913  0.00  0.00    +0.000 A 
ATOM     12  C   UNL     1       6.104   3.330  11.285  0.00  0.00    +0.000 A 
ATOM     13  C   UNL     1       7.236   3.854  11.925  0.00  0.00    +0.000 A 
ATOM     14  C   UNL     1       7.088   4.349  13.226  0.00  0.00    +0.000 A 
ATOM     15  N   UNL     1       8.012   4.931  14.071  0.00  0.00    +0.000 N 
ATOM     16  C   UNL     1       7.437   5.227  15.279  0.00  0.00    +0.000 A 
ATOM     17  C   UNL     1       6.126   4.783  15.262  0.00  0.00    +0.000 A 
ATOM     18  C   UNL     1       5.877   4.311  13.917  0.00  0.00    +0.000 A 
ATOM     19  C   UNL     1       4.748   3.816  13.222  0.00  0.00    +0.000 A 
ATOM     20  H   UNL     1       8.974   5.115  13.816  0.00  0.00    +0.000 HD
BRANCH  11  22
ATOM     21  C   UNL     1       3.209   3.548  10.215  0.00  0.00    +0.000 C 
ATOM     22  O   UNL     1       3.687   2.880  11.376  0.00  0.00    +0.000 OA
ENDBRANCH  11  22
ENDBRANCH   1  17
BRANCH  10  23
ATOM     23  N   UNL     1       6.012   6.979  17.338  0.00  0.00    +0.000 N 
ATOM     24  C   UNL     1       7.247   7.193  17.933  0.00  0.00    +0.000 C 
ATOM     25  C   UNL     1       7.770   8.600  17.781  0.00  0.00    +0.000 C 
ATOM     26  O   UNL     1       7.923   6.380  18.558  0.00  0.00    +0.000 OA
ATOM     27  H   UNL     1       5.636   7.734  16.783  0.00  0.00    +0.000 HD
ENDBRANCH  10  23
TORSDOF 3
ENDMDL
MODEL 7
REMARK VINA RESULT:      -7.4      2.086      3.072
REMARK  Name = 
REMARK  5 active torsions:
REMARK  status: ('A' for Active; 'I' for Inactive)
REMARK    1  A    between atoms: C_1  and  O_2
REMARK    2  A    between atoms: O_2  and  C_3
REMARK    3  A    between atoms: C_9  and  C_10
REMARK    4  A    between atoms: C_19  and  N_20
REMARK    5  A    between atoms: C_21  and  C_22
REMARK                            x       y       z     vdW  Elec       q    Type
REMARK                         _______ _______ _______ _____ _____    ______ ____
ROOT
ATOM      1  C   UNL     1       2.640   7.672  18.794  0.00  0.00    +0.000 A 
ATOM      2  C   UNL     1       2.198   8.906  18.266  0.00  0.00    +0.000 A 
ATOM      3  C   UNL     1       1.173   9.653  18.872  0.00  0.00    +0.000 A 
ATOM      4  C   UNL     1       0.633  10.823  18.325  0.00  0.00    +0.000 A 
ATOM      5  N   UNL     1      -0.381  11.533  18.878  0.00  0.00    +0.000 NA
ATOM      6  C   UNL     1      -0.883  11.061  20.037  0.00  0.00    +0.000 A 
ATOM      7  C   UNL     1      -0.417   9.922  20.669  0.00  0.00    +0.000 A 
ATOM      8  C   UNL     1       0.625   9.200  20.074  0.00  0.00    +0.000 A 
ATOM      9  C   UNL     1       1.121   8.024  20.651  0.00  0.00    +0.000 A 
ATOM     10  C   UNL     1       2.110   7.234  20.039  0.00  0.00    +0.000 A 
ENDROOT
BRANCH   1  17
ATOM     11  C   UNL     1       2.696   3.153  17.353  0.00  0.00    +0.000 A 
ATOM     12  C   UNL     1       3.886   2.842  16.703  0.00  0.00    +0.000 A 
ATOM     13  C   UNL     1       4.837   3.834  16.426  0.00  0.00    +0.000 A 
ATOM     14  C   UNL     1       4.568   5.142  16.848  0.00  0.00    +0.000 A 
ATOM     15  N   UNL     1       5.304   6.300  16.694  0.00  0.00    +0.000 N 
ATOM     16  C   UNL     1       4.678   7.352  17.310  0.00  0.00    +0.000 A 
ATOM     17  C   UNL     1       3.537   6.878  17.936  0.00  0.00    +0.000 A 
ATOM     18  C   UNL     1       3.417   5.486  17.558  0.00  0.00    +0.000 A 
ATOM     19  C   UNL     1       2.461   4.467  17.779  0.00  0.00    +0.000 A 
ATOM     20  H   UNL     1       6.178   6.351  16.186  0.00  0.00    +0.000 HD
BRANCH  11  22
ATOM     21  C   UNL     1       1.660   1.728  18.953  0.00  0.00    +0.000 C 
ATOM     22  O   UNL     1       1.684   2.279  17.643  0.00  0.00    +0.000 OA
ENDBRANCH  11  22
ENDBRANCH   1  17
BRANCH  10  23
ATOM     23  N   UNL     1       2.543   6.025  20.661  0.00  0.00    +0.000 N 
ATOM     24  C   UNL     1       1.791   4.883  20.900  0.00  0.00    +0.000 C 
ATOM     25  C   UNL     1       2.500   3.838  21.725  0.00  0.00    +0.000 C 
ATOM     26  O   UNL     1       0.643   4.657  20.528  0.00  0.00    +0.000 OA
ATOM     27  H   UNL     1       3.506   6.008  20.963  0.00  0.00    +0.000 HD
ENDBRANCH  10  23
TORSDOF 3
ENDMDL
MODEL 8
REMARK VINA RESULT:      -7.3      2.145      6.995
REMARK  Name = 
REMARK  5 active torsions:
REMARK  status: ('A' for Active; 'I' for Inactive)
REMARK    1  A    between atoms: C_1  and  O_2
REMARK    2  A    between atoms: O_2  and  C_3
REMARK    3  A    between atoms: C_9  and  C_10
REMARK    4  A    between atoms: C_19  and  N_20
REMARK    5  A    between atoms: C_21  and  C_22
REMARK                            x       y       z     vdW  Elec       q    Type
REMARK                         _______ _______ _______ _____ _____    ______ ____
ROOT
ATOM      1  C   UNL     1       2.942   6.417  18.588  0.00  0.00    +0.000 A 
ATOM      2  C   UNL     1       1.942   5.442  18.804  0.00  0.00    +0.000 A 
ATOM      3  C   UNL     1       2.213   4.065  18.730  0.00  0.00    +0.000 A 
ATOM      4  C   UNL     1       1.233   3.070  18.830  0.00  0.00    +0.000 A 
ATOM      5  N   UNL     1       1.473   1.741  18.723  0.00  0.00    +0.000 NA
ATOM      6  C   UNL     1       2.753   1.377  18.511  0.00  0.00    +0.000 A 
ATOM      7  C   UNL     1       3.800   2.275  18.405  0.00  0.00    +0.000 A 
ATOM      8  C   UNL     1       3.526   3.644  18.510  0.00  0.00    +0.000 A 
ATOM      9  C   UNL     1       4.539   4.603  18.385  0.00  0.00    +0.000 A 
ATOM     10  C   UNL     1       4.285   5.986  18.406  0.00  0.00    +0.000 A 
ENDROOT
BRANCH   1  17
ATOM     11  C   UNL     1       0.090   9.224  21.134  0.00  0.00    +0.000 A 
ATOM     12  C   UNL     1      -0.192  10.407  20.460  0.00  0.00    +0.000 A 
ATOM     13  C   UNL     1       0.442  10.715  19.248  0.00  0.00    +0.000 A 
ATOM     14  C   UNL     1       1.344   9.783  18.721  0.00  0.00    +0.000 A 
ATOM     15  N   UNL     1       2.113   9.833  17.575  0.00  0.00    +0.000 N 
ATOM     16  C   UNL     1       2.823   8.671  17.422  0.00  0.00    +0.000 A 
ATOM     17  C   UNL     1       2.479   7.808  18.449  0.00  0.00    +0.000 A 
ATOM     18  C   UNL     1       1.609   8.557  19.331  0.00  0.00    +0.000 A 
ATOM     19  C   UNL     1       0.984   8.302  20.575  0.00  0.00    +0.000 A 
ATOM     20  H   UNL     1       2.144  10.629  16.950  0.00  0.00    +0.000 HD
BRANCH  11  22
ATOM     21  C   UNL     1      -0.059   9.586  23.482  0.00  0.00    +0.000 C 
ATOM     22  O   UNL     1      -0.438   8.835  22.336  0.00  0.00    +0.000 OA
ENDBRANCH  11  22
ENDBRANCH   1  17
BRANCH  10  23
ATOM     23  N   UNL     1       5.358   6.911  18.232  0.00  0.00    +0.000 N 
ATOM     24  C   UNL     1       6.237   6.992  17.161  0.00  0.00    +0.000 C 
ATOM     25  C   UNL     1       7.363   7.976  17.360  0.00  0.00    +0.000 C 
ATOM     26  O   UNL     1       6.193   6.355  16.113  0.00  0.00    +0.000 OA
ATOM     27  H   UNL     1       5.489   7.575  18.981  0.00  0.00    +0.000 HD
ENDBRANCH  10  23
TORSDOF 3
ENDMDL
MODEL 9
REMARK VINA RESULT:      -7.2      3.510      7.328
REMARK  Name = 
REMARK  5 active torsions:
REMARK  status: ('A' for Active; 'I' for Inactive)
REMARK    1  A    between atoms: C_1  and  O_2
REMARK    2  A    between atoms: O_2  and  C_3
REMARK    3  A    between atoms: C_9  and  C_10
REMARK    4  A    between atoms: C_19  and  N_20
REMARK    5  A    between atoms: C_21  and  C_22
REMARK                            x       y       z     vdW  Elec       q    Type
REMARK                         _______ _______ _______ _____ _____    ______ ____
ROOT
ATOM      1  C   UNL     1       0.660   9.794  18.971  0.00  0.00    +0.000 A 
ATOM      2  C   UNL     1       1.520   9.225  18.004  0.00  0.00    +0.000 A 
ATOM      3  C   UNL     1       2.304   8.090  18.277  0.00  0.00    +0.000 A 
ATOM      4  C   UNL     1       3.246   7.561  17.387  0.00  0.00    +0.000 A 
ATOM      5  N   UNL     1       4.035   6.491  17.650  0.00  0.00    +0.000 NA
ATOM      6  C   UNL     1       3.879   5.912  18.857  0.00  0.00    +0.000 A 
ATOM      7  C   UNL     1       2.973   6.347  19.807  0.00  0.00    +0.000 A 
ATOM      8  C   UNL     1       2.175   7.460  19.516  0.00  0.00    +0.000 A 
ATOM      9  C   UNL     1       1.257   7.965  20.447  0.00  0.00    +0.000 A 
ATOM     10  C   UNL     1       0.500   9.126  20.216  0.00  0.00    +0.000 A 
ENDROOT
BRANCH   1  17
ATOM     11  C   UNL     1       2.311  14.239  19.111  0.00  0.00    +0.000 A 
ATOM     12  C   UNL     1       1.298  15.164  18.887  0.00  0.00    +0.000 A 
ATOM     13  C   UNL     1       0.007  14.748  18.532  0.00  0.00    +0.000 A 
ATOM     14  C   UNL     1      -0.241  13.373  18.439  0.00  0.00    +0.000 A 
ATOM     15  N   UNL     1      -1.392  12.693  18.094  0.00  0.00    +0.000 N 
ATOM     16  C   UNL     1      -1.193  11.340  18.179  0.00  0.00    +0.000 A 
ATOM     17  C   UNL     1       0.091  11.112  18.643  0.00  0.00    +0.000 A 
ATOM     18  C   UNL     1       0.730  12.409  18.715  0.00  0.00    +0.000 A 
ATOM     19  C   UNL     1       2.031  12.868  19.026  0.00  0.00    +0.000 A 
ATOM     20  H   UNL     1      -2.252  13.146  17.812  0.00  0.00    +0.000 HD
BRANCH  11  22
ATOM     21  C   UNL     1       3.927  14.676  20.803  0.00  0.00    +0.000 C 
ATOM     22  O   UNL     1       3.612  14.527  19.425  0.00  0.00    +0.000 OA
ENDBRANCH  11  22
ENDBRANCH   1  17
BRANCH  10  23
ATOM     23  N   UNL     1      -0.388   9.611  21.224  0.00  0.00    +0.000 N 
ATOM     24  C   UNL     1      -0.211  10.716  22.044  0.00  0.00    +0.000 C 
ATOM     25  C   UNL     1      -1.259  10.862  23.119  0.00  0.00    +0.000 C 
ATOM     26  O   UNL     1       0.690  11.548  21.987  0.00  0.00    +0.000 OA
ATOM     27  H   UNL     1      -1.236   9.079  21.352  0.00  0.00    +0.000 HD
ENDBRANCH  10  23
TORSDOF 3
ENDMDL
