MODEL 1
REMARK VINA RESULT:      -7.2      0.000      0.000
REMARK  Name = 
REMARK  5 active torsions:
REMARK  status: ('A' for Active; 'I' for Inactive)
REMARK    1  A    between atoms: C_1  and  C_2
REMARK    2  A    between atoms: C_2  and  C_3
REMARK    3  A    between atoms: C_2  and  N_4
REMARK    4  A    between atoms: N_4  and  C_5
REMARK    5  A    between atoms: C_18  and  O_19
REMARK                            x       y       z     vdW  Elec       q    Type
REMARK                         _______ _______ _______ _____ _____    ______ ____
ROOT
ATOM      1  C   UNL     1       5.023   6.155  17.361  0.00  0.00    +0.000 C 
ATOM      2  C   UNL     1       4.076   7.339  17.663  0.00  0.00    +0.000 C 
ATOM      3  C   UNL     1       2.665   6.983  18.114  0.00  0.00    +0.000 C 
ATOM      4  N   UNL     1       2.618   5.957  19.117  0.00  0.00    +0.000 N 
ATOM      5  C   UNL     1       1.965   6.052  20.360  0.00  0.00    +0.000 A 
ATOM      6  O   UNL     1       1.452   7.036  20.867  0.00  0.00    +0.000 OA
ATOM      7  N   UNL     1       1.990   4.764  20.919  0.00  0.00    +0.000 N 
ATOM      8  C   UNL     1       2.600   3.893  20.023  0.00  0.00    +0.000 A 
ATOM      9  C   UNL     1       2.817   2.541  20.134  0.00  0.00    +0.000 A 
ATOM     10  C   UNL     1       3.443   1.919  19.050  0.00  0.00    +0.000 A 
ATOM     11  C   UNL     1       3.860   2.661  17.919  0.00  0.00    +0.000 A 
ATOM     12  C   UNL     1       3.683   4.057  17.842  0.00  0.00    +0.000 A 
ATOM     13  C   UNL     1       3.001   4.626  18.905  0.00  0.00    +0.000 A 
ATOM     14  C   UNL     1       4.268   4.918  16.734  0.00  0.00    +0.000 C 
ATOM     15  H   UNL     1       1.583   4.537  21.812  0.00  0.00    +0.000 HD
ENDROOT
BRANCH   1  16
ATOM     16  N   UNL     1       6.176   6.618  16.554  0.00  0.00    +0.000 NA
ATOM     17  H   UNL     1       6.284   6.012  15.739  0.00  0.00    +0.000 HD
BRANCH  16  19
ATOM     18  C   UNL     1       7.808   8.198  17.659  0.00  0.00    +0.000 C 
ATOM     19  C   UNL     1       7.449   6.759  17.278  0.00  0.00    +0.000 C 
ATOM     20  C   UNL     1       7.377   5.903  18.544  0.00  0.00    +0.000 C 
ENDBRANCH  16  19
ENDBRANCH   1  16
BRANCH  14  21
ATOM     21  O   UNL     1       5.181   4.141  15.944  0.00  0.00    +0.000 OA
ATOM     22  H   UNL     1       5.546   4.732  15.266  0.00  0.00    +0.000 HD
ENDBRANCH  14  21
TORSDOF 3
ENDMDL
MODEL 2
REMARK VINA RESULT:      -7.1      0.989      1.191
REMARK  Name = 
REMARK  5 active torsions:
REMARK  status: ('A' for Active; 'I' for Inactive)
REMARK    1  A    between atoms: C_1  and  C_2
REMARK    2  A    between atoms: C_2  and  C_3
REMARK    3  A    between atoms: C_2  and  N_4
REMARK    4  A    between atoms: N_4  and  C_5
REMARK    5  A    between atoms: C_18  and  O_19
REMARK                            x       y       z     vdW  Elec       q    Type
REMARK                         _______ _______ _______ _____ _____    ______ ____
ROOT
ATOM      1  C   UNL     1       5.042   5.830  17.708  0.00  0.00    +0.000 C 
ATOM      2  C   UNL     1       4.279   7.145  17.432  0.00  0.00    +0.000 C 
ATOM      3  C   UNL     1       2.808   7.174  17.826  0.00  0.00    +0.000 C 
ATOM      4  N   UNL     1       2.547   6.637  19.133  0.00  0.00    +0.000 N 
ATOM      5  C   UNL     1       1.853   7.292  20.166  0.00  0.00    +0.000 A 
ATOM      6  O   UNL     1       1.476   8.452  20.203  0.00  0.00    +0.000 OA
ATOM      7  N   UNL     1       1.645   6.334  21.171  0.00  0.00    +0.000 N 
ATOM      8  C   UNL     1       2.156   5.113  20.746  0.00  0.00    +0.000 A 
ATOM      9  C   UNL     1       2.150   3.897  21.384  0.00  0.00    +0.000 A 
ATOM     10  C   UNL     1       2.726   2.827  20.693  0.00  0.00    +0.000 A 
ATOM     11  C   UNL     1       3.315   3.008  19.419  0.00  0.00    +0.000 A 
ATOM     12  C   UNL     1       3.364   4.272  18.798  0.00  0.00    +0.000 A 
ATOM     13  C   UNL     1       2.726   5.293  19.485  0.00  0.00    +0.000 A 
ATOM     14  C   UNL     1       4.135   4.551  17.518  0.00  0.00    +0.000 C 
ATOM     15  H   UNL     1       1.161   6.527  22.034  0.00  0.00    +0.000 HD
ENDROOT
BRANCH   1  16
ATOM     16  N   UNL     1       6.295   5.791  16.917  0.00  0.00    +0.000 NA
ATOM     17  H   UNL     1       6.416   4.858  16.520  0.00  0.00    +0.000 HD
BRANCH  16  19
ATOM     18  C   UNL     1       7.745   7.740  17.609  0.00  0.00    +0.000 C 
ATOM     19  C   UNL     1       7.510   6.227  17.621  0.00  0.00    +0.000 C 
ATOM     20  C   UNL     1       7.425   5.739  19.069  0.00  0.00    +0.000 C 
ENDBRANCH  16  19
ENDBRANCH   1  16
BRANCH  14  21
ATOM     21  O   UNL     1       4.955   3.419  17.187  0.00  0.00    +0.000 OA
ATOM     22  H   UNL     1       5.154   2.959  18.017  0.00  0.00    +0.000 HD
ENDBRANCH  14  21
TORSDOF 3
ENDMDL
MODEL 3
REMARK VINA RESULT:      -7.0      2.129      5.247
REMARK  Name = 
REMARK  5 active torsions:
REMARK  status: ('A' for Active; 'I' for Inactive)
REMARK    1  A    between atoms: C_1  and  C_2
REMARK    2  A    between atoms: C_2  and  C_3
REMARK    3  A    between atoms: C_2  and  N_4
REMARK    4  A    between atoms: N_4  and  C_5
REMARK    5  A    between atoms: C_18  and  O_19
REMARK                            x       y       z     vdW  Elec       q    Type
REMARK                         _______ _______ _______ _____ _____    ______ ____
ROOT
ATOM      1  C   UNL     1       3.570   4.946  18.319  0.00  0.00    +0.000 C 
ATOM      2  C   UNL     1       4.476   5.487  19.449  0.00  0.00    +0.000 C 
ATOM      3  C   UNL     1       5.977   5.308  19.261  0.00  0.00    +0.000 C 
ATOM      4  N   UNL     1       6.444   5.661  17.949  0.00  0.00    +0.000 N 
ATOM      5  C   UNL     1       7.481   6.568  17.663  0.00  0.00    +0.000 A 
ATOM      6  O   UNL     1       8.067   7.309  18.434  0.00  0.00    +0.000 OA
ATOM      7  N   UNL     1       7.744   6.446  16.289  0.00  0.00    +0.000 N 
ATOM      8  C   UNL     1       6.924   5.457  15.757  0.00  0.00    +0.000 A 
ATOM      9  C   UNL     1       6.856   4.982  14.470  0.00  0.00    +0.000 A 
ATOM     10  C   UNL     1       5.937   3.956  14.232  0.00  0.00    +0.000 A 
ATOM     11  C   UNL     1       5.100   3.466  15.262  0.00  0.00    +0.000 A 
ATOM     12  C   UNL     1       5.140   4.001  16.566  0.00  0.00    +0.000 A 
ATOM     13  C   UNL     1       6.107   4.970  16.778  0.00  0.00    +0.000 A 
ATOM     14  C   UNL     1       4.145   3.634  17.656  0.00  0.00    +0.000 C 
ATOM     15  H   UNL     1       8.452   6.977  15.808  0.00  0.00    +0.000 HD
ENDROOT
BRANCH   1  16
ATOM     16  N   UNL     1       2.178   4.804  18.806  0.00  0.00    +0.000 NA
ATOM     17  H   UNL     1       1.590   5.511  18.363  0.00  0.00    +0.000 HD
BRANCH  16  19
ATOM     18  C   UNL     1       1.387   6.102  20.824  0.00  0.00    +0.000 C 
ATOM     19  C   UNL     1       2.006   4.817  20.267  0.00  0.00    +0.000 C 
ATOM     20  C   UNL     1       1.131   3.623  20.656  0.00  0.00    +0.000 C 
ENDBRANCH  16  19
ENDBRANCH   1  16
BRANCH  14  21
ATOM     21  O   UNL     1       3.071   2.862  17.095  0.00  0.00    +0.000 OA
ATOM     22  H   UNL     1       3.058   3.041  16.142  0.00  0.00    +0.000 HD
ENDBRANCH  14  21
TORSDOF 3
ENDMDL
MODEL 4
REMARK VINA RESULT:      -6.8      2.474      4.946
REMARK  Name = 
REMARK  5 active torsions:
REMARK  status: ('A' for Active; 'I' for Inactive)
REMARK    1  A    between atoms: C_1  and  C_2
REMARK    2  A    between atoms: C_2  and  C_3
REMARK    3  A    between atoms: C_2  and  N_4
REMARK    4  A    between atoms: N_4  and  C_5
REMARK    5  A    between atoms: C_18  and  O_19
REMARK                            x       y       z     vdW  Elec       q    Type
REMARK                         _______ _______ _______ _____ _____    ______ ____
ROOT
ATOM      1  C   UNL     1       2.335   7.067  19.719  0.00  0.00    +0.000 C 
ATOM      2  C   UNL     1       1.696   5.803  20.338  0.00  0.00    +0.000 C 
ATOM      3  C   UNL     1       2.039   4.475  19.676  0.00  0.00    +0.000 C 
ATOM      4  N   UNL     1       3.437   4.314  19.387  0.00  0.00    +0.000 N 
ATOM      5  C   UNL     1       4.239   3.230  19.789  0.00  0.00    +0.000 A 
ATOM      6  O   UNL     1       3.952   2.323  20.551  0.00  0.00    +0.000 OA
ATOM      7  N   UNL     1       5.462   3.374  19.114  0.00  0.00    +0.000 N 
ATOM      8  C   UNL     1       5.395   4.488  18.286  0.00  0.00    +0.000 A 
ATOM      9  C   UNL     1       6.340   4.992  17.425  0.00  0.00    +0.000 A 
ATOM     10  C   UNL     1       5.977   6.128  16.696  0.00  0.00    +0.000 A 
ATOM     11  C   UNL     1       4.714   6.740  16.872  0.00  0.00    +0.000 A 
ATOM     12  C   UNL     1       3.774   6.247  17.799  0.00  0.00    +0.000 A 
ATOM     13  C   UNL     1       4.144   5.083  18.455  0.00  0.00    +0.000 A 
ATOM     14  C   UNL     1       2.482   6.967  18.150  0.00  0.00    +0.000 C 
ATOM     15  H   UNL     1       6.230   2.728  19.209  0.00  0.00    +0.000 HD
ENDROOT
BRANCH   1  16
ATOM     16  N   UNL     1       1.609   8.278  20.171  0.00  0.00    +0.000 NA
ATOM     17  H   UNL     1       2.207   9.096  20.049  0.00  0.00    +0.000 HD
BRANCH  16  19
ATOM     18  C   UNL     1       1.693   9.218  22.514  0.00  0.00    +0.000 C 
ATOM     19  C   UNL     1       1.061   8.225  21.535  0.00  0.00    +0.000 C 
ATOM     20  C   UNL     1      -0.445   8.480  21.455  0.00  0.00    +0.000 C 
ENDBRANCH  16  19
ENDBRANCH   1  16
BRANCH  14  21
ATOM     21  O   UNL     1       2.487   8.284  17.578  0.00  0.00    +0.000 OA
ATOM     22  H   UNL     1       3.404   8.486  17.334  0.00  0.00    +0.000 HD
ENDBRANCH  14  21
TORSDOF 3
ENDMDL
MODEL 5
REMARK VINA RESULT:      -6.7      1.763      2.267
REMARK  Name = 
REMARK  5 active torsions:
REMARK  status: ('A' for Active; 'I' for Inactive)
REMARK    1  A    between atoms: C_1  and  C_2
REMARK    2  A    between atoms: C_2  and  C_3
REMARK    3  A    between atoms: C_2  and  N_4
REMARK    4  A    between atoms: N_4  and  C_5
REMARK    5  A    between atoms: C_18  and  O_19
REMARK                            x       y       z     vdW  Elec       q    Type
REMARK                         _______ _______ _______ _____ _____    ______ ____
ROOT
ATOM      1  C   UNL     1       4.827   4.415  17.652  0.00  0.00    +0.000 C 
ATOM      2  C   UNL     1       4.355   5.823  17.224  0.00  0.00    +0.000 C 
ATOM      3  C   UNL     1       2.949   6.227  17.645  0.00  0.00    +0.000 C 
ATOM      4  N   UNL     1       2.645   5.926  19.016  0.00  0.00    +0.000 N 
ATOM      5  C   UNL     1       2.164   6.841  19.971  0.00  0.00    +0.000 A 
ATOM      6  O   UNL     1       2.051   8.051  19.864  0.00  0.00    +0.000 OA
ATOM      7  N   UNL     1       1.805   6.084  21.098  0.00  0.00    +0.000 N 
ATOM      8  C   UNL     1       2.015   4.737  20.824  0.00  0.00    +0.000 A 
ATOM      9  C   UNL     1       1.778   3.640  21.616  0.00  0.00    +0.000 A 
ATOM     10  C   UNL     1       2.071   2.392  21.058  0.00  0.00    +0.000 A 
ATOM     11  C   UNL     1       2.618   2.280  19.757  0.00  0.00    +0.000 A 
ATOM     12  C   UNL     1       2.909   3.416  18.976  0.00  0.00    +0.000 A 
ATOM     13  C   UNL     1       2.545   4.630  19.537  0.00  0.00    +0.000 A 
ATOM     14  C   UNL     1       3.655   3.358  17.653  0.00  0.00    +0.000 C 
ATOM     15  H   UNL     1       1.419   6.484  21.938  0.00  0.00    +0.000 HD
ENDROOT
BRANCH   1  16
ATOM     16  N   UNL     1       5.999   4.003  16.844  0.00  0.00    +0.000 NA
ATOM     17  H   UNL     1       6.844   4.072  17.413  0.00  0.00    +0.000 HD
BRANCH  16  19
ATOM     18  C   UNL     1       7.586   5.217  15.299  0.00  0.00    +0.000 C 
ATOM     19  C   UNL     1       6.168   4.699  15.560  0.00  0.00    +0.000 C 
ATOM     20  C   UNL     1       5.766   3.739  14.438  0.00  0.00    +0.000 C 
ENDBRANCH  16  19
ENDBRANCH   1  16
BRANCH  14  21
ATOM     21  O   UNL     1       4.190   2.039  17.453  0.00  0.00    +0.000 OA
ATOM     22  H   UNL     1       4.785   2.086  16.688  0.00  0.00    +0.000 HD
ENDBRANCH  14  21
TORSDOF 3
ENDMDL
MODEL 6
REMARK VINA RESULT:      -6.5      2.100      4.618
REMARK  Name = 
REMARK  5 active torsions:
REMARK  status: ('A' for Active; 'I' for Inactive)
REMARK    1  A    between atoms: C_1  and  C_2
REMARK    2  A    between atoms: C_2  and  C_3
REMARK    3  A    between atoms: C_2  and  N_4
REMARK    4  A    between atoms: N_4  and  C_5
REMARK    5  A    between atoms: C_18  and  O_19
REMARK                            x       y       z     vdW  Elec       q    Type
REMARK                         _______ _______ _______ _____ _____    ______ ____
ROOT
ATOM      1  C   UNL     1       2.257   7.403  18.873  0.00  0.00    +0.000 C 
ATOM      2  C   UNL     1       3.558   7.433  18.041  0.00  0.00    +0.000 C 
ATOM      3  C   UNL     1       4.388   6.156  18.027  0.00  0.00    +0.000 C 
ATOM      4  N   UNL     1       3.614   4.964  17.817  0.00  0.00    +0.000 N 
ATOM      5  C   UNL     1       3.852   3.995  16.825  0.00  0.00    +0.000 A 
ATOM      6  O   UNL     1       4.642   4.046  15.897  0.00  0.00    +0.000 OA
ATOM      7  N   UNL     1       3.005   2.914  17.118  0.00  0.00    +0.000 N 
ATOM      8  C   UNL     1       2.302   3.193  18.285  0.00  0.00    +0.000 A 
ATOM      9  C   UNL     1       1.389   2.418  18.958  0.00  0.00    +0.000 A 
ATOM     10  C   UNL     1       0.854   2.959  20.129  0.00  0.00    +0.000 A 
ATOM     11  C   UNL     1       1.214   4.255  20.570  0.00  0.00    +0.000 A 
ATOM     12  C   UNL     1       2.109   5.063  19.841  0.00  0.00    +0.000 A 
ATOM     13  C   UNL     1       2.667   4.467  18.721  0.00  0.00    +0.000 A 
ATOM     14  C   UNL     1       2.391   6.519  20.175  0.00  0.00    +0.000 C 
ATOM     15  H   UNL     1       2.970   2.069  16.570  0.00  0.00    +0.000 HD
ENDROOT
BRANCH   1  16
ATOM     16  N   UNL     1       1.789   8.784  19.139  0.00  0.00    +0.000 NA
ATOM     17  H   UNL     1       1.070   8.764  19.863  0.00  0.00    +0.000 HD
BRANCH  16  19
ATOM     18  C   UNL     1      -0.173   9.817  17.928  0.00  0.00    +0.000 C 
ATOM     19  C   UNL     1       1.333   9.542  17.964  0.00  0.00    +0.000 C 
ATOM     20  C   UNL     1       2.092  10.870  17.928  0.00  0.00    +0.000 C 
ENDBRANCH  16  19
ENDBRANCH   1  16
BRANCH  14  21
ATOM     21  O   UNL     1       1.463   6.979  21.171  0.00  0.00    +0.000 OA
ATOM     22  H   UNL     1       0.753   6.319  21.226  0.00  0.00    +0.000 HD
ENDBRANCH  14  21
TORSDOF 3
ENDMDL
MODEL 7
REMARK VINA RESULT:      -6.5      2.669      4.090
REMARK  Name = 
REMARK  5 active torsions:
REMARK  status: ('A' for Active; 'I' for Inactive)
REMARK    1  A    between atoms: C_1  and  C_2
REMARK    2  A    between atoms: C_2  and  C_3
REMARK    3  A    between atoms: C_2  and  N_4
REMARK    4  A    between atoms: N_4  and  C_5
REMARK    5  A    between atoms: C_18  and  O_19
REMARK                            x       y       z     vdW  Elec       q    Type
REMARK                         _______ _______ _______ _____ _____    ______ ____
ROOT
ATOM      1  C   UNL     1       5.104   4.874  15.529  0.00  0.00    +0.000 C 
ATOM      2  C   UNL     1       6.001   3.825  16.226  0.00  0.00    +0.000 C 
ATOM      3  C   UNL     1       6.206   3.994  17.725  0.00  0.00    +0.000 C 
ATOM      4  N   UNL     1       4.997   4.269  18.450  0.00  0.00    +0.000 N 
ATOM      5  C   UNL     1       4.524   3.548  19.562  0.00  0.00    +0.000 A 
ATOM      6  O   UNL     1       4.956   2.505  20.022  0.00  0.00    +0.000 OA
ATOM      7  N   UNL     1       3.444   4.282  20.077  0.00  0.00    +0.000 N 
ATOM      8  C   UNL     1       3.289   5.445  19.331  0.00  0.00    +0.000 A 
ATOM      9  C   UNL     1       2.386   6.468  19.489  0.00  0.00    +0.000 A 
ATOM     10  C   UNL     1       2.484   7.532  18.588  0.00  0.00    +0.000 A 
ATOM     11  C   UNL     1       3.444   7.527  17.548  0.00  0.00    +0.000 A 
ATOM     12  C   UNL     1       4.328   6.446  17.362  0.00  0.00    +0.000 A 
ATOM     13  C   UNL     1       4.243   5.441  18.313  0.00  0.00    +0.000 A 
ATOM     14  C   UNL     1       5.252   6.313  16.162  0.00  0.00    +0.000 C 
ATOM     15  H   UNL     1       2.914   4.001  20.887  0.00  0.00    +0.000 HD
ENDROOT
BRANCH   1  16
ATOM     16  N   UNL     1       5.328   4.844  14.065  0.00  0.00    +0.000 NA
ATOM     17  H   UNL     1       4.476   4.529  13.599  0.00  0.00    +0.000 HD
BRANCH  16  19
ATOM     18  C   UNL     1       6.237   3.197  12.379  0.00  0.00    +0.000 C 
ATOM     19  C   UNL     1       6.493   4.070  13.610  0.00  0.00    +0.000 C 
ATOM     20  C   UNL     1       7.630   5.050  13.310  0.00  0.00    +0.000 C 
ENDBRANCH  16  19
ENDBRANCH   1  16
BRANCH  14  21
ATOM     21  O   UNL     1       4.924   7.310  15.182  0.00  0.00    +0.000 OA
ATOM     22  H   UNL     1       4.669   6.841  14.372  0.00  0.00    +0.000 HD
ENDBRANCH  14  21
TORSDOF 3
ENDMDL
MODEL 8
REMARK VINA RESULT:      -6.4      1.566      1.978
REMARK  Name = 
REMARK  5 active torsions:
REMARK  status: ('A' for Active; 'I' for Inactive)
REMARK    1  A    between atoms: C_1  and  C_2
REMARK    2  A    between atoms: C_2  and  C_3
REMARK    3  A    between atoms: C_2  and  N_4
REMARK    4  A    between atoms: N_4  and  C_5
REMARK    5  A    between atoms: C_18  and  O_19
REMARK                            x       y       z     vdW  Elec       q    Type
REMARK                         _______ _______ _______ _____ _____    ______ ____
ROOT
ATOM      1  C   UNL     1       4.813   4.224  17.577  0.00  0.00    +0.000 C 
ATOM      2  C   UNL     1       4.261   5.570  17.055  0.00  0.00    +0.000 C 
ATOM      3  C   UNL     1       2.877   5.974  17.546  0.00  0.00    +0.000 C 
ATOM      4  N   UNL     1       2.688   5.800  18.959  0.00  0.00    +0.000 N 
ATOM      5  C   UNL     1       2.248   6.790  19.857  0.00  0.00    +0.000 A 
ATOM      6  O   UNL     1       2.085   7.980  19.645  0.00  0.00    +0.000 OA
ATOM      7  N   UNL     1       2.002   6.136  21.075  0.00  0.00    +0.000 N 
ATOM      8  C   UNL     1       2.238   4.775  20.915  0.00  0.00    +0.000 A 
ATOM      9  C   UNL     1       2.100   3.755  21.824  0.00  0.00    +0.000 A 
ATOM     10  C   UNL     1       2.394   2.468  21.366  0.00  0.00    +0.000 A 
ATOM     11  C   UNL     1       2.844   2.244  20.043  0.00  0.00    +0.000 A 
ATOM     12  C   UNL     1       3.036   3.306  19.136  0.00  0.00    +0.000 A 
ATOM     13  C   UNL     1       2.673   4.558  19.606  0.00  0.00    +0.000 A 
ATOM     14  C   UNL     1       3.682   3.140  17.770  0.00  0.00    +0.000 C 
ATOM     15  H   UNL     1       1.667   6.606  21.901  0.00  0.00    +0.000 HD
ENDROOT
BRANCH   1  16
ATOM     16  N   UNL     1       5.934   3.767  16.723  0.00  0.00    +0.000 NA
ATOM     17  H   UNL     1       6.074   2.765  16.856  0.00  0.00    +0.000 HD
BRANCH  16  19
ATOM     18  C   UNL     1       7.372   5.681  15.917  0.00  0.00    +0.000 C 
ATOM     19  C   UNL     1       7.198   4.502  16.879  0.00  0.00    +0.000 C 
ATOM     20  C   UNL     1       7.283   5.008  18.320  0.00  0.00    +0.000 C 
ENDBRANCH  16  19
ENDBRANCH   1  16
BRANCH  14  21
ATOM     21  O   UNL     1       4.246   1.824  17.656  0.00  0.00    +0.000 OA
ATOM     22  H   UNL     1       3.662   1.219  18.140  0.00  0.00    +0.000 HD
ENDBRANCH  14  21
TORSDOF 3
ENDMDL
MODEL 9
REMARK VINA RESULT:      -6.4      2.516      3.893
REMARK  Name = 
REMARK  5 active torsions:
REMARK  status: ('A' for Active; 'I' for Inactive)
REMARK    1  A    between atoms: C_1  and  C_2
REMARK    2  A    between atoms: C_2  and  C_3
REMARK    3  A    between atoms: C_2  and  N_4
REMARK    4  A    between atoms: N_4  and  C_5
REMARK    5  A    between atoms: C_18  and  O_19
REMARK                            x       y       z     vdW  Elec       q    Type
REMARK                         _______ _______ _______ _____ _____    ______ ____
ROOT
ATOM      1  C   UNL     1       6.554   5.345  16.481  0.00  0.00    +0.000 C 
ATOM      2  C   UNL     1       7.295   4.396  17.449  0.00  0.00    +0.000 C 
ATOM      3  C   UNL     1       6.763   4.329  18.875  0.00  0.00    +0.000 C 
ATOM      4  N   UNL     1       5.335   4.210  18.957  0.00  0.00    +0.000 N 
ATOM      5  C   UNL     1       4.632   3.217  19.664  0.00  0.00    +0.000 A 
ATOM      6  O   UNL     1       5.079   2.220  20.205  0.00  0.00    +0.000 OA
ATOM      7  N   UNL     1       3.282   3.605  19.652  0.00  0.00    +0.000 N 
ATOM      8  C   UNL     1       3.167   4.826  18.998  0.00  0.00    +0.000 A 
ATOM      9  C   UNL     1       2.050   5.593  18.775  0.00  0.00    +0.000 A 
ATOM     10  C   UNL     1       2.245   6.800  18.098  0.00  0.00    +0.000 A 
ATOM     11  C   UNL     1       3.528   7.183  17.638  0.00  0.00    +0.000 A 
ATOM     12  C   UNL     1       4.658   6.362  17.824  0.00  0.00    +0.000 A 
ATOM     13  C   UNL     1       4.435   5.205  18.555  0.00  0.00    +0.000 A 
ATOM     14  C   UNL     1       6.014   6.644  17.199  0.00  0.00    +0.000 C 
ATOM     15  H   UNL     1       2.547   3.077  20.095  0.00  0.00    +0.000 HD
ENDROOT
BRANCH   1  16
ATOM     16  N   UNL     1       7.400   5.629  15.297  0.00  0.00    +0.000 NA
ATOM     17  H   UNL     1       7.232   6.586  14.983  0.00  0.00    +0.000 HD
BRANCH  16  19
ATOM     18  C   UNL     1       5.857   4.173  13.927  0.00  0.00    +0.000 C 
ATOM     19  C   UNL     1       7.279   4.679  14.181  0.00  0.00    +0.000 C 
ATOM     20  C   UNL     1       7.810   5.357  12.916  0.00  0.00    +0.000 C 
ENDBRANCH  16  19
ENDBRANCH   1  16
BRANCH  14  21
ATOM     21  O   UNL     1       5.899   7.713  16.246  0.00  0.00    +0.000 OA
ATOM     22  H   UNL     1       4.953   7.833  16.065  0.00  0.00    +0.000 HD
ENDBRANCH  14  21
TORSDOF 3
ENDMDL
