MODEL 1
REMARK VINA RESULT:      -7.9      0.000      0.000
REMARK  Name = 
REMARK  7 active torsions:
REMARK  status: ('A' for Active; 'I' for Inactive)
REMARK    1  A    between atoms: C_1  and  O_2
REMARK    2  A    between atoms: O_2  and  C_3
REMARK    3  A    between atoms: C_3  and  C_4
REMARK    4  A    between atoms: C_4  and  N_5
REMARK    5  A    between atoms: C_8  and  C_9
REMARK    6  A    between atoms: C_14  and  C_15
REMARK    7  A    between atoms: C_15  and  O_17
REMARK                            x       y       z     vdW  Elec       q    Type
REMARK                         _______ _______ _______ _____ _____    ______ ____
ROOT
ATOM      1  N   UNL     1       5.182   4.208  14.295  0.00  0.00    +0.000 N 
ATOM      2  C   UNL     1       5.408   4.592  15.630  0.00  0.00    +0.000 A 
ATOM      3  C   UNL     1       4.330   4.559  16.519  0.00  0.00    +0.000 A 
ATOM      4  C   UNL     1       4.521   4.712  17.910  0.00  0.00    +0.000 A 
ATOM      5  C   UNL     1       5.824   5.136  18.296  0.00  0.00    +0.000 A 
ATOM      6  C   UNL     1       6.517   5.457  19.509  0.00  0.00    +0.000 A 
ATOM      7  C   UNL     1       7.790   5.880  19.188  0.00  0.00    +0.000 A 
ATOM      8  N   UNL     1       7.928   5.767  17.832  0.00  0.00    +0.000 N 
ATOM      9  C   UNL     1       6.771   5.281  17.290  0.00  0.00    +0.000 A 
ATOM     10  N   UNL     1       6.636   4.989  15.994  0.00  0.00    +0.000 NA
ATOM     11  H   UNL     1       4.462   3.483  14.254  0.00  0.00    +0.000 HD
ATOM     12  H   UNL     1       8.748   5.989  17.286  0.00  0.00    +0.000 HD
ENDROOT
BRANCH   4  13
ATOM     13  C   UNL     1       3.486   4.381  18.925  0.00  0.00    +0.000 A 
ATOM     14  C   UNL     1       2.580   5.394  19.327  0.00  0.00    +0.000 A 
ATOM     15  C   UNL     1       1.677   5.233  20.383  0.00  0.00    +0.000 A 
ATOM     16  C   UNL     1       1.597   4.016  21.039  0.00  0.00    +0.000 A 
ATOM     17  C   UNL     1       2.407   2.964  20.622  0.00  0.00    +0.000 A 
ATOM     18  C   UNL     1       3.347   3.131  19.579  0.00  0.00    +0.000 A 
BRANCH  18  19
ATOM     19  C   UNL     1       4.084   1.874  19.254  0.00  0.00    +0.000 C 
ATOM     20  O   UNL     1       3.699   1.101  18.392  0.00  0.00    +0.000 OA
BRANCH  19  21
ATOM     21  O   UNL     1       5.146   1.610  20.043  0.00  0.00    +0.000 OA
ATOM     22  H   UNL     1       5.933   1.269  19.579  0.00  0.00    +0.000 HD
ENDBRANCH  19  21
ENDBRANCH  18  19
ENDBRANCH   4  13
BRANCH   1  23
ATOM     23  C   UNL     1       6.382   3.689  13.609  0.00  0.00    +0.000 C 
BRANCH  23  24
ATOM     24  C   UNL     1       6.171   3.665  12.082  0.00  0.00    +0.000 C 
BRANCH  24  26
ATOM     25  C   UNL     1       4.071   3.078  11.160  0.00  0.00    +0.000 C 
ATOM     26  O   UNL     1       5.262   2.599  11.769  0.00  0.00    +0.000 OA
ENDBRANCH  24  26
ENDBRANCH  23  24
ENDBRANCH   1  23
TORSDOF 6
ENDMDL
MODEL 2
REMARK VINA RESULT:      -7.7      3.448      5.467
REMARK  Name = 
REMARK  7 active torsions:
REMARK  status: ('A' for Active; 'I' for Inactive)
REMARK    1  A    between atoms: C_1  and  O_2
REMARK    2  A    between atoms: O_2  and  C_3
REMARK    3  A    between atoms: C_3  and  C_4
REMARK    4  A    between atoms: C_4  and  N_5
REMARK    5  A    between atoms: C_8  and  C_9
REMARK    6  A    between atoms: C_14  and  C_15
REMARK    7  A    between atoms: C_15  and  O_17
REMARK                            x       y       z     vdW  Elec       q    Type
REMARK                         _______ _______ _______ _____ _____    ______ ____
ROOT
ATOM      1  N   UNL     1       7.674   7.484  18.497  0.00  0.00    +0.000 N 
ATOM      2  C   UNL     1       7.099   6.506  17.664  0.00  0.00    +0.000 A 
ATOM      3  C   UNL     1       6.072   5.713  18.186  0.00  0.00    +0.000 A 
ATOM      4  C   UNL     1       5.300   4.872  17.355  0.00  0.00    +0.000 A 
ATOM      5  C   UNL     1       5.795   4.714  16.030  0.00  0.00    +0.000 A 
ATOM      6  C   UNL     1       5.438   3.991  14.845  0.00  0.00    +0.000 A 
ATOM      7  C   UNL     1       6.401   4.222  13.885  0.00  0.00    +0.000 A 
ATOM      8  N   UNL     1       7.298   5.109  14.410  0.00  0.00    +0.000 N 
ATOM      9  C   UNL     1       6.923   5.446  15.680  0.00  0.00    +0.000 A 
ATOM     10  N   UNL     1       7.564   6.359  16.415  0.00  0.00    +0.000 NA
ATOM     11  H   UNL     1       6.972   7.854  19.142  0.00  0.00    +0.000 HD
ATOM     12  H   UNL     1       8.115   5.486  13.952  0.00  0.00    +0.000 HD
ENDROOT
BRANCH   4  13
ATOM     13  C   UNL     1       4.015   4.252  17.776  0.00  0.00    +0.000 A 
ATOM     14  C   UNL     1       3.859   2.850  17.634  0.00  0.00    +0.000 A 
ATOM     15  C   UNL     1       2.642   2.195  17.850  0.00  0.00    +0.000 A 
ATOM     16  C   UNL     1       1.542   2.914  18.288  0.00  0.00    +0.000 A 
ATOM     17  C   UNL     1       1.673   4.278  18.525  0.00  0.00    +0.000 A 
ATOM     18  C   UNL     1       2.889   4.954  18.274  0.00  0.00    +0.000 A 
BRANCH  18  19
ATOM     19  C   UNL     1       2.835   6.402  18.634  0.00  0.00    +0.000 C 
ATOM     20  O   UNL     1       2.904   7.282  17.792  0.00  0.00    +0.000 OA
BRANCH  19  21
ATOM     21  O   UNL     1       2.800   6.665  19.957  0.00  0.00    +0.000 OA
ATOM     22  H   UNL     1       3.403   6.126  20.503  0.00  0.00    +0.000 HD
ENDBRANCH  19  21
ENDBRANCH  18  19
ENDBRANCH   4  13
BRANCH   1  23
ATOM     23  C   UNL     1       8.259   8.625  17.766  0.00  0.00    +0.000 C 
BRANCH  23  24
ATOM     24  C   UNL     1       8.877   9.643  18.745  0.00  0.00    +0.000 C 
BRANCH  24  26
ATOM     25  C   UNL     1      10.205  11.462  18.016  0.00  0.00    +0.000 C 
ATOM     26  O   UNL     1       8.891  10.929  18.108  0.00  0.00    +0.000 OA
ENDBRANCH  24  26
ENDBRANCH  23  24
ENDBRANCH   1  23
TORSDOF 6
ENDMDL
MODEL 3
REMARK VINA RESULT:      -7.5      0.812      1.332
REMARK  Name = 
REMARK  7 active torsions:
REMARK  status: ('A' for Active; 'I' for Inactive)
REMARK    1  A    between atoms: C_1  and  O_2
REMARK    2  A    between atoms: O_2  and  C_3
REMARK    3  A    between atoms: C_3  and  C_4
REMARK    4  A    between atoms: C_4  and  N_5
REMARK    5  A    between atoms: C_8  and  C_9
REMARK    6  A    between atoms: C_14  and  C_15
REMARK    7  A    between atoms: C_15  and  O_17
REMARK                            x       y       z     vdW  Elec       q    Type
REMARK                         _______ _______ _______ _____ _____    ______ ____
ROOT
ATOM      1  N   UNL     1       5.190   4.069  14.390  0.00  0.00    +0.000 N 
ATOM      2  C   UNL     1       5.403   4.464  15.725  0.00  0.00    +0.000 A 
ATOM      3  C   UNL     1       4.319   4.424  16.607  0.00  0.00    +0.000 A 
ATOM      4  C   UNL     1       4.499   4.588  17.998  0.00  0.00    +0.000 A 
ATOM      5  C   UNL     1       5.793   5.029  18.391  0.00  0.00    +0.000 A 
ATOM      6  C   UNL     1       6.474   5.366  19.606  0.00  0.00    +0.000 A 
ATOM      7  C   UNL     1       7.743   5.803  19.291  0.00  0.00    +0.000 A 
ATOM      8  N   UNL     1       7.892   5.684  17.937  0.00  0.00    +0.000 N 
ATOM      9  C   UNL     1       6.746   5.180  17.390  0.00  0.00    +0.000 A 
ATOM     10  N   UNL     1       6.623   4.879  16.095  0.00  0.00    +0.000 NA
ATOM     11  H   UNL     1       4.480   3.336  14.349  0.00  0.00    +0.000 HD
ATOM     12  H   UNL     1       8.713   5.913  17.396  0.00  0.00    +0.000 HD
ENDROOT
BRANCH   4  13
ATOM     13  C   UNL     1       3.461   4.250  19.008  0.00  0.00    +0.000 A 
ATOM     14  C   UNL     1       2.407   5.171  19.234  0.00  0.00    +0.000 A 
ATOM     15  C   UNL     1       1.476   5.023  20.267  0.00  0.00    +0.000 A 
ATOM     16  C   UNL     1       1.521   3.901  21.078  0.00  0.00    +0.000 A 
ATOM     17  C   UNL     1       2.483   2.927  20.837  0.00  0.00    +0.000 A 
ATOM     18  C   UNL     1       3.451   3.087  19.819  0.00  0.00    +0.000 A 
BRANCH  18  19
ATOM     19  C   UNL     1       4.364   1.912  19.695  0.00  0.00    +0.000 C 
ATOM     20  O   UNL     1       5.261   1.701  20.495  0.00  0.00    +0.000 OA
BRANCH  19  21
ATOM     21  O   UNL     1       4.188   1.161  18.589  0.00  0.00    +0.000 OA
ATOM     22  H   UNL     1       3.301   1.215  18.187  0.00  0.00    +0.000 HD
ENDBRANCH  19  21
ENDBRANCH  18  19
ENDBRANCH   4  13
BRANCH   1  23
ATOM     23  C   UNL     1       6.401   3.562  13.716  0.00  0.00    +0.000 C 
BRANCH  23  24
ATOM     24  C   UNL     1       6.248   3.642  12.184  0.00  0.00    +0.000 C 
BRANCH  24  26
ATOM     25  C   UNL     1       7.923   5.246  12.660  0.00  0.00    +0.000 C 
ATOM     26  O   UNL     1       7.336   4.421  11.663  0.00  0.00    +0.000 OA
ENDBRANCH  24  26
ENDBRANCH  23  24
ENDBRANCH   1  23
TORSDOF 6
ENDMDL
MODEL 4
REMARK VINA RESULT:      -7.5      3.946      7.155
REMARK  Name = 
REMARK  7 active torsions:
REMARK  status: ('A' for Active; 'I' for Inactive)
REMARK    1  A    between atoms: C_1  and  O_2
REMARK    2  A    between atoms: O_2  and  C_3
REMARK    3  A    between atoms: C_3  and  C_4
REMARK    4  A    between atoms: C_4  and  N_5
REMARK    5  A    between atoms: C_8  and  C_9
REMARK    6  A    between atoms: C_14  and  C_15
REMARK    7  A    between atoms: C_15  and  O_17
REMARK                            x       y       z     vdW  Elec       q    Type
REMARK                         _______ _______ _______ _____ _____    ______ ____
ROOT
ATOM      1  N   UNL     1       1.853   8.017  19.612  0.00  0.00    +0.000 N 
ATOM      2  C   UNL     1       2.387   6.721  19.482  0.00  0.00    +0.000 A 
ATOM      3  C   UNL     1       3.185   6.444  18.368  0.00  0.00    +0.000 A 
ATOM      4  C   UNL     1       3.933   5.250  18.280  0.00  0.00    +0.000 A 
ATOM      5  C   UNL     1       3.627   4.272  19.268  0.00  0.00    +0.000 A 
ATOM      6  C   UNL     1       4.042   2.943  19.607  0.00  0.00    +0.000 A 
ATOM      7  C   UNL     1       3.284   2.507  20.674  0.00  0.00    +0.000 A 
ATOM      8  N   UNL     1       2.468   3.538  21.045  0.00  0.00    +0.000 N 
ATOM      9  C   UNL     1       2.694   4.618  20.238  0.00  0.00    +0.000 A 
ATOM     10  N   UNL     1       2.099   5.801  20.413  0.00  0.00    +0.000 NA
ATOM     11  H   UNL     1       2.497   8.705  19.218  0.00  0.00    +0.000 HD
ATOM     12  H   UNL     1       1.799   3.539  21.801  0.00  0.00    +0.000 HD
ENDROOT
BRANCH   4  13
ATOM     13  C   UNL     1       5.026   5.032  17.295  0.00  0.00    +0.000 A 
ATOM     14  C   UNL     1       4.686   4.618  15.982  0.00  0.00    +0.000 A 
ATOM     15  C   UNL     1       5.640   4.236  15.034  0.00  0.00    +0.000 A 
ATOM     16  C   UNL     1       6.987   4.321  15.341  0.00  0.00    +0.000 A 
ATOM     17  C   UNL     1       7.371   4.805  16.587  0.00  0.00    +0.000 A 
ATOM     18  C   UNL     1       6.412   5.159  17.564  0.00  0.00    +0.000 A 
BRANCH  18  19
ATOM     19  C   UNL     1       7.027   5.697  18.814  0.00  0.00    +0.000 C 
ATOM     20  O   UNL     1       6.766   5.237  19.914  0.00  0.00    +0.000 OA
BRANCH  19  21
ATOM     21  O   UNL     1       7.812   6.781  18.649  0.00  0.00    +0.000 OA
ATOM     22  H   UNL     1       7.336   7.620  18.505  0.00  0.00    +0.000 HD
ENDBRANCH  19  21
ENDBRANCH  18  19
ENDBRANCH   4  13
BRANCH   1  23
ATOM     23  C   UNL     1       1.572   8.411  21.007  0.00  0.00    +0.000 C 
BRANCH  23  24
ATOM     24  C   UNL     1       0.836   9.764  21.055  0.00  0.00    +0.000 C 
BRANCH  24  26
ATOM     25  C   UNL     1      -0.211   9.629  23.174  0.00  0.00    +0.000 C 
ATOM     26  O   UNL     1       0.831  10.227  22.413  0.00  0.00    +0.000 OA
ENDBRANCH  24  26
ENDBRANCH  23  24
ENDBRANCH   1  23
TORSDOF 6
ENDMDL
MODEL 5
REMARK VINA RESULT:      -7.5      0.914      1.215
REMARK  Name = 
REMARK  7 active torsions:
REMARK  status: ('A' for Active; 'I' for Inactive)
REMARK    1  A    between atoms: C_1  and  O_2
REMARK    2  A    between atoms: O_2  and  C_3
REMARK    3  A    between atoms: C_3  and  C_4
REMARK    4  A    between atoms: C_4  and  N_5
REMARK    5  A    between atoms: C_8  and  C_9
REMARK    6  A    between atoms: C_14  and  C_15
REMARK    7  A    between atoms: C_15  and  O_17
REMARK                            x       y       z     vdW  Elec       q    Type
REMARK                         _______ _______ _______ _____ _____    ______ ____
ROOT
ATOM      1  N   UNL     1       5.141   4.332  14.175  0.00  0.00    +0.000 N 
ATOM      2  C   UNL     1       5.354   4.669  15.525  0.00  0.00    +0.000 A 
ATOM      3  C   UNL     1       4.245   4.717  16.376  0.00  0.00    +0.000 A 
ATOM      4  C   UNL     1       4.400   4.827  17.776  0.00  0.00    +0.000 A 
ATOM      5  C   UNL     1       5.721   5.124  18.215  0.00  0.00    +0.000 A 
ATOM      6  C   UNL     1       6.396   5.358  19.457  0.00  0.00    +0.000 A 
ATOM      7  C   UNL     1       7.712   5.671  19.188  0.00  0.00    +0.000 A 
ATOM      8  N   UNL     1       7.888   5.572  17.837  0.00  0.00    +0.000 N 
ATOM      9  C   UNL     1       6.712   5.201  17.245  0.00  0.00    +0.000 A 
ATOM     10  N   UNL     1       6.598   4.947  15.939  0.00  0.00    +0.000 NA
ATOM     11  H   UNL     1       4.362   3.676  14.094  0.00  0.00    +0.000 HD
ATOM     12  H   UNL     1       8.743   5.729  17.324  0.00  0.00    +0.000 HD
ENDROOT
BRANCH   4  13
ATOM     13  C   UNL     1       3.304   4.571  18.748  0.00  0.00    +0.000 A 
ATOM     14  C   UNL     1       2.799   5.659  19.504  0.00  0.00    +0.000 A 
ATOM     15  C   UNL     1       1.885   5.498  20.551  0.00  0.00    +0.000 A 
ATOM     16  C   UNL     1       1.384   4.240  20.839  0.00  0.00    +0.000 A 
ATOM     17  C   UNL     1       1.784   3.155  20.066  0.00  0.00    +0.000 A 
ATOM     18  C   UNL     1       2.735   3.303  19.031  0.00  0.00    +0.000 A 
BRANCH  18  19
ATOM     19  C   UNL     1       2.996   2.031  18.295  0.00  0.00    +0.000 C 
ATOM     20  O   UNL     1       3.936   1.303  18.571  0.00  0.00    +0.000 OA
BRANCH  19  21
ATOM     21  O   UNL     1       2.180   1.794  17.248  0.00  0.00    +0.000 OA
ATOM     22  H   UNL     1       1.231   1.937  17.421  0.00  0.00    +0.000 HD
ENDBRANCH  19  21
ENDBRANCH  18  19
ENDBRANCH   4  13
BRANCH   1  23
ATOM     23  C   UNL     1       6.314   3.721  13.519  0.00  0.00    +0.000 C 
BRANCH  23  24
ATOM     24  C   UNL     1       5.961   3.255  12.092  0.00  0.00    +0.000 C 
BRANCH  24  26
ATOM     25  C   UNL     1       6.487   1.183  11.074  0.00  0.00    +0.000 C 
ATOM     26  O   UNL     1       7.005   2.384  11.632  0.00  0.00    +0.000 OA
ENDBRANCH  24  26
ENDBRANCH  23  24
ENDBRANCH   1  23
TORSDOF 6
ENDMDL
MODEL 6
REMARK VINA RESULT:      -7.5      1.946      2.387
REMARK  Name = 
REMARK  7 active torsions:
REMARK  status: ('A' for Active; 'I' for Inactive)
REMARK    1  A    between atoms: C_1  and  O_2
REMARK    2  A    between atoms: O_2  and  C_3
REMARK    3  A    between atoms: C_3  and  C_4
REMARK    4  A    between atoms: C_4  and  N_5
REMARK    5  A    between atoms: C_8  and  C_9
REMARK    6  A    between atoms: C_14  and  C_15
REMARK    7  A    between atoms: C_15  and  O_17
REMARK                            x       y       z     vdW  Elec       q    Type
REMARK                         _______ _______ _______ _____ _____    ______ ____
ROOT
ATOM      1  N   UNL     1       5.462   4.262  13.993  0.00  0.00    +0.000 N 
ATOM      2  C   UNL     1       5.540   4.563  15.366  0.00  0.00    +0.000 A 
ATOM      3  C   UNL     1       4.392   4.393  16.146  0.00  0.00    +0.000 A 
ATOM      4  C   UNL     1       4.447   4.458  17.556  0.00  0.00    +0.000 A 
ATOM      5  C   UNL     1       5.675   4.939  18.090  0.00  0.00    +0.000 A 
ATOM      6  C   UNL     1       6.232   5.218  19.381  0.00  0.00    +0.000 A 
ATOM      7  C   UNL     1       7.493   5.747  19.209  0.00  0.00    +0.000 A 
ATOM      8  N   UNL     1       7.759   5.743  17.868  0.00  0.00    +0.000 N 
ATOM      9  C   UNL     1       6.695   5.220  17.189  0.00  0.00    +0.000 A 
ATOM     10  N   UNL     1       6.698   5.014  15.869  0.00  0.00    +0.000 NA
ATOM     11  H   UNL     1       4.804   3.495  13.837  0.00  0.00    +0.000 HD
ATOM     12  H   UNL     1       8.606   6.059  17.417  0.00  0.00    +0.000 HD
ENDROOT
BRANCH   4  13
ATOM     13  C   UNL     1       3.353   3.985  18.445  0.00  0.00    +0.000 A 
ATOM     14  C   UNL     1       3.173   2.589  18.618  0.00  0.00    +0.000 A 
ATOM     15  C   UNL     1       2.083   2.042  19.302  0.00  0.00    +0.000 A 
ATOM     16  C   UNL     1       1.159   2.878  19.905  0.00  0.00    +0.000 A 
ATOM     17  C   UNL     1       1.343   4.255  19.837  0.00  0.00    +0.000 A 
ATOM     18  C   UNL     1       2.422   4.817  19.117  0.00  0.00    +0.000 A 
BRANCH  18  19
ATOM     19  C   UNL     1       2.466   6.307  19.203  0.00  0.00    +0.000 C 
ATOM     20  O   UNL     1       2.456   7.014  18.208  0.00  0.00    +0.000 OA
BRANCH  19  21
ATOM     21  O   UNL     1       2.612   6.807  20.447  0.00  0.00    +0.000 OA
ATOM     22  H   UNL     1       1.782   7.055  20.895  0.00  0.00    +0.000 HD
ENDBRANCH  19  21
ENDBRANCH  18  19
ENDBRANCH   4  13
BRANCH   1  23
ATOM     23  C   UNL     1       6.753   3.876  13.390  0.00  0.00    +0.000 C 
BRANCH  23  24
ATOM     24  C   UNL     1       6.569   3.477  11.913  0.00  0.00    +0.000 C 
BRANCH  24  26
ATOM     25  C   UNL     1       5.871   1.310  11.262  0.00  0.00    +0.000 C 
ATOM     26  O   UNL     1       5.474   2.552  11.829  0.00  0.00    +0.000 OA
ENDBRANCH  24  26
ENDBRANCH  23  24
ENDBRANCH   1  23
TORSDOF 6
ENDMDL
MODEL 7
REMARK VINA RESULT:      -7.5      2.443      4.595
REMARK  Name = 
REMARK  7 active torsions:
REMARK  status: ('A' for Active; 'I' for Inactive)
REMARK    1  A    between atoms: C_1  and  O_2
REMARK    2  A    between atoms: O_2  and  C_3
REMARK    3  A    between atoms: C_3  and  C_4
REMARK    4  A    between atoms: C_4  and  N_5
REMARK    5  A    between atoms: C_8  and  C_9
REMARK    6  A    between atoms: C_14  and  C_15
REMARK    7  A    between atoms: C_15  and  O_17
REMARK                            x       y       z     vdW  Elec       q    Type
REMARK                         _______ _______ _______ _____ _____    ______ ____
ROOT
ATOM      1  N   UNL     1       7.740   6.382  19.286  0.00  0.00    +0.000 N 
ATOM      2  C   UNL     1       7.084   5.609  18.310  0.00  0.00    +0.000 A 
ATOM      3  C   UNL     1       5.937   4.903  18.686  0.00  0.00    +0.000 A 
ATOM      4  C   UNL     1       5.103   4.291  17.724  0.00  0.00    +0.000 A 
ATOM      5  C   UNL     1       5.639   4.241  16.407  0.00  0.00    +0.000 A 
ATOM      6  C   UNL     1       5.249   3.735  15.124  0.00  0.00    +0.000 A 
ATOM      7  C   UNL     1       6.280   3.954  14.235  0.00  0.00    +0.000 A 
ATOM      8  N   UNL     1       7.259   4.634  14.904  0.00  0.00    +0.000 N 
ATOM      9  C   UNL     1       6.869   4.851  16.195  0.00  0.00    +0.000 A 
ATOM     10  N   UNL     1       7.588   5.563  17.068  0.00  0.00    +0.000 NA
ATOM     11  H   UNL     1       7.062   6.757  19.952  0.00  0.00    +0.000 HD
ATOM     12  H   UNL     1       8.141   4.952  14.529  0.00  0.00    +0.000 HD
ENDROOT
BRANCH   4  13
ATOM     13  C   UNL     1       3.728   3.805  18.016  0.00  0.00    +0.000 A 
ATOM     14  C   UNL     1       2.627   4.524  17.488  0.00  0.00    +0.000 A 
ATOM     15  C   UNL     1       1.300   4.244  17.832  0.00  0.00    +0.000 A 
ATOM     16  C   UNL     1       1.017   3.179  18.670  0.00  0.00    +0.000 A 
ATOM     17  C   UNL     1       2.061   2.390  19.143  0.00  0.00    +0.000 A 
ATOM     18  C   UNL     1       3.406   2.689  18.829  0.00  0.00    +0.000 A 
BRANCH  18  19
ATOM     19  C   UNL     1       4.369   1.699  19.396  0.00  0.00    +0.000 C 
ATOM     20  O   UNL     1       5.062   1.952  20.368  0.00  0.00    +0.000 OA
BRANCH  19  21
ATOM     21  O   UNL     1       4.486   0.547  18.703  0.00  0.00    +0.000 OA
ATOM     22  H   UNL     1       4.362   0.630  17.739  0.00  0.00    +0.000 HD
ENDBRANCH  19  21
ENDBRANCH  18  19
ENDBRANCH   4  13
BRANCH   1  23
ATOM     23  C   UNL     1       8.506   7.517  18.736  0.00  0.00    +0.000 C 
BRANCH  23  24
ATOM     24  C   UNL     1       7.665   8.297  17.706  0.00  0.00    +0.000 C 
BRANCH  24  26
ATOM     25  C   UNL     1       9.027   9.962  18.693  0.00  0.00    +0.000 C 
ATOM     26  O   UNL     1       7.847   9.700  17.945  0.00  0.00    +0.000 OA
ENDBRANCH  24  26
ENDBRANCH  23  24
ENDBRANCH   1  23
TORSDOF 6
ENDMDL
MODEL 8
REMARK VINA RESULT:      -7.4      3.450      5.432
REMARK  Name = 
REMARK  7 active torsions:
REMARK  status: ('A' for Active; 'I' for Inactive)
REMARK    1  A    between atoms: C_1  and  O_2
REMARK    2  A    between atoms: O_2  and  C_3
REMARK    3  A    between atoms: C_3  and  C_4
REMARK    4  A    between atoms: C_4  and  N_5
REMARK    5  A    between atoms: C_8  and  C_9
REMARK    6  A    between atoms: C_14  and  C_15
REMARK    7  A    between atoms: C_15  and  O_17
REMARK                            x       y       z     vdW  Elec       q    Type
REMARK                         _______ _______ _______ _____ _____    ______ ____
ROOT
ATOM      1  N   UNL     1       8.216   7.589  18.762  0.00  0.00    +0.000 N 
ATOM      2  C   UNL     1       7.417   6.635  18.104  0.00  0.00    +0.000 A 
ATOM      3  C   UNL     1       6.598   5.810  18.881  0.00  0.00    +0.000 A 
ATOM      4  C   UNL     1       5.612   4.990  18.290  0.00  0.00    +0.000 A 
ATOM      5  C   UNL     1       5.682   4.888  16.872  0.00  0.00    +0.000 A 
ATOM      6  C   UNL     1       4.985   4.205  15.823  0.00  0.00    +0.000 A 
ATOM      7  C   UNL     1       5.610   4.484  14.627  0.00  0.00    +0.000 A 
ATOM      8  N   UNL     1       6.623   5.363  14.890  0.00  0.00    +0.000 N 
ATOM      9  C   UNL     1       6.650   5.648  16.226  0.00  0.00    +0.000 A 
ATOM     10  N   UNL     1       7.483   6.541  16.768  0.00  0.00    +0.000 NA
ATOM     11  H   UNL     1       7.742   7.925  19.603  0.00  0.00    +0.000 HD
ATOM     12  H   UNL     1       7.264   5.767  14.222  0.00  0.00    +0.000 HD
ENDROOT
BRANCH   4  13
ATOM     13  C   UNL     1       4.515   4.338  19.055  0.00  0.00    +0.000 A 
ATOM     14  C   UNL     1       4.695   3.003  19.496  0.00  0.00    +0.000 A 
ATOM     15  C   UNL     1       3.672   2.251  20.081  0.00  0.00    +0.000 A 
ATOM     16  C   UNL     1       2.437   2.833  20.313  0.00  0.00    +0.000 A 
ATOM     17  C   UNL     1       2.241   4.168  19.977  0.00  0.00    +0.000 A 
ATOM     18  C   UNL     1       3.259   4.925  19.352  0.00  0.00    +0.000 A 
BRANCH  18  19
ATOM     19  C   UNL     1       2.866   6.345  19.114  0.00  0.00    +0.000 C 
ATOM     20  O   UNL     1       2.920   6.856  18.007  0.00  0.00    +0.000 OA
BRANCH  19  21
ATOM     21  O   UNL     1       2.540   7.045  20.220  0.00  0.00    +0.000 OA
ATOM     22  H   UNL     1       3.267   7.177  20.857  0.00  0.00    +0.000 HD
ENDBRANCH  19  21
ENDBRANCH  18  19
ENDBRANCH   4  13
BRANCH   1  23
ATOM     23  C   UNL     1       8.551   8.764  17.934  0.00  0.00    +0.000 C 
BRANCH  23  24
ATOM     24  C   UNL     1       8.968   9.956  18.818  0.00  0.00    +0.000 C 
BRANCH  24  26
ATOM     25  C   UNL     1       9.085  12.170  17.989  0.00  0.00    +0.000 C 
ATOM     26  O   UNL     1       9.697  10.887  18.005  0.00  0.00    +0.000 OA
ENDBRANCH  24  26
ENDBRANCH  23  24
ENDBRANCH   1  23
TORSDOF 6
ENDMDL
MODEL 9
REMARK VINA RESULT:      -7.1      3.313      6.312
REMARK  Name = 
REMARK  7 active torsions:
REMARK  status: ('A' for Active; 'I' for Inactive)
REMARK    1  A    between atoms: C_1  and  O_2
REMARK    2  A    between atoms: O_2  and  C_3
REMARK    3  A    between atoms: C_3  and  C_4
REMARK    4  A    between atoms: C_4  and  N_5
REMARK    5  A    between atoms: C_8  and  C_9
REMARK    6  A    between atoms: C_14  and  C_15
REMARK    7  A    between atoms: C_15  and  O_17
REMARK                            x       y       z     vdW  Elec       q    Type
REMARK                         _______ _______ _______ _____ _____    ______ ____
ROOT
ATOM      1  N   UNL     1       3.219   3.594  20.969  0.00  0.00    +0.000 N 
ATOM      2  C   UNL     1       3.371   4.657  20.059  0.00  0.00    +0.000 A 
ATOM      3  C   UNL     1       4.399   4.576  19.115  0.00  0.00    +0.000 A 
ATOM      4  C   UNL     1       4.478   5.484  18.036  0.00  0.00    +0.000 A 
ATOM      5  C   UNL     1       3.599   6.601  18.123  0.00  0.00    +0.000 A 
ATOM      6  C   UNL     1       3.302   7.776  17.359  0.00  0.00    +0.000 A 
ATOM      7  C   UNL     1       2.362   8.518  18.043  0.00  0.00    +0.000 A 
ATOM      8  N   UNL     1       2.022   7.813  19.164  0.00  0.00    +0.000 N 
ATOM      9  C   UNL     1       2.724   6.641  19.201  0.00  0.00    +0.000 A 
ATOM     10  N   UNL     1       2.542   5.708  20.140  0.00  0.00    +0.000 NA
ATOM     11  H   UNL     1       3.488   2.712  20.529  0.00  0.00    +0.000 HD
ATOM     12  H   UNL     1       1.352   8.082  19.869  0.00  0.00    +0.000 HD
ENDROOT
BRANCH   4  13
ATOM     13  C   UNL     1       5.340   5.274  16.843  0.00  0.00    +0.000 A 
ATOM     14  C   UNL     1       4.869   4.430  15.805  0.00  0.00    +0.000 A 
ATOM     15  C   UNL     1       5.663   4.042  14.721  0.00  0.00    +0.000 A 
ATOM     16  C   UNL     1       6.947   4.544  14.595  0.00  0.00    +0.000 A 
ATOM     17  C   UNL     1       7.421   5.445  15.543  0.00  0.00    +0.000 A 
ATOM     18  C   UNL     1       6.638   5.813  16.661  0.00  0.00    +0.000 A 
BRANCH  18  19
ATOM     19  C   UNL     1       7.309   6.821  17.535  0.00  0.00    +0.000 C 
ATOM     20  O   UNL     1       7.436   7.987  17.199  0.00  0.00    +0.000 OA
BRANCH  19  21
ATOM     21  O   UNL     1       7.846   6.331  18.671  0.00  0.00    +0.000 OA
ATOM     22  H   UNL     1       8.753   5.982  18.584  0.00  0.00    +0.000 HD
ENDBRANCH  19  21
ENDBRANCH  18  19
ENDBRANCH   4  13
BRANCH   1  23
ATOM     23  C   UNL     1       1.844   3.439  21.484  0.00  0.00    +0.000 C 
BRANCH  23  24
ATOM     24  C   UNL     1       0.931   2.800  20.419  0.00  0.00    +0.000 C 
BRANCH  24  26
ATOM     25  C   UNL     1       1.609   2.224  18.225  0.00  0.00    +0.000 C 
ATOM     26  O   UNL     1       1.727   1.922  19.609  0.00  0.00    +0.000 OA
ENDBRANCH  24  26
ENDBRANCH  23  24
ENDBRANCH   1  23
TORSDOF 6
ENDMDL
