MODEL 1
REMARK VINA RESULT:      -7.9      0.000      0.000
REMARK  Name = 
REMARK  10 active torsions:
REMARK  status: ('A' for Active; 'I' for Inactive)
REMARK    1  A    between atoms: C_2  and  O_3
REMARK    2  A    between atoms: C_2  and  C_4
REMARK    3  A    between atoms: C_6  and  O_7
REMARK    4  A    between atoms: C_8  and  O_9
REMARK    5  A    between atoms: C_10  and  O_11
REMARK    6  A    between atoms: O_11  and  C_12
REMARK    7  A    between atoms: C_12  and  C_14
REMARK    8  A    between atoms: C_16  and  O_17
REMARK    9  A    between atoms: C_18  and  O_19
REMARK   10  A    between atoms: C_20  and  O_21
REMARK                            x       y       z     vdW  Elec       q    Type
REMARK                         _______ _______ _______ _____ _____    ______ ____
ROOT
ATOM      1  O   UNL     1       3.214   3.208  17.233  0.00  0.00    +0.000 OA
ENDROOT
BRANCH   1   6
ATOM      2  C   UNL     1       2.034   5.600  19.729  0.00  0.00    +0.000 C 
ATOM      3  C   UNL     1       1.838   4.727  20.727  0.00  0.00    +0.000 C 
ATOM      4  C   UNL     1       1.768   3.251  20.548  0.00  0.00    +0.000 C 
ATOM      5  C   UNL     1       1.625   2.723  19.102  0.00  0.00    +0.000 C 
ATOM      6  C   UNL     1       2.056   3.680  17.970  0.00  0.00    +0.000 C 
ATOM      7  C   UNL     1       2.150   5.185  18.289  0.00  0.00    +0.000 C 
BRANCH   2   9
ATOM      8  O   UNL     1       2.362   7.860  19.066  0.00  0.00    +0.000 OA
ATOM      9  C   UNL     1       2.073   7.072  19.952  0.00  0.00    +0.000 C 
BRANCH   9  10
ATOM     10  O   UNL     1       1.803   7.470  21.211  0.00  0.00    +0.000 OA
ATOM     11  H   UNL     1       2.174   6.907  21.912  0.00  0.00    +0.000 HD
ENDBRANCH   9  10
ENDBRANCH   2   9
BRANCH   4  12
ATOM     12  O   UNL     1       0.651   2.831  21.343  0.00  0.00    +0.000 OA
ATOM     13  H   UNL     1       1.032   2.481  22.174  0.00  0.00    +0.000 HD
ENDBRANCH   4  12
BRANCH   5  14
ATOM     14  O   UNL     1       0.243   2.320  18.907  0.00  0.00    +0.000 OA
ATOM     15  H   UNL     1       0.202   1.724  18.139  0.00  0.00    +0.000 HD
ENDBRANCH   5  14
ENDBRANCH   1   6
BRANCH   1  16
ATOM     16  C   UNL     1       4.452   3.384  17.741  0.00  0.00    +0.000 C 
ATOM     17  O   UNL     1       4.786   3.122  18.885  0.00  0.00    +0.000 OA
BRANCH  16  18
ATOM     18  C   UNL     1       5.363   3.951  16.703  0.00  0.00    +0.000 A 
ATOM     19  C   UNL     1       6.131   5.082  17.038  0.00  0.00    +0.000 A 
ATOM     20  C   UNL     1       6.982   5.644  16.088  0.00  0.00    +0.000 A 
ATOM     21  C   UNL     1       7.084   5.085  14.820  0.00  0.00    +0.000 A 
ATOM     22  C   UNL     1       6.331   3.968  14.487  0.00  0.00    +0.000 A 
ATOM     23  C   UNL     1       5.468   3.395  15.414  0.00  0.00    +0.000 A 
BRANCH  20  24
ATOM     24  O   UNL     1       7.738   6.752  16.352  0.00  0.00    +0.000 OA
ATOM     25  H   UNL     1       7.595   7.403  15.642  0.00  0.00    +0.000 HD
ENDBRANCH  20  24
BRANCH  21  26
ATOM     26  O   UNL     1       7.919   5.628  13.882  0.00  0.00    +0.000 OA
ATOM     27  H   UNL     1       7.514   5.387  13.023  0.00  0.00    +0.000 HD
ENDBRANCH  21  26
BRANCH  22  28
ATOM     28  O   UNL     1       6.432   3.426  13.239  0.00  0.00    +0.000 OA
ATOM     29  H   UNL     1       6.239   2.472  13.362  0.00  0.00    +0.000 HD
ENDBRANCH  22  28
ENDBRANCH  16  18
ENDBRANCH   1  16
TORSDOF 10
ENDMDL
MODEL 2
REMARK VINA RESULT:      -7.8      1.270      1.829
REMARK  Name = 
REMARK  10 active torsions:
REMARK  status: ('A' for Active; 'I' for Inactive)
REMARK    1  A    between atoms: C_2  and  O_3
REMARK    2  A    between atoms: C_2  and  C_4
REMARK    3  A    between atoms: C_6  and  O_7
REMARK    4  A    between atoms: C_8  and  O_9
REMARK    5  A    between atoms: C_10  and  O_11
REMARK    6  A    between atoms: O_11  and  C_12
REMARK    7  A    between atoms: C_12  and  C_14
REMARK    8  A    between atoms: C_16  and  O_17
REMARK    9  A    between atoms: C_18  and  O_19
REMARK   10  A    between atoms: C_20  and  O_21
REMARK                            x       y       z     vdW  Elec       q    Type
REMARK                         _______ _______ _______ _____ _____    ______ ____
ROOT
ATOM      1  O   UNL     1       2.401   3.111  17.114  0.00  0.00    +0.000 OA
ENDROOT
BRANCH   1   6
ATOM      2  C   UNL     1       1.996   5.582  19.774  0.00  0.00    +0.000 C 
ATOM      3  C   UNL     1       2.014   4.729  20.808  0.00  0.00    +0.000 C 
ATOM      4  C   UNL     1       1.833   3.257  20.684  0.00  0.00    +0.000 C 
ATOM      5  C   UNL     1       1.308   2.723  19.331  0.00  0.00    +0.000 C 
ATOM      6  C   UNL     1       1.487   3.648  18.107  0.00  0.00    +0.000 C 
ATOM      7  C   UNL     1       1.729   5.149  18.360  0.00  0.00    +0.000 C 
BRANCH   2   9
ATOM      8  O   UNL     1       2.508   7.784  19.037  0.00  0.00    +0.000 OA
ATOM      9  C   UNL     1       2.158   7.051  19.949  0.00  0.00    +0.000 C 
BRANCH   9  10
ATOM     10  O   UNL     1       1.929   7.511  21.195  0.00  0.00    +0.000 OA
ATOM     11  H   UNL     1       2.246   6.937  21.914  0.00  0.00    +0.000 HD
ENDBRANCH   9  10
ENDBRANCH   2   9
BRANCH   4  12
ATOM     12  O   UNL     1       0.931   2.901  21.740  0.00  0.00    +0.000 OA
ATOM     13  H   UNL     1       0.371   2.184  21.381  0.00  0.00    +0.000 HD
ENDBRANCH   4  12
BRANCH   5  14
ATOM     14  O   UNL     1      -0.096   2.390  19.495  0.00  0.00    +0.000 OA
ATOM     15  H   UNL     1      -0.366   1.821  18.753  0.00  0.00    +0.000 HD
ENDBRANCH   5  14
ENDBRANCH   1   6
BRANCH   1  16
ATOM     16  C   UNL     1       3.600   2.624  17.498  0.00  0.00    +0.000 C 
ATOM     17  O   UNL     1       3.817   1.468  17.825  0.00  0.00    +0.000 OA
BRANCH  16  18
ATOM     18  C   UNL     1       4.631   3.702  17.471  0.00  0.00    +0.000 A 
ATOM     19  C   UNL     1       5.271   4.042  18.678  0.00  0.00    +0.000 A 
ATOM     20  C   UNL     1       6.229   5.053  18.690  0.00  0.00    +0.000 A 
ATOM     21  C   UNL     1       6.562   5.717  17.516  0.00  0.00    +0.000 A 
ATOM     22  C   UNL     1       5.937   5.383  16.323  0.00  0.00    +0.000 A 
ATOM     23  C   UNL     1       4.971   4.384  16.287  0.00  0.00    +0.000 A 
BRANCH  20  24
ATOM     24  O   UNL     1       6.870   5.437  19.835  0.00  0.00    +0.000 OA
ATOM     25  H   UNL     1       7.770   5.066  19.827  0.00  0.00    +0.000 HD
ENDBRANCH  20  24
BRANCH  21  26
ATOM     26  O   UNL     1       7.504   6.710  17.517  0.00  0.00    +0.000 OA
ATOM     27  H   UNL     1       7.081   7.449  18.001  0.00  0.00    +0.000 HD
ENDBRANCH  21  26
BRANCH  22  28
ATOM     28  O   UNL     1       6.266   6.041  15.174  0.00  0.00    +0.000 OA
ATOM     29  H   UNL     1       5.830   6.917  15.252  0.00  0.00    +0.000 HD
ENDBRANCH  22  28
ENDBRANCH  16  18
ENDBRANCH   1  16
TORSDOF 10
ENDMDL
MODEL 3
REMARK VINA RESULT:      -7.8      1.346      2.282
REMARK  Name = 
REMARK  10 active torsions:
REMARK  status: ('A' for Active; 'I' for Inactive)
REMARK    1  A    between atoms: C_2  and  O_3
REMARK    2  A    between atoms: C_2  and  C_4
REMARK    3  A    between atoms: C_6  and  O_7
REMARK    4  A    between atoms: C_8  and  O_9
REMARK    5  A    between atoms: C_10  and  O_11
REMARK    6  A    between atoms: O_11  and  C_12
REMARK    7  A    between atoms: C_12  and  C_14
REMARK    8  A    between atoms: C_16  and  O_17
REMARK    9  A    between atoms: C_18  and  O_19
REMARK   10  A    between atoms: C_20  and  O_21
REMARK                            x       y       z     vdW  Elec       q    Type
REMARK                         _______ _______ _______ _____ _____    ______ ____
ROOT
ATOM      1  O   UNL     1       2.421   3.116  17.117  0.00  0.00    +0.000 OA
ENDROOT
BRANCH   1   6
ATOM      2  C   UNL     1       1.983   5.581  19.778  0.00  0.00    +0.000 C 
ATOM      3  C   UNL     1       2.008   4.728  20.811  0.00  0.00    +0.000 C 
ATOM      4  C   UNL     1       1.843   3.254  20.685  0.00  0.00    +0.000 C 
ATOM      5  C   UNL     1       1.327   2.716  19.330  0.00  0.00    +0.000 C 
ATOM      6  C   UNL     1       1.499   3.643  18.108  0.00  0.00    +0.000 C 
ATOM      7  C   UNL     1       1.724   5.146  18.362  0.00  0.00    +0.000 C 
BRANCH   2   9
ATOM      8  O   UNL     1       2.462   7.791  19.041  0.00  0.00    +0.000 OA
ATOM      9  C   UNL     1       2.129   7.052  19.954  0.00  0.00    +0.000 C 
BRANCH   9  10
ATOM     10  O   UNL     1       1.905   7.507  21.203  0.00  0.00    +0.000 OA
ATOM     11  H   UNL     1       2.573   8.127  21.544  0.00  0.00    +0.000 HD
ENDBRANCH   9  10
ENDBRANCH   2   9
BRANCH   4  12
ATOM     12  O   UNL     1       0.942   2.888  21.739  0.00  0.00    +0.000 OA
ATOM     13  H   UNL     1       1.508   2.632  22.496  0.00  0.00    +0.000 HD
ENDBRANCH   4  12
BRANCH   5  14
ATOM     14  O   UNL     1      -0.074   2.367  19.491  0.00  0.00    +0.000 OA
ATOM     15  H   UNL     1      -0.608   2.987  18.963  0.00  0.00    +0.000 HD
ENDBRANCH   5  14
ENDBRANCH   1   6
BRANCH   1  16
ATOM     16  C   UNL     1       3.623   2.638  17.504  0.00  0.00    +0.000 C 
ATOM     17  O   UNL     1       3.860   1.473  17.778  0.00  0.00    +0.000 OA
BRANCH  16  18
ATOM     18  C   UNL     1       4.628   3.741  17.555  0.00  0.00    +0.000 A 
ATOM     19  C   UNL     1       4.875   4.470  16.376  0.00  0.00    +0.000 A 
ATOM     20  C   UNL     1       5.817   5.497  16.386  0.00  0.00    +0.000 A 
ATOM     21  C   UNL     1       6.500   5.811  17.555  0.00  0.00    +0.000 A 
ATOM     22  C   UNL     1       6.256   5.097  18.719  0.00  0.00    +0.000 A 
ATOM     23  C   UNL     1       5.328   4.061  18.732  0.00  0.00    +0.000 A 
BRANCH  20  24
ATOM     24  O   UNL     1       6.110   6.228  15.268  0.00  0.00    +0.000 OA
ATOM     25  H   UNL     1       6.805   5.765  14.767  0.00  0.00    +0.000 HD
ENDBRANCH  20  24
BRANCH  21  26
ATOM     26  O   UNL     1       7.424   6.820  17.574  0.00  0.00    +0.000 OA
ATOM     27  H   UNL     1       7.455   7.143  16.651  0.00  0.00    +0.000 HD
ENDBRANCH  21  26
BRANCH  22  28
ATOM     28  O   UNL     1       6.933   5.407  19.862  0.00  0.00    +0.000 OA
ATOM     29  H   UNL     1       7.197   4.540  20.241  0.00  0.00    +0.000 HD
ENDBRANCH  22  28
ENDBRANCH  16  18
ENDBRANCH   1  16
TORSDOF 10
ENDMDL
MODEL 4
REMARK VINA RESULT:      -7.7      1.689      2.788
REMARK  Name = 
REMARK  10 active torsions:
REMARK  status: ('A' for Active; 'I' for Inactive)
REMARK    1  A    between atoms: C_2  and  O_3
REMARK    2  A    between atoms: C_2  and  C_4
REMARK    3  A    between atoms: C_6  and  O_7
REMARK    4  A    between atoms: C_8  and  O_9
REMARK    5  A    between atoms: C_10  and  O_11
REMARK    6  A    between atoms: O_11  and  C_12
REMARK    7  A    between atoms: C_12  and  C_14
REMARK    8  A    between atoms: C_16  and  O_17
REMARK    9  A    between atoms: C_18  and  O_19
REMARK   10  A    between atoms: C_20  and  O_21
REMARK                            x       y       z     vdW  Elec       q    Type
REMARK                         _______ _______ _______ _____ _____    ______ ____
ROOT
ATOM      1  O   UNL     1       4.253   3.530  17.636  0.00  0.00    +0.000 OA
ENDROOT
BRANCH   1   6
ATOM      2  C   UNL     1       2.231   5.849  19.606  0.00  0.00    +0.000 C 
ATOM      3  C   UNL     1       1.764   4.961  20.494  0.00  0.00    +0.000 C 
ATOM      4  C   UNL     1       1.821   3.485  20.313  0.00  0.00    +0.000 C 
ATOM      5  C   UNL     1       2.172   2.961  18.901  0.00  0.00    +0.000 C 
ATOM      6  C   UNL     1       2.900   3.945  17.960  0.00  0.00    +0.000 C 
ATOM      7  C   UNL     1       2.821   5.451  18.281  0.00  0.00    +0.000 C 
BRANCH   2   9
ATOM      8  O   UNL     1       2.298   8.124  18.916  0.00  0.00    +0.000 OA
ATOM      9  C   UNL     1       2.131   7.319  19.819  0.00  0.00    +0.000 C 
BRANCH   9  10
ATOM     10  O   UNL     1       1.883   7.701  21.088  0.00  0.00    +0.000 OA
ATOM     11  H   UNL     1       1.031   8.151  21.226  0.00  0.00    +0.000 HD
ENDBRANCH   9  10
ENDBRANCH   2   9
BRANCH   4  12
ATOM     12  O   UNL     1       0.527   3.010  20.710  0.00  0.00    +0.000 OA
ATOM     13  H   UNL     1      -0.051   3.800  20.731  0.00  0.00    +0.000 HD
ENDBRANCH   4  12
BRANCH   5  14
ATOM     14  O   UNL     1       0.944   2.499  18.277  0.00  0.00    +0.000 OA
ATOM     15  H   UNL     1       0.708   1.638  18.663  0.00  0.00    +0.000 HD
ENDBRANCH   5  14
ENDBRANCH   1   6
BRANCH   1  16
ATOM     16  C   UNL     1       4.971   4.226  16.729  0.00  0.00    +0.000 C 
ATOM     17  O   UNL     1       4.833   4.153  15.518  0.00  0.00    +0.000 OA
BRANCH  16  18
ATOM     18  C   UNL     1       5.967   5.100  17.415  0.00  0.00    +0.000 A 
ATOM     19  C   UNL     1       6.333   6.308  16.791  0.00  0.00    +0.000 A 
ATOM     20  C   UNL     1       7.270   7.141  17.399  0.00  0.00    +0.000 A 
ATOM     21  C   UNL     1       7.832   6.791  18.621  0.00  0.00    +0.000 A 
ATOM     22  C   UNL     1       7.471   5.604  19.240  0.00  0.00    +0.000 A 
ATOM     23  C   UNL     1       6.545   4.751  18.649  0.00  0.00    +0.000 A 
BRANCH  20  24
ATOM     24  O   UNL     1       7.676   8.317  16.832  0.00  0.00    +0.000 OA
ATOM     25  H   UNL     1       7.917   8.938  17.542  0.00  0.00    +0.000 HD
ENDBRANCH  20  24
BRANCH  21  26
ATOM     26  O   UNL     1       8.751   7.605  19.226  0.00  0.00    +0.000 OA
ATOM     27  H   UNL     1       8.864   8.353  18.605  0.00  0.00    +0.000 HD
ENDBRANCH  21  26
BRANCH  22  28
ATOM     28  O   UNL     1       8.029   5.263  20.437  0.00  0.00    +0.000 OA
ATOM     29  H   UNL     1       8.205   6.118  20.886  0.00  0.00    +0.000 HD
ENDBRANCH  22  28
ENDBRANCH  16  18
ENDBRANCH   1  16
TORSDOF 10
ENDMDL
MODEL 5
REMARK VINA RESULT:      -7.7      1.693      2.735
REMARK  Name = 
REMARK  10 active torsions:
REMARK  status: ('A' for Active; 'I' for Inactive)
REMARK    1  A    between atoms: C_2  and  O_3
REMARK    2  A    between atoms: C_2  and  C_4
REMARK    3  A    between atoms: C_6  and  O_7
REMARK    4  A    between atoms: C_8  and  O_9
REMARK    5  A    between atoms: C_10  and  O_11
REMARK    6  A    between atoms: O_11  and  C_12
REMARK    7  A    between atoms: C_12  and  C_14
REMARK    8  A    between atoms: C_16  and  O_17
REMARK    9  A    between atoms: C_18  and  O_19
REMARK   10  A    between atoms: C_20  and  O_21
REMARK                            x       y       z     vdW  Elec       q    Type
REMARK                         _______ _______ _______ _____ _____    ______ ____
ROOT
ATOM      1  O   UNL     1       4.344   3.433  17.947  0.00  0.00    +0.000 OA
ENDROOT
BRANCH   1   6
ATOM      2  C   UNL     1       2.266   5.752  19.857  0.00  0.00    +0.000 C 
ATOM      3  C   UNL     1       1.883   4.895  20.814  0.00  0.00    +0.000 C 
ATOM      4  C   UNL     1       2.017   3.416  20.717  0.00  0.00    +0.000 C 
ATOM      5  C   UNL     1       2.346   2.828  19.325  0.00  0.00    +0.000 C 
ATOM      6  C   UNL     1       2.982   3.792  18.300  0.00  0.00    +0.000 C 
ATOM      7  C   UNL     1       2.829   5.307  18.536  0.00  0.00    +0.000 C 
BRANCH   2   9
ATOM      8  O   UNL     1       2.214   7.985  19.041  0.00  0.00    +0.000 OA
ATOM      9  C   UNL     1       2.090   7.224  19.989  0.00  0.00    +0.000 C 
BRANCH   9  10
ATOM     10  O   UNL     1       1.824   7.663  21.235  0.00  0.00    +0.000 OA
ATOM     11  H   UNL     1       1.636   8.615  21.308  0.00  0.00    +0.000 HD
ENDBRANCH   9  10
ENDBRANCH   2   9
BRANCH   4  12
ATOM     12  O   UNL     1       0.768   2.895  21.192  0.00  0.00    +0.000 OA
ATOM     13  H   UNL     1       0.997   2.123  21.748  0.00  0.00    +0.000 HD
ENDBRANCH   4  12
BRANCH   5  14
ATOM     14  O   UNL     1       1.125   2.263  18.777  0.00  0.00    +0.000 OA
ATOM     15  H   UNL     1       0.394   2.880  18.954  0.00  0.00    +0.000 HD
ENDBRANCH   5  14
ENDBRANCH   1   6
BRANCH   1  16
ATOM     16  C   UNL     1       4.978   4.093  16.955  0.00  0.00    +0.000 C 
ATOM     17  O   UNL     1       4.773   3.935  15.762  0.00  0.00    +0.000 OA
BRANCH  16  18
ATOM     18  C   UNL     1       5.976   5.047  17.522  0.00  0.00    +0.000 A 
ATOM     19  C   UNL     1       6.596   4.715  18.742  0.00  0.00    +0.000 A 
ATOM     20  C   UNL     1       7.522   5.590  19.305  0.00  0.00    +0.000 A 
ATOM     21  C   UNL     1       7.845   6.779  18.662  0.00  0.00    +0.000 A 
ATOM     22  C   UNL     1       7.240   7.108  17.458  0.00  0.00    +0.000 A 
ATOM     23  C   UNL     1       6.305   6.256  16.881  0.00  0.00    +0.000 A 
BRANCH  20  24
ATOM     24  O   UNL     1       8.142   5.328  20.495  0.00  0.00    +0.000 OA
ATOM     25  H   UNL     1       9.022   5.745  20.487  0.00  0.00    +0.000 HD
ENDBRANCH  20  24
BRANCH  21  26
ATOM     26  O   UNL     1       8.756   7.643  19.207  0.00  0.00    +0.000 OA
ATOM     27  H   UNL     1       8.388   7.866  20.086  0.00  0.00    +0.000 HD
ENDBRANCH  21  26
BRANCH  22  28
ATOM     28  O   UNL     1       7.558   8.279  16.834  0.00  0.00    +0.000 OA
ATOM     29  H   UNL     1       7.727   8.915  17.562  0.00  0.00    +0.000 HD
ENDBRANCH  22  28
ENDBRANCH  16  18
ENDBRANCH   1  16
TORSDOF 10
ENDMDL
MODEL 6
REMARK VINA RESULT:      -7.6      0.322      1.870
REMARK  Name = 
REMARK  10 active torsions:
REMARK  status: ('A' for Active; 'I' for Inactive)
REMARK    1  A    between atoms: C_2  and  O_3
REMARK    2  A    between atoms: C_2  and  C_4
REMARK    3  A    between atoms: C_6  and  O_7
REMARK    4  A    between atoms: C_8  and  O_9
REMARK    5  A    between atoms: C_10  and  O_11
REMARK    6  A    between atoms: O_11  and  C_12
REMARK    7  A    between atoms: C_12  and  C_14
REMARK    8  A    between atoms: C_16  and  O_17
REMARK    9  A    between atoms: C_18  and  O_19
REMARK   10  A    between atoms: C_20  and  O_21
REMARK                            x       y       z     vdW  Elec       q    Type
REMARK                         _______ _______ _______ _____ _____    ______ ____
ROOT
ATOM      1  O   UNL     1       3.571   2.961  17.646  0.00  0.00    +0.000 OA
ENDROOT
BRANCH   1   6
ATOM      2  C   UNL     1       2.051   5.479  19.813  0.00  0.00    +0.000 C 
ATOM      3  C   UNL     1       1.751   4.668  20.837  0.00  0.00    +0.000 C 
ATOM      4  C   UNL     1       1.731   3.182  20.752  0.00  0.00    +0.000 C 
ATOM      5  C   UNL     1       1.775   2.557  19.339  0.00  0.00    +0.000 C 
ATOM      6  C   UNL     1       2.323   3.450  18.205  0.00  0.00    +0.000 C 
ATOM      7  C   UNL     1       2.350   4.974  18.429  0.00  0.00    +0.000 C 
BRANCH   2   9
ATOM      8  O   UNL     1       1.576   7.531  20.916  0.00  0.00    +0.000 OA
ATOM      9  C   UNL     1       2.035   6.962  19.938  0.00  0.00    +0.000 C 
BRANCH   9  10
ATOM     10  O   UNL     1       2.528   7.635  18.879  0.00  0.00    +0.000 OA
ATOM     11  H   UNL     1       1.962   7.633  18.087  0.00  0.00    +0.000 HD
ENDBRANCH   9  10
ENDBRANCH   2   9
BRANCH   4  12
ATOM     12  O   UNL     1       0.533   2.785  21.433  0.00  0.00    +0.000 OA
ATOM     13  H   UNL     1       0.253   1.947  21.011  0.00  0.00    +0.000 HD
ENDBRANCH   4  12
BRANCH   5  14
ATOM     14  O   UNL     1       0.435   2.105  19.007  0.00  0.00    +0.000 OA
ATOM     15  H   UNL     1       0.425   1.833  18.072  0.00  0.00    +0.000 HD
ENDBRANCH   5  14
ENDBRANCH   1   6
BRANCH   1  16
ATOM     16  C   UNL     1       4.748   3.410  18.133  0.00  0.00    +0.000 C 
ATOM     17  O   UNL     1       5.099   3.336  19.300  0.00  0.00    +0.000 OA
BRANCH  16  18
ATOM     18  C   UNL     1       5.564   4.018  17.041  0.00  0.00    +0.000 A 
ATOM     19  C   UNL     1       5.552   3.397  15.778  0.00  0.00    +0.000 A 
ATOM     20  C   UNL     1       6.313   3.932  14.740  0.00  0.00    +0.000 A 
ATOM     21  C   UNL     1       7.070   5.079  14.944  0.00  0.00    +0.000 A 
ATOM     22  C   UNL     1       7.081   5.696  16.187  0.00  0.00    +0.000 A 
ATOM     23  C   UNL     1       6.338   5.176  17.241  0.00  0.00    +0.000 A 
BRANCH  20  24
ATOM     24  O   UNL     1       6.354   3.363  13.498  0.00  0.00    +0.000 OA
ATOM     25  H   UNL     1       6.221   2.403  13.591  0.00  0.00    +0.000 HD
ENDBRANCH  20  24
BRANCH  21  26
ATOM     26  O   UNL     1       7.818   5.613  13.930  0.00  0.00    +0.000 OA
ATOM     27  H   UNL     1       8.496   6.155  14.384  0.00  0.00    +0.000 HD
ENDBRANCH  21  26
BRANCH  22  28
ATOM     28  O   UNL     1       7.829   6.819  16.383  0.00  0.00    +0.000 OA
ATOM     29  H   UNL     1       8.282   6.675  17.242  0.00  0.00    +0.000 HD
ENDBRANCH  22  28
ENDBRANCH  16  18
ENDBRANCH   1  16
TORSDOF 10
ENDMDL
MODEL 7
REMARK VINA RESULT:      -7.5      2.252      6.436
REMARK  Name = 
REMARK  10 active torsions:
REMARK  status: ('A' for Active; 'I' for Inactive)
REMARK    1  A    between atoms: C_2  and  O_3
REMARK    2  A    between atoms: C_2  and  C_4
REMARK    3  A    between atoms: C_6  and  O_7
REMARK    4  A    between atoms: C_8  and  O_9
REMARK    5  A    between atoms: C_10  and  O_11
REMARK    6  A    between atoms: O_11  and  C_12
REMARK    7  A    between atoms: C_12  and  C_14
REMARK    8  A    between atoms: C_16  and  O_17
REMARK    9  A    between atoms: C_18  and  O_19
REMARK   10  A    between atoms: C_20  and  O_21
REMARK                            x       y       z     vdW  Elec       q    Type
REMARK                         _______ _______ _______ _____ _____    ______ ____
ROOT
ATOM      1  O   UNL     1       2.853   5.212  18.736  0.00  0.00    +0.000 OA
ENDROOT
BRANCH   1   6
ATOM      2  C   UNL     1       6.494   5.331  18.459  0.00  0.00    +0.000 C 
ATOM      3  C   UNL     1       6.588   4.870  17.204  0.00  0.00    +0.000 C 
ATOM      4  C   UNL     1       5.486   4.182  16.479  0.00  0.00    +0.000 C 
ATOM      5  C   UNL     1       4.272   3.718  17.318  0.00  0.00    +0.000 C 
ATOM      6  C   UNL     1       4.067   4.416  18.680  0.00  0.00    +0.000 C 
ATOM      7  C   UNL     1       5.267   5.150  19.309  0.00  0.00    +0.000 C 
BRANCH   2   9
ATOM      8  O   UNL     1       8.239   6.933  18.665  0.00  0.00    +0.000 OA
ATOM      9  C   UNL     1       7.632   5.993  19.154  0.00  0.00    +0.000 C 
BRANCH   9  10
ATOM     10  O   UNL     1       7.971   5.457  20.343  0.00  0.00    +0.000 OA
ATOM     11  H   UNL     1       7.634   5.933  21.123  0.00  0.00    +0.000 HD
ENDBRANCH   9  10
ENDBRANCH   2   9
BRANCH   4  12
ATOM     12  O   UNL     1       6.105   3.057  15.839  0.00  0.00    +0.000 OA
ATOM     13  H   UNL     1       6.330   2.433  16.559  0.00  0.00    +0.000 HD
ENDBRANCH   4  12
BRANCH   5  14
ATOM     14  O   UNL     1       4.383   2.283  17.511  0.00  0.00    +0.000 OA
ATOM     15  H   UNL     1       5.079   2.114  18.170  0.00  0.00    +0.000 HD
ENDBRANCH   5  14
ENDBRANCH   1   6
BRANCH   1  16
ATOM     16  C   UNL     1       2.420   5.694  19.921  0.00  0.00    +0.000 C 
ATOM     17  O   UNL     1       2.373   5.060  20.963  0.00  0.00    +0.000 OA
BRANCH  16  18
ATOM     18  C   UNL     1       1.997   7.118  19.778  0.00  0.00    +0.000 A 
ATOM     19  C   UNL     1       1.394   7.747  20.884  0.00  0.00    +0.000 A 
ATOM     20  C   UNL     1       0.976   9.072  20.779  0.00  0.00    +0.000 A 
ATOM     21  C   UNL     1       1.164   9.776  19.596  0.00  0.00    +0.000 A 
ATOM     22  C   UNL     1       1.762   9.160  18.506  0.00  0.00    +0.000 A 
ATOM     23  C   UNL     1       2.178   7.836  18.582  0.00  0.00    +0.000 A 
BRANCH  20  24
ATOM     24  O   UNL     1       0.369   9.728  21.814  0.00  0.00    +0.000 OA
ATOM     25  H   UNL     1       0.683  10.650  21.825  0.00  0.00    +0.000 HD
ENDBRANCH  20  24
BRANCH  21  26
ATOM     26  O   UNL     1       0.759  11.078  19.485  0.00  0.00    +0.000 OA
ATOM     27  H   UNL     1       1.098  11.368  18.613  0.00  0.00    +0.000 HD
ENDBRANCH  21  26
BRANCH  22  28
ATOM     28  O   UNL     1       1.940   9.855  17.345  0.00  0.00    +0.000 OA
ATOM     29  H   UNL     1       2.910   9.851  17.195  0.00  0.00    +0.000 HD
ENDBRANCH  22  28
ENDBRANCH  16  18
ENDBRANCH   1  16
TORSDOF 10
ENDMDL
MODEL 8
REMARK VINA RESULT:      -7.4      2.253      6.543
REMARK  Name = 
REMARK  10 active torsions:
REMARK  status: ('A' for Active; 'I' for Inactive)
REMARK    1  A    between atoms: C_2  and  O_3
REMARK    2  A    between atoms: C_2  and  C_4
REMARK    3  A    between atoms: C_6  and  O_7
REMARK    4  A    between atoms: C_8  and  O_9
REMARK    5  A    between atoms: C_10  and  O_11
REMARK    6  A    between atoms: O_11  and  C_12
REMARK    7  A    between atoms: C_12  and  C_14
REMARK    8  A    between atoms: C_16  and  O_17
REMARK    9  A    between atoms: C_18  and  O_19
REMARK   10  A    between atoms: C_20  and  O_21
REMARK                            x       y       z     vdW  Elec       q    Type
REMARK                         _______ _______ _______ _____ _____    ______ ____
ROOT
ATOM      1  O   UNL     1       2.809   5.224  18.789  0.00  0.00    +0.000 OA
ENDROOT
BRANCH   1   6
ATOM      2  C   UNL     1       6.448   5.312  18.485  0.00  0.00    +0.000 C 
ATOM      3  C   UNL     1       6.529   4.848  17.230  0.00  0.00    +0.000 C 
ATOM      4  C   UNL     1       5.416   4.167  16.515  0.00  0.00    +0.000 C 
ATOM      5  C   UNL     1       4.205   3.716  17.363  0.00  0.00    +0.000 C 
ATOM      6  C   UNL     1       4.015   4.418  18.725  0.00  0.00    +0.000 C 
ATOM      7  C   UNL     1       5.226   5.144  19.344  0.00  0.00    +0.000 C 
BRANCH   2   9
ATOM      8  O   UNL     1       8.231   6.877  18.658  0.00  0.00    +0.000 OA
ATOM      9  C   UNL     1       7.597   5.966  19.169  0.00  0.00    +0.000 C 
BRANCH   9  10
ATOM     10  O   UNL     1       7.914   5.457  20.376  0.00  0.00    +0.000 OA
ATOM     11  H   UNL     1       7.232   5.564  21.063  0.00  0.00    +0.000 HD
ENDBRANCH   9  10
ENDBRANCH   2   9
BRANCH   4  12
ATOM     12  O   UNL     1       6.021   3.036  15.873  0.00  0.00    +0.000 OA
ATOM     13  H   UNL     1       5.406   2.288  16.020  0.00  0.00    +0.000 HD
ENDBRANCH   4  12
BRANCH   5  14
ATOM     14  O   UNL     1       4.305   2.280  17.559  0.00  0.00    +0.000 OA
ATOM     15  H   UNL     1       4.780   2.116  18.393  0.00  0.00    +0.000 HD
ENDBRANCH   5  14
ENDBRANCH   1   6
BRANCH   1  16
ATOM     16  C   UNL     1       2.363   5.675  19.981  0.00  0.00    +0.000 C 
ATOM     17  O   UNL     1       2.312   5.015  21.007  0.00  0.00    +0.000 OA
BRANCH  16  18
ATOM     18  C   UNL     1       1.933   7.099  19.869  0.00  0.00    +0.000 A 
ATOM     19  C   UNL     1       2.117   7.755  18.637  0.00  0.00    +0.000 A 
ATOM     20  C   UNL     1       1.739   9.089  18.503  0.00  0.00    +0.000 A 
ATOM     21  C   UNL     1       1.171   9.769  19.574  0.00  0.00    +0.000 A 
ATOM     22  C   UNL     1       0.984   9.124  20.789  0.00  0.00    +0.000 A 
ATOM     23  C   UNL     1       1.362   7.796  20.950  0.00  0.00    +0.000 A 
BRANCH  20  24
ATOM     24  O   UNL     1       1.909   9.782  17.336  0.00  0.00    +0.000 OA
ATOM     25  H   UNL     1       2.849   9.745  17.087  0.00  0.00    +0.000 HD
ENDBRANCH  20  24
BRANCH  21  26
ATOM     26  O   UNL     1       0.793  11.078  19.451  0.00  0.00    +0.000 OA
ATOM     27  H   UNL     1      -0.154  11.085  19.699  0.00  0.00    +0.000 HD
ENDBRANCH  21  26
BRANCH  22  28
ATOM     28  O   UNL     1       0.430   9.797  21.838  0.00  0.00    +0.000 OA
ATOM     29  H   UNL     1       1.135  10.406  22.148  0.00  0.00    +0.000 HD
ENDBRANCH  22  28
ENDBRANCH  16  18
ENDBRANCH   1  16
TORSDOF 10
ENDMDL
MODEL 9
REMARK VINA RESULT:      -7.4      2.115      4.245
REMARK  Name = 
REMARK  10 active torsions:
REMARK  status: ('A' for Active; 'I' for Inactive)
REMARK    1  A    between atoms: C_2  and  O_3
REMARK    2  A    between atoms: C_2  and  C_4
REMARK    3  A    between atoms: C_6  and  O_7
REMARK    4  A    between atoms: C_8  and  O_9
REMARK    5  A    between atoms: C_10  and  O_11
REMARK    6  A    between atoms: O_11  and  C_12
REMARK    7  A    between atoms: C_12  and  C_14
REMARK    8  A    between atoms: C_16  and  O_17
REMARK    9  A    between atoms: C_18  and  O_19
REMARK   10  A    between atoms: C_20  and  O_21
REMARK                            x       y       z     vdW  Elec       q    Type
REMARK                         _______ _______ _______ _____ _____    ______ ____
ROOT
ATOM      1  O   UNL     1       2.916   5.635  20.168  0.00  0.00    +0.000 OA
ENDROOT
BRANCH   1   6
ATOM      2  C   UNL     1       3.764   2.091  19.901  0.00  0.00    +0.000 C 
ATOM      3  C   UNL     1       2.929   1.788  18.898  0.00  0.00    +0.000 C 
ATOM      4  C   UNL     1       1.797   2.649  18.459  0.00  0.00    +0.000 C 
ATOM      5  C   UNL     1       1.390   3.809  19.397  0.00  0.00    +0.000 C 
ATOM      6  C   UNL     1       2.452   4.281  20.414  0.00  0.00    +0.000 C 
ATOM      7  C   UNL     1       3.614   3.325  20.747  0.00  0.00    +0.000 C 
BRANCH   2   9
ATOM      8  O   UNL     1       5.528   1.383  21.329  0.00  0.00    +0.000 OA
ATOM      9  C   UNL     1       4.869   1.186  20.321  0.00  0.00    +0.000 C 
BRANCH   9  10
ATOM     10  O   UNL     1       5.116   0.155  19.489  0.00  0.00    +0.000 OA
ATOM     11  H   UNL     1       4.857  -0.720  19.825  0.00  0.00    +0.000 HD
ENDBRANCH   9  10
ENDBRANCH   2   9
BRANCH   4  12
ATOM     12  O   UNL     1       0.694   1.752  18.274  0.00  0.00    +0.000 OA
ATOM     13  H   UNL     1       0.167   1.806  19.097  0.00  0.00    +0.000 HD
ENDBRANCH   4  12
BRANCH   5  14
ATOM     14  O   UNL     1       0.179   3.416  20.096  0.00  0.00    +0.000 OA
ATOM     15  H   UNL     1      -0.290   4.222  20.376  0.00  0.00    +0.000 HD
ENDBRANCH   5  14
ENDBRANCH   1   6
BRANCH   1  16
ATOM     16  C   UNL     1       3.206   6.028  18.910  0.00  0.00    +0.000 C 
ATOM     17  O   UNL     1       2.473   6.691  18.194  0.00  0.00    +0.000 OA
BRANCH  16  18
ATOM     18  C   UNL     1       4.556   5.533  18.510  0.00  0.00    +0.000 A 
ATOM     19  C   UNL     1       4.662   4.770  17.331  0.00  0.00    +0.000 A 
ATOM     20  C   UNL     1       5.905   4.281  16.936  0.00  0.00    +0.000 A 
ATOM     21  C   UNL     1       7.039   4.554  17.691  0.00  0.00    +0.000 A 
ATOM     22  C   UNL     1       6.939   5.309  18.851  0.00  0.00    +0.000 A 
ATOM     23  C   UNL     1       5.708   5.800  19.272  0.00  0.00    +0.000 A 
BRANCH  20  24
ATOM     24  O   UNL     1       6.066   3.521  15.811  0.00  0.00    +0.000 OA
ATOM     25  H   UNL     1       6.463   2.669  16.064  0.00  0.00    +0.000 HD
ENDBRANCH  20  24
BRANCH  21  26
ATOM     26  O   UNL     1       8.265   4.081  17.309  0.00  0.00    +0.000 OA
ATOM     27  H   UNL     1       8.195   3.974  16.339  0.00  0.00    +0.000 HD
ENDBRANCH  21  26
BRANCH  22  28
ATOM     28  O   UNL     1       8.055   5.571  19.592  0.00  0.00    +0.000 OA
ATOM     29  H   UNL     1       7.785   5.407  20.521  0.00  0.00    +0.000 HD
ENDBRANCH  22  28
ENDBRANCH  16  18
ENDBRANCH   1  16
TORSDOF 10
ENDMDL
