MODEL 1
REMARK VINA RESULT:      -8.4      0.000      0.000
REMARK  Name = 
REMARK  5 active torsions:
REMARK  status: ('A' for Active; 'I' for Inactive)
REMARK    1  A    between atoms: N_1  and  C_2
REMARK    2  A    between atoms: C_7  and  N_8
REMARK    3  A    between atoms: N_8  and  C_9
REMARK    4  A    between atoms: C_12  and  C_13
REMARK    5  A    between atoms: C_13  and  C_15
REMARK                            x       y       z     vdW  Elec       q    Type
REMARK                         _______ _______ _______ _____ _____    ______ ____
ROOT
ATOM      1  C   UNL     1       6.126   5.601  16.409  0.00  0.00    +0.000 A 
ATOM      2  C   UNL     1       6.103   4.776  17.535  0.00  0.00    +0.000 A 
ATOM      3  C   UNL     1       5.099   4.921  18.504  0.00  0.00    +0.000 A 
ATOM      4  C   UNL     1       4.116   5.911  18.371  0.00  0.00    +0.000 A 
ATOM      5  C   UNL     1       4.176   6.787  17.288  0.00  0.00    +0.000 A 
ATOM      6  C   UNL     1       5.167   6.628  16.320  0.00  0.00    +0.000 A 
ENDROOT
BRANCH   1   7
ATOM      7  N   UNL     1       7.137   5.479  15.433  0.00  0.00    +0.000 N 
ATOM      8  H   UNL     1       8.067   5.296  15.800  0.00  0.00    +0.000 HD
BRANCH   7  14
ATOM      9  C   UNL     1       7.840   5.213  13.106  0.00  0.00    +0.000 A 
ATOM     10  C   UNL     1       7.686   4.596  11.861  0.00  0.00    +0.000 A 
ATOM     11  C   UNL     1       6.661   3.673  11.646  0.00  0.00    +0.000 A 
ATOM     12  C   UNL     1       5.825   3.300  12.696  0.00  0.00    +0.000 A 
ATOM     13  C   UNL     1       6.000   3.872  13.954  0.00  0.00    +0.000 A 
ATOM     14  C   UNL     1       6.979   4.855  14.165  0.00  0.00    +0.000 A 
BRANCH   9  15
ATOM     15  N   UNL     1       8.955   6.043  13.349  0.00  0.00    +0.000 N 
ATOM     16  H   UNL     1       9.840   5.564  13.219  0.00  0.00    +0.000 HD
ATOM     17  H   UNL     1       8.889   6.891  12.785  0.00  0.00    +0.000 HD
ENDBRANCH   9  15
ENDBRANCH   7  14
ENDBRANCH   1   7
BRANCH   4  18
ATOM     18  C   UNL     1       3.031   5.995  19.397  0.00  0.00    +0.000 C 
ATOM     19  O   UNL     1       2.698   7.100  19.807  0.00  0.00    +0.000 OA
BRANCH  18  20
ATOM     20  C   UNL     1       2.424   4.767  19.986  0.00  0.00    +0.000 A 
ATOM     21  C   UNL     1       2.616   4.516  21.358  0.00  0.00    +0.000 A 
ATOM     22  C   UNL     1       2.062   3.389  21.965  0.00  0.00    +0.000 A 
ATOM     23  C   UNL     1       1.270   2.520  21.224  0.00  0.00    +0.000 A 
ATOM     24  C   UNL     1       1.045   2.771  19.869  0.00  0.00    +0.000 A 
ATOM     25  C   UNL     1       1.624   3.885  19.243  0.00  0.00    +0.000 A 
ATOM     26 BR   UNL     1       1.310   4.060  17.378  0.00  0.00    +0.000 Br
ENDBRANCH  18  20
ENDBRANCH   4  18
TORSDOF 5
ENDMDL
MODEL 2
REMARK VINA RESULT:      -8.1      0.115      1.010
REMARK  Name = 
REMARK  5 active torsions:
REMARK  status: ('A' for Active; 'I' for Inactive)
REMARK    1  A    between atoms: N_1  and  C_2
REMARK    2  A    between atoms: C_7  and  N_8
REMARK    3  A    between atoms: N_8  and  C_9
REMARK    4  A    between atoms: C_12  and  C_13
REMARK    5  A    between atoms: C_13  and  C_15
REMARK                            x       y       z     vdW  Elec       q    Type
REMARK                         _______ _______ _______ _____ _____    ______ ____
ROOT
ATOM      1  C   UNL     1       6.160   5.586  16.357  0.00  0.00    +0.000 A 
ATOM      2  C   UNL     1       5.173   6.570  16.283  0.00  0.00    +0.000 A 
ATOM      3  C   UNL     1       4.174   6.652  17.263  0.00  0.00    +0.000 A 
ATOM      4  C   UNL     1       4.134   5.732  18.320  0.00  0.00    +0.000 A 
ATOM      5  C   UNL     1       5.072   4.701  18.359  0.00  0.00    +0.000 A 
ATOM      6  C   UNL     1       6.072   4.635  17.390  0.00  0.00    +0.000 A 
ENDROOT
BRANCH   1   7
ATOM      7  N   UNL     1       7.164   5.481  15.371  0.00  0.00    +0.000 N 
ATOM      8  H   UNL     1       8.100   5.310  15.727  0.00  0.00    +0.000 HD
BRANCH   7  14
ATOM      9  C   UNL     1       7.853   5.233  13.037  0.00  0.00    +0.000 A 
ATOM     10  C   UNL     1       7.695   4.621  11.790  0.00  0.00    +0.000 A 
ATOM     11  C   UNL     1       6.676   3.690  11.578  0.00  0.00    +0.000 A 
ATOM     12  C   UNL     1       5.852   3.304  12.632  0.00  0.00    +0.000 A 
ATOM     13  C   UNL     1       6.032   3.871  13.892  0.00  0.00    +0.000 A 
ATOM     14  C   UNL     1       7.002   4.863  14.100  0.00  0.00    +0.000 A 
BRANCH   9  15
ATOM     15  N   UNL     1       8.961   6.073  13.276  0.00  0.00    +0.000 N 
ATOM     16  H   UNL     1       9.801   5.558  13.522  0.00  0.00    +0.000 HD
ATOM     17  H   UNL     1       9.109   6.692  12.479  0.00  0.00    +0.000 HD
ENDBRANCH   9  15
ENDBRANCH   7  14
ENDBRANCH   1   7
BRANCH   4  18
ATOM     18  C   UNL     1       3.086   5.888  19.375  0.00  0.00    +0.000 C 
ATOM     19  O   UNL     1       2.823   7.015  19.777  0.00  0.00    +0.000 OA
BRANCH  18  20
ATOM     20  C   UNL     1       2.434   4.702  20.002  0.00  0.00    +0.000 A 
ATOM     21  C   UNL     1       2.631   4.476  21.377  0.00  0.00    +0.000 A 
ATOM     22  C   UNL     1       2.036   3.389  22.018  0.00  0.00    +0.000 A 
ATOM     23  C   UNL     1       1.200   2.537  21.307  0.00  0.00    +0.000 A 
ATOM     24  C   UNL     1       0.969   2.765  19.949  0.00  0.00    +0.000 A 
ATOM     25  C   UNL     1       1.589   3.837  19.289  0.00  0.00    +0.000 A 
ATOM     26 BR   UNL     1       1.261   3.980  17.423  0.00  0.00    +0.000 Br
ENDBRANCH  18  20
ENDBRANCH   4  18
TORSDOF 5
ENDMDL
MODEL 3
REMARK VINA RESULT:      -8.1      5.296      7.853
REMARK  Name = 
REMARK  5 active torsions:
REMARK  status: ('A' for Active; 'I' for Inactive)
REMARK    1  A    between atoms: N_1  and  C_2
REMARK    2  A    between atoms: C_7  and  N_8
REMARK    3  A    between atoms: N_8  and  C_9
REMARK    4  A    between atoms: C_12  and  C_13
REMARK    5  A    between atoms: C_13  and  C_15
REMARK                            x       y       z     vdW  Elec       q    Type
REMARK                         _______ _______ _______ _____ _____    ______ ____
ROOT
ATOM      1  C   UNL     1       1.045   9.508  18.704  0.00  0.00    +0.000 A 
ATOM      2  C   UNL     1       1.790   8.915  17.682  0.00  0.00    +0.000 A 
ATOM      3  C   UNL     1       2.504   7.732  17.916  0.00  0.00    +0.000 A 
ATOM      4  C   UNL     1       2.503   7.135  19.184  0.00  0.00    +0.000 A 
ATOM      5  C   UNL     1       1.823   7.762  20.229  0.00  0.00    +0.000 A 
ATOM      6  C   UNL     1       1.102   8.930  19.986  0.00  0.00    +0.000 A 
ENDROOT
BRANCH   1   7
ATOM      7  N   UNL     1       0.333  10.707  18.489  0.00  0.00    +0.000 N 
ATOM      8  H   UNL     1       0.830  11.410  17.950  0.00  0.00    +0.000 HD
BRANCH   7  14
ATOM      9  C   UNL     1      -1.831  11.753  18.938  0.00  0.00    +0.000 A 
ATOM     10  C   UNL     1      -3.205  11.842  18.690  0.00  0.00    +0.000 A 
ATOM     11  C   UNL     1      -3.826  10.961  17.802  0.00  0.00    +0.000 A 
ATOM     12  C   UNL     1      -3.067  10.031  17.094  0.00  0.00    +0.000 A 
ATOM     13  C   UNL     1      -1.690   9.967  17.296  0.00  0.00    +0.000 A 
ATOM     14  C   UNL     1      -1.065  10.795  18.241  0.00  0.00    +0.000 A 
BRANCH   9  15
ATOM     15  N   UNL     1      -1.194  12.727  19.735  0.00  0.00    +0.000 N 
ATOM     16  H   UNL     1      -0.314  13.046  19.341  0.00  0.00    +0.000 HD
ATOM     17  H   UNL     1      -1.834  13.499  19.922  0.00  0.00    +0.000 HD
ENDBRANCH   9  15
ENDBRANCH   7  14
ENDBRANCH   1   7
BRANCH   4  18
ATOM     18  C   UNL     1       3.231   5.844  19.377  0.00  0.00    +0.000 C 
ATOM     19  O   UNL     1       4.427   5.880  19.640  0.00  0.00    +0.000 OA
BRANCH  18  20
ATOM     20  C   UNL     1       2.554   4.532  19.164  0.00  0.00    +0.000 A 
ATOM     21  C   UNL     1       1.502   4.173  20.028  0.00  0.00    +0.000 A 
ATOM     22  C   UNL     1       0.824   2.964  19.867  0.00  0.00    +0.000 A 
ATOM     23  C   UNL     1       1.156   2.116  18.817  0.00  0.00    +0.000 A 
ATOM     24  C   UNL     1       2.176   2.473  17.934  0.00  0.00    +0.000 A 
ATOM     25  C   UNL     1       2.884   3.672  18.105  0.00  0.00    +0.000 A 
ATOM     26 BR   UNL     1       4.306   3.992  16.887  0.00  0.00    +0.000 Br
ENDBRANCH  18  20
ENDBRANCH   4  18
TORSDOF 5
ENDMDL
MODEL 4
REMARK VINA RESULT:      -8.0      5.239      7.527
REMARK  Name = 
REMARK  5 active torsions:
REMARK  status: ('A' for Active; 'I' for Inactive)
REMARK    1  A    between atoms: N_1  and  C_2
REMARK    2  A    between atoms: C_7  and  N_8
REMARK    3  A    between atoms: N_8  and  C_9
REMARK    4  A    between atoms: C_12  and  C_13
REMARK    5  A    between atoms: C_13  and  C_15
REMARK                            x       y       z     vdW  Elec       q    Type
REMARK                         _______ _______ _______ _____ _____    ______ ____
ROOT
ATOM      1  C   UNL     1       2.254   7.249  19.775  0.00  0.00    +0.000 A 
ATOM      2  C   UNL     1       1.512   7.998  20.690  0.00  0.00    +0.000 A 
ATOM      3  C   UNL     1       0.874   9.182  20.292  0.00  0.00    +0.000 A 
ATOM      4  C   UNL     1       0.989   9.646  18.975  0.00  0.00    +0.000 A 
ATOM      5  C   UNL     1       1.790   8.944  18.074  0.00  0.00    +0.000 A 
ATOM      6  C   UNL     1       2.409   7.760  18.473  0.00  0.00    +0.000 A 
ENDROOT
BRANCH   1   7
ATOM      7  N   UNL     1       2.913   6.064  20.164  0.00  0.00    +0.000 N 
ATOM      8  H   UNL     1       3.310   6.082  21.099  0.00  0.00    +0.000 HD
BRANCH   7  14
ATOM      9  C   UNL     1       3.365   3.899  19.121  0.00  0.00    +0.000 A 
ATOM     10  C   UNL     1       2.951   2.603  18.801  0.00  0.00    +0.000 A 
ATOM     11  C   UNL     1       1.668   2.163  19.136  0.00  0.00    +0.000 A 
ATOM     12  C   UNL     1       0.814   2.989  19.862  0.00  0.00    +0.000 A 
ATOM     13  C   UNL     1       1.234   4.265  20.229  0.00  0.00    +0.000 A 
ATOM     14  C   UNL     1       2.491   4.747  19.834  0.00  0.00    +0.000 A 
BRANCH   9  15
ATOM     15  N   UNL     1       4.702   4.289  18.894  0.00  0.00    +0.000 N 
ATOM     16  H   UNL     1       4.886   4.523  17.923  0.00  0.00    +0.000 HD
ATOM     17  H   UNL     1       4.958   5.046  19.527  0.00  0.00    +0.000 HD
ENDBRANCH   9  15
ENDBRANCH   7  14
ENDBRANCH   1   7
BRANCH   4  18
ATOM     18  C   UNL     1       0.248  10.882  18.576  0.00  0.00    +0.000 C 
ATOM     19  O   UNL     1       0.839  11.955  18.608  0.00  0.00    +0.000 OA
BRANCH  18  20
ATOM     20  C   UNL     1      -1.203  10.840  18.235  0.00  0.00    +0.000 A 
ATOM     21  C   UNL     1      -1.629   9.960  17.222  0.00  0.00    +0.000 A 
ATOM     22  C   UNL     1      -2.977   9.870  16.871  0.00  0.00    +0.000 A 
ATOM     23  C   UNL     1      -3.924  10.622  17.555  0.00  0.00    +0.000 A 
ATOM     24  C   UNL     1      -3.521  11.476  18.583  0.00  0.00    +0.000 A 
ATOM     25  C   UNL     1      -2.165  11.597  18.922  0.00  0.00    +0.000 A 
ATOM     26 BR   UNL     1      -1.746  12.859  20.278  0.00  0.00    +0.000 Br
ENDBRANCH  18  20
ENDBRANCH   4  18
TORSDOF 5
ENDMDL
MODEL 5
REMARK VINA RESULT:      -7.9      5.327      7.659
REMARK  Name = 
REMARK  5 active torsions:
REMARK  status: ('A' for Active; 'I' for Inactive)
REMARK    1  A    between atoms: N_1  and  C_2
REMARK    2  A    between atoms: C_7  and  N_8
REMARK    3  A    between atoms: N_8  and  C_9
REMARK    4  A    between atoms: C_12  and  C_13
REMARK    5  A    between atoms: C_13  and  C_15
REMARK                            x       y       z     vdW  Elec       q    Type
REMARK                         _______ _______ _______ _____ _____    ______ ____
ROOT
ATOM      1  C   UNL     1       2.277   7.386  19.663  0.00  0.00    +0.000 A 
ATOM      2  C   UNL     1       2.273   7.856  18.348  0.00  0.00    +0.000 A 
ATOM      3  C   UNL     1       1.551   9.009  18.005  0.00  0.00    +0.000 A 
ATOM      4  C   UNL     1       0.804   9.697  18.971  0.00  0.00    +0.000 A 
ATOM      5  C   UNL     1       0.742   9.191  20.269  0.00  0.00    +0.000 A 
ATOM      6  C   UNL     1       1.474   8.053  20.607  0.00  0.00    +0.000 A 
ENDROOT
BRANCH   1   7
ATOM      7  N   UNL     1       2.985   6.220  20.020  0.00  0.00    +0.000 N 
ATOM      8  H   UNL     1       3.521   6.290  20.880  0.00  0.00    +0.000 HD
BRANCH   7  14
ATOM      9  C   UNL     1       2.949   4.144  18.728  0.00  0.00    +0.000 A 
ATOM     10  C   UNL     1       2.488   2.835  18.558  0.00  0.00    +0.000 A 
ATOM     11  C   UNL     1       1.566   2.284  19.451  0.00  0.00    +0.000 A 
ATOM     12  C   UNL     1       1.154   3.009  20.565  0.00  0.00    +0.000 A 
ATOM     13  C   UNL     1       1.645   4.296  20.772  0.00  0.00    +0.000 A 
ATOM     14  C   UNL     1       2.513   4.890  19.844  0.00  0.00    +0.000 A 
BRANCH   9  15
ATOM     15  N   UNL     1       3.975   4.644  17.898  0.00  0.00    +0.000 N 
ATOM     16  H   UNL     1       3.647   5.354  17.250  0.00  0.00    +0.000 HD
ATOM     17  H   UNL     1       4.755   4.973  18.466  0.00  0.00    +0.000 HD
ENDBRANCH   9  15
ENDBRANCH   7  14
ENDBRANCH   1   7
BRANCH   4  18
ATOM     18  C   UNL     1       0.095  10.953  18.578  0.00  0.00    +0.000 C 
ATOM     19  O   UNL     1       0.708  12.012  18.634  0.00  0.00    +0.000 OA
BRANCH  18  20
ATOM     20  C   UNL     1      -1.351  10.946  18.215  0.00  0.00    +0.000 A 
ATOM     21  C   UNL     1      -1.775  10.115  17.161  0.00  0.00    +0.000 A 
ATOM     22  C   UNL     1      -3.118  10.060  16.787  0.00  0.00    +0.000 A 
ATOM     23  C   UNL     1      -4.064  10.798  17.487  0.00  0.00    +0.000 A 
ATOM     24  C   UNL     1      -3.665  11.603  18.556  0.00  0.00    +0.000 A 
ATOM     25  C   UNL     1      -2.313  11.690  18.919  0.00  0.00    +0.000 A 
ATOM     26 BR   UNL     1      -1.895  12.889  20.331  0.00  0.00    +0.000 Br
ENDBRANCH  18  20
ENDBRANCH   4  18
TORSDOF 5
ENDMDL
MODEL 6
REMARK VINA RESULT:      -7.9      5.260      7.849
REMARK  Name = 
REMARK  5 active torsions:
REMARK  status: ('A' for Active; 'I' for Inactive)
REMARK    1  A    between atoms: N_1  and  C_2
REMARK    2  A    between atoms: C_7  and  N_8
REMARK    3  A    between atoms: N_8  and  C_9
REMARK    4  A    between atoms: C_12  and  C_13
REMARK    5  A    between atoms: C_13  and  C_15
REMARK                            x       y       z     vdW  Elec       q    Type
REMARK                         _______ _______ _______ _____ _____    ______ ____
ROOT
ATOM      1  C   UNL     1       1.210   9.567  18.754  0.00  0.00    +0.000 A 
ATOM      2  C   UNL     1       1.178   8.922  19.992  0.00  0.00    +0.000 A 
ATOM      3  C   UNL     1       1.833   7.695  20.173  0.00  0.00    +0.000 A 
ATOM      4  C   UNL     1       2.512   7.085  19.110  0.00  0.00    +0.000 A 
ATOM      5  C   UNL     1       2.485   7.686  17.852  0.00  0.00    +0.000 A 
ATOM      6  C   UNL     1       1.845   8.913  17.682  0.00  0.00    +0.000 A 
ENDROOT
BRANCH   1   7
ATOM      7  N   UNL     1       0.543  10.794  18.551  0.00  0.00    +0.000 N 
ATOM      8  H   UNL     1       1.027  11.450  17.945  0.00  0.00    +0.000 HD
BRANCH   7  14
ATOM      9  C   UNL     1      -1.530  11.923  19.190  0.00  0.00    +0.000 A 
ATOM     10  C   UNL     1      -2.913  12.076  19.054  0.00  0.00    +0.000 A 
ATOM     11  C   UNL     1      -3.641  11.243  18.202  0.00  0.00    +0.000 A 
ATOM     12  C   UNL     1      -2.982  10.297  17.420  0.00  0.00    +0.000 A 
ATOM     13  C   UNL     1      -1.598  10.169  17.510  0.00  0.00    +0.000 A 
ATOM     14  C   UNL     1      -0.864  10.948  18.417  0.00  0.00    +0.000 A 
BRANCH   9  15
ATOM     15  N   UNL     1      -0.788  12.851  19.952  0.00  0.00    +0.000 N 
ATOM     16  H   UNL     1       0.068  12.458  20.328  0.00  0.00    +0.000 HD
ATOM     17  H   UNL     1      -0.616  13.694  19.404  0.00  0.00    +0.000 HD
ENDBRANCH   9  15
ENDBRANCH   7  14
ENDBRANCH   1   7
BRANCH   4  18
ATOM     18  C   UNL     1       3.245   5.805  19.359  0.00  0.00    +0.000 C 
ATOM     19  O   UNL     1       4.430   5.861  19.664  0.00  0.00    +0.000 OA
BRANCH  18  20
ATOM     20  C   UNL     1       2.589   4.483  19.153  0.00  0.00    +0.000 A 
ATOM     21  C   UNL     1       1.555   4.102  20.030  0.00  0.00    +0.000 A 
ATOM     22  C   UNL     1       0.898   2.881  19.876  0.00  0.00    +0.000 A 
ATOM     23  C   UNL     1       1.230   2.042  18.820  0.00  0.00    +0.000 A 
ATOM     24  C   UNL     1       2.232   2.419  17.923  0.00  0.00    +0.000 A 
ATOM     25  C   UNL     1       2.921   3.630  18.088  0.00  0.00    +0.000 A 
ATOM     26 BR   UNL     1       4.319   3.979  16.851  0.00  0.00    +0.000 Br
ENDBRANCH  18  20
ENDBRANCH   4  18
TORSDOF 5
ENDMDL
MODEL 7
REMARK VINA RESULT:      -7.8      5.438      7.460
REMARK  Name = 
REMARK  5 active torsions:
REMARK  status: ('A' for Active; 'I' for Inactive)
REMARK    1  A    between atoms: N_1  and  C_2
REMARK    2  A    between atoms: C_7  and  N_8
REMARK    3  A    between atoms: N_8  and  C_9
REMARK    4  A    between atoms: C_12  and  C_13
REMARK    5  A    between atoms: C_13  and  C_15
REMARK                            x       y       z     vdW  Elec       q    Type
REMARK                         _______ _______ _______ _____ _____    ______ ____
ROOT
ATOM      1  C   UNL     1       2.211   7.107  19.678  0.00  0.00    +0.000 A 
ATOM      2  C   UNL     1       1.507   7.843  20.633  0.00  0.00    +0.000 A 
ATOM      3  C   UNL     1       0.902   9.060  20.289  0.00  0.00    +0.000 A 
ATOM      4  C   UNL     1       1.011   9.570  18.988  0.00  0.00    +0.000 A 
ATOM      5  C   UNL     1       1.775   8.878  18.049  0.00  0.00    +0.000 A 
ATOM      6  C   UNL     1       2.362   7.660  18.393  0.00  0.00    +0.000 A 
ENDROOT
BRANCH   1   7
ATOM      7  N   UNL     1       2.838   5.888  20.011  0.00  0.00    +0.000 N 
ATOM      8  H   UNL     1       2.853   5.670  21.003  0.00  0.00    +0.000 HD
BRANCH   7  14
ATOM      9  C   UNL     1       1.745   3.752  19.538  0.00  0.00    +0.000 A 
ATOM     10  C   UNL     1       1.665   2.577  18.784  0.00  0.00    +0.000 A 
ATOM     11  C   UNL     1       2.605   2.306  17.787  0.00  0.00    +0.000 A 
ATOM     12  C   UNL     1       3.590   3.242  17.482  0.00  0.00    +0.000 A 
ATOM     13  C   UNL     1       3.650   4.438  18.194  0.00  0.00    +0.000 A 
ATOM     14  C   UNL     1       2.758   4.691  19.248  0.00  0.00    +0.000 A 
BRANCH   9  15
ATOM     15  N   UNL     1       0.719   4.076  20.451  0.00  0.00    +0.000 N 
ATOM     16  H   UNL     1       0.792   3.564  21.324  0.00  0.00    +0.000 HD
ATOM     17  H   UNL     1       0.688   5.085  20.598  0.00  0.00    +0.000 HD
ENDBRANCH   9  15
ENDBRANCH   7  14
ENDBRANCH   1   7
BRANCH   4  18
ATOM     18  C   UNL     1       0.303  10.843  18.648  0.00  0.00    +0.000 C 
ATOM     19  O   UNL     1       0.920  11.898  18.741  0.00  0.00    +0.000 OA
BRANCH  18  20
ATOM     20  C   UNL     1      -1.145  10.854  18.295  0.00  0.00    +0.000 A 
ATOM     21  C   UNL     1      -1.582  10.043  17.230  0.00  0.00    +0.000 A 
ATOM     22  C   UNL     1      -2.928  10.005  16.864  0.00  0.00    +0.000 A 
ATOM     23  C   UNL     1      -3.864  10.739  17.583  0.00  0.00    +0.000 A 
ATOM     24  C   UNL     1      -3.451  11.523  18.661  0.00  0.00    +0.000 A 
ATOM     25  C   UNL     1      -2.096  11.593  19.017  0.00  0.00    +0.000 A 
ATOM     26 BR   UNL     1      -1.660  12.766  20.445  0.00  0.00    +0.000 Br
ENDBRANCH  18  20
ENDBRANCH   4  18
TORSDOF 5
ENDMDL
MODEL 8
REMARK VINA RESULT:      -7.8      5.612      7.848
REMARK  Name = 
REMARK  5 active torsions:
REMARK  status: ('A' for Active; 'I' for Inactive)
REMARK    1  A    between atoms: N_1  and  C_2
REMARK    2  A    between atoms: C_7  and  N_8
REMARK    3  A    between atoms: N_8  and  C_9
REMARK    4  A    between atoms: C_12  and  C_13
REMARK    5  A    between atoms: C_13  and  C_15
REMARK                            x       y       z     vdW  Elec       q    Type
REMARK                         _______ _______ _______ _____ _____    ______ ____
ROOT
ATOM      1  C   UNL     1       1.966   7.869  19.705  0.00  0.00    +0.000 A 
ATOM      2  C   UNL     1       2.012   8.445  18.434  0.00  0.00    +0.000 A 
ATOM      3  C   UNL     1       1.340   9.647  18.172  0.00  0.00    +0.000 A 
ATOM      4  C   UNL     1       0.592  10.280  19.175  0.00  0.00    +0.000 A 
ATOM      5  C   UNL     1       0.480   9.672  20.425  0.00  0.00    +0.000 A 
ATOM      6  C   UNL     1       1.163   8.484  20.683  0.00  0.00    +0.000 A 
ENDROOT
BRANCH   1   7
ATOM      7  N   UNL     1       2.624   6.651  19.980  0.00  0.00    +0.000 N 
ATOM      8  H   UNL     1       3.121   6.623  20.865  0.00  0.00    +0.000 HD
BRANCH   7  14
ATOM      9  C   UNL     1       2.475   4.772  18.423  0.00  0.00    +0.000 A 
ATOM     10  C   UNL     1       1.986   3.500  18.108  0.00  0.00    +0.000 A 
ATOM     11  C   UNL     1       1.119   2.835  18.978  0.00  0.00    +0.000 A 
ATOM     12  C   UNL     1       0.793   3.403  20.207  0.00  0.00    +0.000 A 
ATOM     13  C   UNL     1       1.313   4.648  20.553  0.00  0.00    +0.000 A 
ATOM     14  C   UNL     1       2.124   5.360  19.656  0.00  0.00    +0.000 A 
BRANCH   9  15
ATOM     15  N   UNL     1       3.449   5.377  17.600  0.00  0.00    +0.000 N 
ATOM     16  H   UNL     1       3.071   5.703  16.716  0.00  0.00    +0.000 HD
ATOM     17  H   UNL     1       3.926   6.119  18.112  0.00  0.00    +0.000 HD
ENDBRANCH   9  15
ENDBRANCH   7  14
ENDBRANCH   1   7
BRANCH   4  18
ATOM     18  C   UNL     1      -0.063  11.590  18.871  0.00  0.00    +0.000 C 
ATOM     19  O   UNL     1       0.636  12.515  18.474  0.00  0.00    +0.000 OA
BRANCH  18  20
ATOM     20  C   UNL     1      -1.514  11.810  19.132  0.00  0.00    +0.000 A 
ATOM     21  C   UNL     1      -1.886  12.605  20.232  0.00  0.00    +0.000 A 
ATOM     22  C   UNL     1      -3.229  12.854  20.515  0.00  0.00    +0.000 A 
ATOM     23  C   UNL     1      -4.219  12.351  19.681  0.00  0.00    +0.000 A 
ATOM     24  C   UNL     1      -3.866  11.587  18.568  0.00  0.00    +0.000 A 
ATOM     25  C   UNL     1      -2.520  11.304  18.292  0.00  0.00    +0.000 A 
ATOM     26 BR   UNL     1      -2.183  10.179  16.799  0.00  0.00    +0.000 Br
ENDBRANCH  18  20
ENDBRANCH   4  18
TORSDOF 5
ENDMDL
MODEL 9
REMARK VINA RESULT:      -7.7      5.355      7.420
REMARK  Name = 
REMARK  5 active torsions:
REMARK  status: ('A' for Active; 'I' for Inactive)
REMARK    1  A    between atoms: N_1  and  C_2
REMARK    2  A    between atoms: C_7  and  N_8
REMARK    3  A    between atoms: N_8  and  C_9
REMARK    4  A    between atoms: C_12  and  C_13
REMARK    5  A    between atoms: C_13  and  C_15
REMARK                            x       y       z     vdW  Elec       q    Type
REMARK                         _______ _______ _______ _____ _____    ______ ____
ROOT
ATOM      1  C   UNL     1       2.386   6.971  19.679  0.00  0.00    +0.000 A 
ATOM      2  C   UNL     1       2.436   7.458  18.372  0.00  0.00    +0.000 A 
ATOM      3  C   UNL     1       1.812   8.669  18.038  0.00  0.00    +0.000 A 
ATOM      4  C   UNL     1       1.109   9.400  19.005  0.00  0.00    +0.000 A 
ATOM      5  C   UNL     1       0.991   8.882  20.295  0.00  0.00    +0.000 A 
ATOM      6  C   UNL     1       1.627   7.685  20.624  0.00  0.00    +0.000 A 
ENDROOT
BRANCH   1   7
ATOM      7  N   UNL     1       2.996   5.747  20.027  0.00  0.00    +0.000 N 
ATOM      8  H   UNL     1       3.017   5.547  21.023  0.00  0.00    +0.000 HD
BRANCH   7  14
ATOM      9  C   UNL     1       1.811   3.663  19.545  0.00  0.00    +0.000 A 
ATOM     10  C   UNL     1       1.702   2.477  18.812  0.00  0.00    +0.000 A 
ATOM     11  C   UNL     1       2.672   2.132  17.869  0.00  0.00    +0.000 A 
ATOM     12  C   UNL     1       3.721   3.007  17.594  0.00  0.00    +0.000 A 
ATOM     13  C   UNL     1       3.812   4.214  18.283  0.00  0.00    +0.000 A 
ATOM     14  C   UNL     1       2.886   4.539  19.286  0.00  0.00    +0.000 A 
BRANCH   9  15
ATOM     15  N   UNL     1       0.761   4.063  20.400  0.00  0.00    +0.000 N 
ATOM     16  H   UNL     1       1.048   4.133  21.371  0.00  0.00    +0.000 HD
ATOM     17  H   UNL     1       0.343   4.928  20.058  0.00  0.00    +0.000 HD
ENDBRANCH   9  15
ENDBRANCH   7  14
ENDBRANCH   1   7
BRANCH   4  18
ATOM     18  C   UNL     1       0.506  10.714  18.623  0.00  0.00    +0.000 C 
ATOM     19  O   UNL     1       1.227  11.704  18.603  0.00  0.00    +0.000 OA
BRANCH  18  20
ATOM     20  C   UNL     1      -0.955  10.850  18.361  0.00  0.00    +0.000 A 
ATOM     21  C   UNL     1      -1.534  10.055  17.354  0.00  0.00    +0.000 A 
ATOM     22  C   UNL     1      -2.898  10.132  17.075  0.00  0.00    +0.000 A 
ATOM     23  C   UNL     1      -3.714  10.969  17.826  0.00  0.00    +0.000 A 
ATOM     24  C   UNL     1      -3.162  11.740  18.849  0.00  0.00    +0.000 A 
ATOM     25  C   UNL     1      -1.785  11.694  19.117  0.00  0.00    +0.000 A 
ATOM     26 BR   UNL     1      -1.151  12.860  20.475  0.00  0.00    +0.000 Br
ENDBRANCH  18  20
ENDBRANCH   4  18
TORSDOF 5
ENDMDL
