MODEL 1
REMARK VINA RESULT:      -6.9      0.000      0.000
REMARK  Name = 
REMARK  5 active torsions:
REMARK  status: ('A' for Active; 'I' for Inactive)
REMARK    1  A    between atoms: C_1  and  C_2
REMARK    2  A    between atoms: C_2  and  C_3
REMARK    3  A    between atoms: C_7  and  C_8
REMARK    4  A    between atoms: C_8  and  O_9
REMARK    5  A    between atoms: C_10  and  N_11
REMARK                            x       y       z     vdW  Elec       q    Type
REMARK                         _______ _______ _______ _____ _____    ______ ____
ROOT
ATOM      1  C   UNL     1       3.436   2.019  18.925  0.00  0.00    +0.000 C 
ATOM      2  C   UNL     1       3.470   3.304  18.112  0.00  0.00    +0.000 C 
ATOM      3  C   UNL     1       2.191   3.464  17.292  0.00  0.00    +0.000 C 
ATOM      4  O   UNL     1       3.597   4.418  18.990  0.00  0.00    +0.000 OA
ATOM      5  C   UNL     1       4.426   5.359  18.316  0.00  0.00    +0.000 C 
ATOM      6  O   UNL     1       5.464   5.831  19.180  0.00  0.00    +0.000 OA
ATOM      7  C   UNL     1       6.610   4.995  18.921  0.00  0.00    +0.000 C 
ATOM      8  C   UNL     1       6.564   4.670  17.425  0.00  0.00    +0.000 C 
ATOM      9  C   UNL     1       5.069   4.607  17.162  0.00  0.00    +0.000 C 
ATOM     10  O   UNL     1       4.596   3.262  17.233  0.00  0.00    +0.000 OA
ENDROOT
BRANCH   8  11
ATOM     11  N   UNL     1       7.145   5.775  16.632  0.00  0.00    +0.000 NA
ATOM     12  N   UNL     1       7.384   5.544  15.430  0.00  0.00    +0.000 NA
ATOM     13  N   UNL     1       7.605   5.353  14.334  0.00  0.00    +0.000 NA
ENDBRANCH   8  11
BRANCH   7  14
ATOM     14  C   UNL     1       7.887   5.701  19.361  0.00  0.00    +0.000 C 
BRANCH  14  15
ATOM     15  O   UNL     1       8.195   5.396  20.719  0.00  0.00    +0.000 OA
ATOM     16  H   UNL     1       8.945   5.974  20.956  0.00  0.00    +0.000 HD
ENDBRANCH  14  15
ENDBRANCH   7  14
TORSDOF 3
ENDMDL
MODEL 2
REMARK VINA RESULT:      -6.7      1.366      1.418
REMARK  Name = 
REMARK  5 active torsions:
REMARK  status: ('A' for Active; 'I' for Inactive)
REMARK    1  A    between atoms: C_1  and  C_2
REMARK    2  A    between atoms: C_2  and  C_3
REMARK    3  A    between atoms: C_7  and  C_8
REMARK    4  A    between atoms: C_8  and  O_9
REMARK    5  A    between atoms: C_10  and  N_11
REMARK                            x       y       z     vdW  Elec       q    Type
REMARK                         _______ _______ _______ _____ _____    ______ ____
ROOT
ATOM      1  C   UNL     1       2.667   1.983  19.275  0.00  0.00    +0.000 C 
ATOM      2  C   UNL     1       2.627   3.406  18.741  0.00  0.00    +0.000 C 
ATOM      3  C   UNL     1       1.188   3.902  18.617  0.00  0.00    +0.000 C 
ATOM      4  O   UNL     1       3.337   4.267  19.627  0.00  0.00    +0.000 OA
ATOM      5  C   UNL     1       3.988   5.230  18.805  0.00  0.00    +0.000 C 
ATOM      6  O   UNL     1       5.364   5.363  19.172  0.00  0.00    +0.000 OA
ATOM      7  C   UNL     1       6.097   4.477  18.303  0.00  0.00    +0.000 C 
ATOM      8  C   UNL     1       5.368   4.511  16.956  0.00  0.00    +0.000 C 
ATOM      9  C   UNL     1       3.921   4.690  17.386  0.00  0.00    +0.000 C 
ATOM     10  O   UNL     1       3.252   3.431  17.456  0.00  0.00    +0.000 OA
ENDROOT
BRANCH   8  11
ATOM     11  N   UNL     1       5.784   5.690  16.166  0.00  0.00    +0.000 NA
ATOM     12  N   UNL     1       6.639   5.503  15.277  0.00  0.00    +0.000 NA
ATOM     13  N   UNL     1       7.413   5.350  14.462  0.00  0.00    +0.000 NA
ENDBRANCH   8  11
BRANCH   7  14
ATOM     14  C   UNL     1       7.558   4.904  18.225  0.00  0.00    +0.000 C 
BRANCH  14  15
ATOM     15  O   UNL     1       8.261   4.140  17.249  0.00  0.00    +0.000 OA
ATOM     16  H   UNL     1       7.627   3.468  16.933  0.00  0.00    +0.000 HD
ENDBRANCH  14  15
ENDBRANCH   7  14
TORSDOF 3
ENDMDL
MODEL 3
REMARK VINA RESULT:      -6.5      3.464      5.340
REMARK  Name = 
REMARK  5 active torsions:
REMARK  status: ('A' for Active; 'I' for Inactive)
REMARK    1  A    between atoms: C_1  and  C_2
REMARK    2  A    between atoms: C_2  and  C_3
REMARK    3  A    between atoms: C_7  and  C_8
REMARK    4  A    between atoms: C_8  and  O_9
REMARK    5  A    between atoms: C_10  and  N_11
REMARK                            x       y       z     vdW  Elec       q    Type
REMARK                         _______ _______ _______ _____ _____    ______ ____
ROOT
ATOM      1  C   UNL     1       7.088   4.279  16.670  0.00  0.00    +0.000 C 
ATOM      2  C   UNL     1       6.475   5.175  17.735  0.00  0.00    +0.000 C 
ATOM      3  C   UNL     1       7.510   6.158  18.280  0.00  0.00    +0.000 C 
ATOM      4  O   UNL     1       5.393   5.911  17.172  0.00  0.00    +0.000 OA
ATOM      5  C   UNL     1       4.410   6.014  18.197  0.00  0.00    +0.000 C 
ATOM      6  O   UNL     1       3.118   5.656  17.698  0.00  0.00    +0.000 OA
ATOM      7  C   UNL     1       2.945   4.258  18.002  0.00  0.00    +0.000 C 
ATOM      8  C   UNL     1       3.645   4.030  19.345  0.00  0.00    +0.000 C 
ATOM      9  C   UNL     1       4.806   5.008  19.265  0.00  0.00    +0.000 C 
ATOM     10  O   UNL     1       5.989   4.357  18.800  0.00  0.00    +0.000 OA
ENDROOT
BRANCH   8  11
ATOM     11  N   UNL     1       2.765   4.420  20.467  0.00  0.00    +0.000 NA
ATOM     12  N   UNL     1       2.403   3.514  21.245  0.00  0.00    +0.000 NA
ATOM     13  N   UNL     1       2.068   2.704  21.964  0.00  0.00    +0.000 NA
ENDBRANCH   8  11
BRANCH   7  14
ATOM     14  C   UNL     1       1.463   3.899  18.009  0.00  0.00    +0.000 C 
BRANCH  14  15
ATOM     15  O   UNL     1       1.235   2.694  18.736  0.00  0.00    +0.000 OA
ATOM     16  H   UNL     1       1.774   2.012  18.292  0.00  0.00    +0.000 HD
ENDBRANCH  14  15
ENDBRANCH   7  14
TORSDOF 3
ENDMDL
MODEL 4
REMARK VINA RESULT:      -6.4      3.358      4.995
REMARK  Name = 
REMARK  5 active torsions:
REMARK  status: ('A' for Active; 'I' for Inactive)
REMARK    1  A    between atoms: C_1  and  C_2
REMARK    2  A    between atoms: C_2  and  C_3
REMARK    3  A    between atoms: C_7  and  C_8
REMARK    4  A    between atoms: C_8  and  O_9
REMARK    5  A    between atoms: C_10  and  N_11
REMARK                            x       y       z     vdW  Elec       q    Type
REMARK                         _______ _______ _______ _____ _____    ______ ____
ROOT
ATOM      1  C   UNL     1       5.823   5.279  15.248  0.00  0.00    +0.000 C 
ATOM      2  C   UNL     1       5.720   5.523  16.746  0.00  0.00    +0.000 C 
ATOM      3  C   UNL     1       6.786   6.514  17.211  0.00  0.00    +0.000 C 
ATOM      4  O   UNL     1       4.433   6.052  17.054  0.00  0.00    +0.000 OA
ATOM      5  C   UNL     1       4.068   5.494  18.311  0.00  0.00    +0.000 C 
ATOM      6  O   UNL     1       2.739   4.967  18.265  0.00  0.00    +0.000 OA
ATOM      7  C   UNL     1       2.876   3.566  17.952  0.00  0.00    +0.000 C 
ATOM      8  C   UNL     1       4.159   3.103  18.649  0.00  0.00    +0.000 C 
ATOM      9  C   UNL     1       5.031   4.345  18.561  0.00  0.00    +0.000 C 
ATOM     10  O   UNL     1       5.896   4.280  17.427  0.00  0.00    +0.000 OA
ENDROOT
BRANCH   8  11
ATOM     11  N   UNL     1       3.900   2.797  20.072  0.00  0.00    +0.000 NA
ATOM     12  N   UNL     1       4.699   2.025  20.639  0.00  0.00    +0.000 NA
ATOM     13  N   UNL     1       5.417   1.328  21.172  0.00  0.00    +0.000 NA
ENDBRANCH   8  11
BRANCH   7  14
ATOM     14  C   UNL     1       1.628   2.805  18.386  0.00  0.00    +0.000 C 
BRANCH  14  15
ATOM     15  O   UNL     1       1.908   1.416  18.542  0.00  0.00    +0.000 OA
ATOM     16  H   UNL     1       2.823   1.294  18.226  0.00  0.00    +0.000 HD
ENDBRANCH  14  15
ENDBRANCH   7  14
TORSDOF 3
ENDMDL
MODEL 5
REMARK VINA RESULT:      -6.4      2.644      3.652
REMARK  Name = 
REMARK  5 active torsions:
REMARK  status: ('A' for Active; 'I' for Inactive)
REMARK    1  A    between atoms: C_1  and  C_2
REMARK    2  A    between atoms: C_2  and  C_3
REMARK    3  A    between atoms: C_7  and  C_8
REMARK    4  A    between atoms: C_8  and  O_9
REMARK    5  A    between atoms: C_10  and  N_11
REMARK                            x       y       z     vdW  Elec       q    Type
REMARK                         _______ _______ _______ _____ _____    ______ ____
ROOT
ATOM      1  C   UNL     1       0.731   4.117  20.181  0.00  0.00    +0.000 C 
ATOM      2  C   UNL     1       2.018   3.329  20.375  0.00  0.00    +0.000 C 
ATOM      3  C   UNL     1       1.959   2.496  21.655  0.00  0.00    +0.000 C 
ATOM      4  O   UNL     1       2.213   2.457  19.266  0.00  0.00    +0.000 OA
ATOM      5  C   UNL     1       3.616   2.425  19.030  0.00  0.00    +0.000 C 
ATOM      6  O   UNL     1       3.902   2.628  17.644  0.00  0.00    +0.000 OA
ATOM      7  C   UNL     1       4.149   4.040  17.490  0.00  0.00    +0.000 C 
ATOM      8  C   UNL     1       4.849   4.487  18.776  0.00  0.00    +0.000 C 
ATOM      9  C   UNL     1       4.204   3.586  19.816  0.00  0.00    +0.000 C 
ATOM     10  O   UNL     1       3.110   4.246  20.454  0.00  0.00    +0.000 OA
ENDROOT
BRANCH   8  11
ATOM     11  N   UNL     1       6.296   4.190  18.715  0.00  0.00    +0.000 NA
ATOM     12  N   UNL     1       7.078   5.153  18.849  0.00  0.00    +0.000 NA
ATOM     13  N   UNL     1       7.804   6.016  18.973  0.00  0.00    +0.000 NA
ENDBRANCH   8  11
BRANCH   7  14
ATOM     14  C   UNL     1       4.959   4.298  16.224  0.00  0.00    +0.000 C 
BRANCH  14  15
ATOM     15  O   UNL     1       5.989   3.325  16.071  0.00  0.00    +0.000 OA
ATOM     16  H   UNL     1       6.759   3.677  16.556  0.00  0.00    +0.000 HD
ENDBRANCH  14  15
ENDBRANCH   7  14
TORSDOF 3
ENDMDL
MODEL 6
REMARK VINA RESULT:      -6.4      2.167      3.457
REMARK  Name = 
REMARK  5 active torsions:
REMARK  status: ('A' for Active; 'I' for Inactive)
REMARK    1  A    between atoms: C_1  and  C_2
REMARK    2  A    between atoms: C_2  and  C_3
REMARK    3  A    between atoms: C_7  and  C_8
REMARK    4  A    between atoms: C_8  and  O_9
REMARK    5  A    between atoms: C_10  and  N_11
REMARK                            x       y       z     vdW  Elec       q    Type
REMARK                         _______ _______ _______ _____ _____    ______ ____
ROOT
ATOM      1  C   UNL     1       1.851   4.733  17.789  0.00  0.00    +0.000 C 
ATOM      2  C   UNL     1       3.267   4.779  18.344  0.00  0.00    +0.000 C 
ATOM      3  C   UNL     1       3.253   4.791  19.872  0.00  0.00    +0.000 C 
ATOM      4  O   UNL     1       3.989   3.634  17.899  0.00  0.00    +0.000 OA
ATOM      5  C   UNL     1       5.325   4.073  17.674  0.00  0.00    +0.000 C 
ATOM      6  O   UNL     1       5.796   3.629  16.399  0.00  0.00    +0.000 OA
ATOM      7  C   UNL     1       5.539   4.709  15.480  0.00  0.00    +0.000 C 
ATOM      8  C   UNL     1       5.748   5.999  16.278  0.00  0.00    +0.000 C 
ATOM      9  C   UNL     1       5.275   5.592  17.664  0.00  0.00    +0.000 C 
ATOM     10  O   UNL     1       3.910   5.961  17.865  0.00  0.00    +0.000 OA
ENDROOT
BRANCH   8  11
ATOM     11  N   UNL     1       7.183   6.348  16.343  0.00  0.00    +0.000 NA
ATOM     12  N   UNL     1       7.481   7.416  16.915  0.00  0.00    +0.000 NA
ATOM     13  N   UNL     1       7.771   8.381  17.435  0.00  0.00    +0.000 NA
ENDBRANCH   8  11
BRANCH   7  14
ATOM     14  C   UNL     1       6.442   4.586  14.257  0.00  0.00    +0.000 C 
BRANCH  14  15
ATOM     15  O   UNL     1       6.280   3.316  13.631  0.00  0.00    +0.000 OA
ATOM     16  H   UNL     1       6.083   2.689  14.353  0.00  0.00    +0.000 HD
ENDBRANCH  14  15
ENDBRANCH   7  14
TORSDOF 3
ENDMDL
MODEL 7
REMARK VINA RESULT:      -6.4      1.977      2.187
REMARK  Name = 
REMARK  5 active torsions:
REMARK  status: ('A' for Active; 'I' for Inactive)
REMARK    1  A    between atoms: C_1  and  C_2
REMARK    2  A    between atoms: C_2  and  C_3
REMARK    3  A    between atoms: C_7  and  C_8
REMARK    4  A    between atoms: C_8  and  O_9
REMARK    5  A    between atoms: C_10  and  N_11
REMARK                            x       y       z     vdW  Elec       q    Type
REMARK                         _______ _______ _______ _____ _____    ______ ____
ROOT
ATOM      1  C   UNL     1       2.648   2.538  21.330  0.00  0.00    +0.000 C 
ATOM      2  C   UNL     1       2.366   3.564  20.243  0.00  0.00    +0.000 C 
ATOM      3  C   UNL     1       0.866   3.825  20.116  0.00  0.00    +0.000 C 
ATOM      4  O   UNL     1       3.021   4.788  20.563  0.00  0.00    +0.000 OA
ATOM      5  C   UNL     1       3.460   5.337  19.325  0.00  0.00    +0.000 C 
ATOM      6  O   UNL     1       4.830   5.739  19.406  0.00  0.00    +0.000 OA
ATOM      7  C   UNL     1       5.603   4.627  18.914  0.00  0.00    +0.000 C 
ATOM      8  C   UNL     1       4.766   3.993  17.800  0.00  0.00    +0.000 C 
ATOM      9  C   UNL     1       3.350   4.217  18.303  0.00  0.00    +0.000 C 
ATOM     10  O   UNL     1       2.870   3.068  19.002  0.00  0.00    +0.000 OA
ENDROOT
BRANCH   8  11
ATOM     11  N   UNL     1       4.945   4.727  16.529  0.00  0.00    +0.000 NA
ATOM     12  N   UNL     1       5.630   4.173  15.646  0.00  0.00    +0.000 NA
ATOM     13  N   UNL     1       6.247   3.681  14.831  0.00  0.00    +0.000 NA
ENDBRANCH   8  11
BRANCH   7  14
ATOM     14  C   UNL     1       6.979   5.101  18.460  0.00  0.00    +0.000 C 
BRANCH  14  15
ATOM     15  O   UNL     1       7.683   4.057  17.792  0.00  0.00    +0.000 OA
ATOM     16  H   UNL     1       7.239   3.950  16.929  0.00  0.00    +0.000 HD
ENDBRANCH  14  15
ENDBRANCH   7  14
TORSDOF 3
ENDMDL
MODEL 8
REMARK VINA RESULT:      -6.4      2.631      3.337
REMARK  Name = 
REMARK  5 active torsions:
REMARK  status: ('A' for Active; 'I' for Inactive)
REMARK    1  A    between atoms: C_1  and  C_2
REMARK    2  A    between atoms: C_2  and  C_3
REMARK    3  A    between atoms: C_7  and  C_8
REMARK    4  A    between atoms: C_8  and  O_9
REMARK    5  A    between atoms: C_10  and  N_11
REMARK                            x       y       z     vdW  Elec       q    Type
REMARK                         _______ _______ _______ _____ _____    ______ ____
ROOT
ATOM      1  C   UNL     1       0.892   4.051  19.805  0.00  0.00    +0.000 C 
ATOM      2  C   UNL     1       2.129   3.321  19.305  0.00  0.00    +0.000 C 
ATOM      3  C   UNL     1       1.984   1.812  19.494  0.00  0.00    +0.000 C 
ATOM      4  O   UNL     1       2.316   3.596  17.919  0.00  0.00    +0.000 OA
ATOM      5  C   UNL     1       3.723   3.672  17.718  0.00  0.00    +0.000 C 
ATOM      6  O   UNL     1       4.066   4.844  16.975  0.00  0.00    +0.000 OA
ATOM      7  C   UNL     1       4.391   5.855  17.950  0.00  0.00    +0.000 C 
ATOM      8  C   UNL     1       5.069   5.119  19.109  0.00  0.00    +0.000 C 
ATOM      9  C   UNL     1       4.343   3.783  19.102  0.00  0.00    +0.000 C 
ATOM     10  O   UNL     1       3.264   3.785  20.037  0.00  0.00    +0.000 OA
ENDROOT
BRANCH   8  11
ATOM     11  N   UNL     1       6.500   4.889  18.817  0.00  0.00    +0.000 NA
ATOM     12  N   UNL     1       7.311   5.134  19.733  0.00  0.00    +0.000 NA
ATOM     13  N   UNL     1       8.063   5.347  20.555  0.00  0.00    +0.000 NA
ENDBRANCH   8  11
BRANCH   7  14
ATOM     14  C   UNL     1       5.255   6.940  17.317  0.00  0.00    +0.000 C 
BRANCH  14  15
ATOM     15  O   UNL     1       5.935   6.443  16.167  0.00  0.00    +0.000 OA
ATOM     16  H   UNL     1       5.691   5.500  16.104  0.00  0.00    +0.000 HD
ENDBRANCH  14  15
ENDBRANCH   7  14
TORSDOF 3
ENDMDL
MODEL 9
REMARK VINA RESULT:      -6.4      2.361      3.546
REMARK  Name = 
REMARK  5 active torsions:
REMARK  status: ('A' for Active; 'I' for Inactive)
REMARK    1  A    between atoms: C_1  and  C_2
REMARK    2  A    between atoms: C_2  and  C_3
REMARK    3  A    between atoms: C_7  and  C_8
REMARK    4  A    between atoms: C_8  and  O_9
REMARK    5  A    between atoms: C_10  and  N_11
REMARK                            x       y       z     vdW  Elec       q    Type
REMARK                         _______ _______ _______ _____ _____    ______ ____
ROOT
ATOM      1  C   UNL     1       1.111   4.259  19.849  0.00  0.00    +0.000 C 
ATOM      2  C   UNL     1       2.499   3.655  19.991  0.00  0.00    +0.000 C 
ATOM      3  C   UNL     1       2.591   2.792  21.248  0.00  0.00    +0.000 C 
ATOM      4  O   UNL     1       2.785   2.847  18.854  0.00  0.00    +0.000 OA
ATOM      5  C   UNL     1       4.173   3.018  18.586  0.00  0.00    +0.000 C 
ATOM      6  O   UNL     1       4.391   3.293  17.200  0.00  0.00    +0.000 OA
ATOM      7  C   UNL     1       4.435   4.729  17.080  0.00  0.00    +0.000 C 
ATOM      8  C   UNL     1       5.098   5.238  18.363  0.00  0.00    +0.000 C 
ATOM      9  C   UNL     1       4.613   4.230  19.391  0.00  0.00    +0.000 C 
ATOM     10  O   UNL     1       3.455   4.715  20.071  0.00  0.00    +0.000 OA
ENDROOT
BRANCH   8  11
ATOM     11  N   UNL     1       6.571   5.149  18.261  0.00  0.00    +0.000 NA
ATOM     12  N   UNL     1       7.220   5.261  19.320  0.00  0.00    +0.000 NA
ATOM     13  N   UNL     1       7.825   5.356  20.274  0.00  0.00    +0.000 NA
ENDBRANCH   8  11
BRANCH   7  14
ATOM     14  C   UNL     1       5.167   5.130  15.804  0.00  0.00    +0.000 C 
BRANCH  14  15
ATOM     15  O   UNL     1       5.404   6.535  15.773  0.00  0.00    +0.000 OA
ATOM     16  H   UNL     1       6.373   6.640  15.827  0.00  0.00    +0.000 HD
ENDBRANCH  14  15
ENDBRANCH   7  14
TORSDOF 3
ENDMDL
