MODEL 1
REMARK VINA RESULT:      -5.4      0.000      0.000
REMARK  Name = 
REMARK  10 active torsions:
REMARK  status: ('A' for Active; 'I' for Inactive)
REMARK    1  A    between atoms: C_1  and  C_2
REMARK    2  A    between atoms: C_2  and  N_3
REMARK    3  A    between atoms: C_2  and  P_4
REMARK    4  A    between atoms: P_4  and  O_6
REMARK    5  A    between atoms: P_4  and  C_7
REMARK    6  A    between atoms: C_7  and  C_8
REMARK    7  A    between atoms: C_8  and  CA_9
REMARK    8  A    between atoms: CA_9  and  N_10
REMARK    9  A    between atoms: CA_9  and  C_11
REMARK   10  A    between atoms: C_11  and  OXT_13
REMARK                            x       y       z     vdW  Elec       q    Type
REMARK                         _______ _______ _______ _____ _____    ______ ____
ROOT
ATOM      1  C   UNL     1       5.022   4.389  16.737  0.00  0.00    +0.000 C 
ENDROOT
BRANCH   1   2
ATOM      2  P   UNL     1       6.433   5.067  17.684  0.00  0.00    +0.000 P 
ATOM      3  O   UNL     1       7.410   4.506  16.630  0.00  0.00    +0.000 OA
BRANCH   2   5
ATOM      4  C   UNL     1       8.038   7.234  18.387  0.00  0.00    +0.000 C 
ATOM      5  C   UNL     1       7.844   5.745  18.631  0.00  0.00    +0.000 C 
BRANCH   5   6
ATOM      6  N   UNL     1       7.579   5.490  20.077  0.00  0.00    +0.000 NA
ATOM      7  H   UNL     1       7.102   6.304  20.472  0.00  0.00    +0.000 HD
ATOM      8  H   UNL     1       8.480   5.454  20.561  0.00  0.00    +0.000 HD
ENDBRANCH   5   6
ENDBRANCH   2   5
BRANCH   2   9
ATOM      9  O   UNL     1       6.227   3.843  18.793  0.00  0.00    +0.000 OA
ATOM     10  H   UNL     1       6.886   3.943  19.525  0.00  0.00    +0.000 HD
ENDBRANCH   2   9
ENDBRANCH   1   2
BRANCH   1  11
ATOM     11  C   UNL     1       3.674   4.499  17.464  0.00  0.00    +0.000 C 
BRANCH  11  12
ATOM     12  CA  UNL     1       2.725   3.316  17.259  0.00  0.00    +0.000 C 
BRANCH  12  13
ATOM     13  N   UNL     1       1.320   3.759  17.401  0.00  0.00    +0.000 NA
ATOM     14  H1  UNL     1       0.723   2.939  17.220  0.00  0.00    +0.000 HD
ATOM     15  H2  UNL     1       1.109   4.379  16.614  0.00  0.00    +0.000 HD
ENDBRANCH  12  13
BRANCH  12  16
ATOM     16  C   UNL     1       2.998   2.245  18.335  0.00  0.00    +0.000 C 
ATOM     17  O   UNL     1       2.257   2.051  19.290  0.00  0.00    +0.000 OA
BRANCH  16  18
ATOM     18  OXT UNL     1       4.129   1.537  18.143  0.00  0.00    +0.000 OA
ATOM     19  HXT UNL     1       4.754   1.937  17.512  0.00  0.00    +0.000 HD
ENDBRANCH  16  18
ENDBRANCH  12  16
ENDBRANCH  11  12
ENDBRANCH   1  11
TORSDOF 9
ENDMDL
MODEL 2
REMARK VINA RESULT:      -5.4      2.081      2.548
REMARK  Name = 
REMARK  10 active torsions:
REMARK  status: ('A' for Active; 'I' for Inactive)
REMARK    1  A    between atoms: C_1  and  C_2
REMARK    2  A    between atoms: C_2  and  N_3
REMARK    3  A    between atoms: C_2  and  P_4
REMARK    4  A    between atoms: P_4  and  O_6
REMARK    5  A    between atoms: P_4  and  C_7
REMARK    6  A    between atoms: C_7  and  C_8
REMARK    7  A    between atoms: C_8  and  CA_9
REMARK    8  A    between atoms: CA_9  and  N_10
REMARK    9  A    between atoms: CA_9  and  C_11
REMARK   10  A    between atoms: C_11  and  OXT_13
REMARK                            x       y       z     vdW  Elec       q    Type
REMARK                         _______ _______ _______ _____ _____    ______ ____
ROOT
ATOM      1  C   UNL     1       3.799   4.831  19.567  0.00  0.00    +0.000 C 
ENDROOT
BRANCH   1   2
ATOM      2  P   UNL     1       5.313   5.112  18.579  0.00  0.00    +0.000 P 
ATOM      3  O   UNL     1       4.495   4.959  17.281  0.00  0.00    +0.000 OA
BRANCH   2   5
ATOM      4  C   UNL     1       7.429   6.769  17.839  0.00  0.00    +0.000 C 
ATOM      5  C   UNL     1       6.828   5.394  17.591  0.00  0.00    +0.000 C 
BRANCH   5   6
ATOM      6  N   UNL     1       7.807   4.329  17.957  0.00  0.00    +0.000 NA
ATOM      7  H   UNL     1       8.650   4.772  18.330  0.00  0.00    +0.000 HD
ATOM      8  H   UNL     1       8.112   3.872  17.094  0.00  0.00    +0.000 HD
ENDBRANCH   5   6
ENDBRANCH   2   5
BRANCH   2   9
ATOM      9  O   UNL     1       5.811   3.574  18.974  0.00  0.00    +0.000 OA
ATOM     10  H   UNL     1       6.657   3.619  19.487  0.00  0.00    +0.000 HD
ENDBRANCH   2   9
ENDBRANCH   1   2
BRANCH   1  11
ATOM     11  C   UNL     1       2.793   3.877  18.907  0.00  0.00    +0.000 C 
BRANCH  11  12
ATOM     12  CA  UNL     1       2.635   2.519  19.596  0.00  0.00    +0.000 C 
BRANCH  12  13
ATOM     13  N   UNL     1       1.737   1.649  18.806  0.00  0.00    +0.000 NA
ATOM     14  H1  UNL     1       0.811   1.678  19.257  0.00  0.00    +0.000 HD
ATOM     15  H2  UNL     1       2.036   0.680  18.952  0.00  0.00    +0.000 HD
ENDBRANCH  12  13
BRANCH  12  16
ATOM     16  C   UNL     1       2.002   2.720  20.988  0.00  0.00    +0.000 C 
ATOM     17  O   UNL     1       2.634   2.622  22.032  0.00  0.00    +0.000 OA
BRANCH  16  18
ATOM     18  OXT UNL     1       0.685   3.010  20.965  0.00  0.00    +0.000 OA
ATOM     19  HXT UNL     1       0.117   2.283  20.652  0.00  0.00    +0.000 HD
ENDBRANCH  16  18
ENDBRANCH  12  16
ENDBRANCH  11  12
ENDBRANCH   1  11
TORSDOF 9
ENDMDL
MODEL 3
REMARK VINA RESULT:      -5.4      2.366      5.496
REMARK  Name = 
REMARK  10 active torsions:
REMARK  status: ('A' for Active; 'I' for Inactive)
REMARK    1  A    between atoms: C_1  and  C_2
REMARK    2  A    between atoms: C_2  and  N_3
REMARK    3  A    between atoms: C_2  and  P_4
REMARK    4  A    between atoms: P_4  and  O_6
REMARK    5  A    between atoms: P_4  and  C_7
REMARK    6  A    between atoms: C_7  and  C_8
REMARK    7  A    between atoms: C_8  and  CA_9
REMARK    8  A    between atoms: CA_9  and  N_10
REMARK    9  A    between atoms: CA_9  and  C_11
REMARK   10  A    between atoms: C_11  and  OXT_13
REMARK                            x       y       z     vdW  Elec       q    Type
REMARK                         _______ _______ _______ _____ _____    ______ ____
ROOT
ATOM      1  C   UNL     1       4.630   4.931  18.188  0.00  0.00    +0.000 C 
ENDROOT
BRANCH   1   2
ATOM      2  P   UNL     1       3.572   3.654  18.962  0.00  0.00    +0.000 P 
ATOM      3  O   UNL     1       3.221   4.634  20.100  0.00  0.00    +0.000 OA
BRANCH   2   5
ATOM      4  C   UNL     1       1.495   2.976  20.693  0.00  0.00    +0.000 C 
ATOM      5  C   UNL     1       2.514   2.377  19.735  0.00  0.00    +0.000 C 
BRANCH   5   6
ATOM      6  N   UNL     1       1.820   1.643  18.637  0.00  0.00    +0.000 NA
ATOM      7  H   UNL     1       1.654   2.290  17.863  0.00  0.00    +0.000 HD
ATOM      8  H   UNL     1       0.887   1.388  18.969  0.00  0.00    +0.000 HD
ENDBRANCH   5   6
ENDBRANCH   2   5
BRANCH   2   9
ATOM      9  O   UNL     1       4.951   2.868  19.462  0.00  0.00    +0.000 OA
ATOM     10  H   UNL     1       5.394   3.393  20.175  0.00  0.00    +0.000 HD
ENDBRANCH   2   9
ENDBRANCH   1   2
BRANCH   1  11
ATOM     11  C   UNL     1       5.099   4.574  16.770  0.00  0.00    +0.000 C 
BRANCH  11  12
ATOM     12  CA  UNL     1       6.596   4.292  16.631  0.00  0.00    +0.000 C 
BRANCH  12  13
ATOM     13  N   UNL     1       7.242   4.293  17.961  0.00  0.00    +0.000 NA
ATOM     14  H1  UNL     1       8.260   4.287  17.806  0.00  0.00    +0.000 HD
ATOM     15  H2  UNL     1       7.067   3.381  18.393  0.00  0.00    +0.000 HD
ENDBRANCH  12  13
BRANCH  12  16
ATOM     16  C   UNL     1       7.252   5.401  15.782  0.00  0.00    +0.000 C 
ATOM     17  O   UNL     1       7.512   5.269  14.593  0.00  0.00    +0.000 OA
BRANCH  16  18
ATOM     18  OXT UNL     1       7.523   6.534  16.459  0.00  0.00    +0.000 OA
ATOM     19  HXT UNL     1       8.469   6.765  16.499  0.00  0.00    +0.000 HD
ENDBRANCH  16  18
ENDBRANCH  12  16
ENDBRANCH  11  12
ENDBRANCH   1  11
TORSDOF 9
ENDMDL
MODEL 4
REMARK VINA RESULT:      -5.3      1.915      2.376
REMARK  Name = 
REMARK  10 active torsions:
REMARK  status: ('A' for Active; 'I' for Inactive)
REMARK    1  A    between atoms: C_1  and  C_2
REMARK    2  A    between atoms: C_2  and  N_3
REMARK    3  A    between atoms: C_2  and  P_4
REMARK    4  A    between atoms: P_4  and  O_6
REMARK    5  A    between atoms: P_4  and  C_7
REMARK    6  A    between atoms: C_7  and  C_8
REMARK    7  A    between atoms: C_8  and  CA_9
REMARK    8  A    between atoms: CA_9  and  N_10
REMARK    9  A    between atoms: CA_9  and  C_11
REMARK   10  A    between atoms: C_11  and  OXT_13
REMARK                            x       y       z     vdW  Elec       q    Type
REMARK                         _______ _______ _______ _____ _____    ______ ____
ROOT
ATOM      1  C   UNL     1       3.648   4.414  18.397  0.00  0.00    +0.000 C 
ENDROOT
BRANCH   1   2
ATOM      2  P   UNL     1       5.409   4.867  18.188  0.00  0.00    +0.000 P 
ATOM      3  O   UNL     1       5.303   4.582  16.676  0.00  0.00    +0.000 OA
BRANCH   2   5
ATOM      4  C   UNL     1       7.795   5.810  19.278  0.00  0.00    +0.000 C 
ATOM      5  C   UNL     1       7.170   5.319  17.980  0.00  0.00    +0.000 C 
BRANCH   5   6
ATOM      6  N   UNL     1       7.889   4.110  17.486  0.00  0.00    +0.000 NA
ATOM      7  H   UNL     1       8.829   4.098  17.891  0.00  0.00    +0.000 HD
ATOM      8  H   UNL     1       8.040   4.222  16.480  0.00  0.00    +0.000 HD
ENDBRANCH   5   6
ENDBRANCH   2   5
BRANCH   2   9
ATOM      9  O   UNL     1       5.826   3.414  18.886  0.00  0.00    +0.000 OA
ATOM     10  H   UNL     1       5.712   2.683  18.228  0.00  0.00    +0.000 HD
ENDBRANCH   2   9
ENDBRANCH   1   2
BRANCH   1  11
ATOM     11  C   UNL     1       3.359   3.614  19.675  0.00  0.00    +0.000 C 
BRANCH  11  12
ATOM     12  CA  UNL     1       2.544   2.335  19.472  0.00  0.00    +0.000 C 
BRANCH  12  13
ATOM     13  N   UNL     1       2.953   1.662  18.220  0.00  0.00    +0.000 NA
ATOM     14  H1  UNL     1       3.426   2.368  17.636  0.00  0.00    +0.000 HD
ATOM     15  H2  UNL     1       2.104   1.452  17.688  0.00  0.00    +0.000 HD
ENDBRANCH  12  13
BRANCH  12  16
ATOM     16  C   UNL     1       1.047   2.692  19.354  0.00  0.00    +0.000 C 
ATOM     17  O   UNL     1       0.313   2.225  18.493  0.00  0.00    +0.000 OA
BRANCH  16  18
ATOM     18  OXT UNL     1       0.609   3.571  20.278  0.00  0.00    +0.000 OA
ATOM     19  HXT UNL     1      -0.214   3.309  20.727  0.00  0.00    +0.000 HD
ENDBRANCH  16  18
ENDBRANCH  12  16
ENDBRANCH  11  12
ENDBRANCH   1  11
TORSDOF 9
ENDMDL
MODEL 5
REMARK VINA RESULT:      -5.3      2.382      5.113
REMARK  Name = 
REMARK  10 active torsions:
REMARK  status: ('A' for Active; 'I' for Inactive)
REMARK    1  A    between atoms: C_1  and  C_2
REMARK    2  A    between atoms: C_2  and  N_3
REMARK    3  A    between atoms: C_2  and  P_4
REMARK    4  A    between atoms: P_4  and  O_6
REMARK    5  A    between atoms: P_4  and  C_7
REMARK    6  A    between atoms: C_7  and  C_8
REMARK    7  A    between atoms: C_8  and  CA_9
REMARK    8  A    between atoms: CA_9  and  N_10
REMARK    9  A    between atoms: CA_9  and  C_11
REMARK   10  A    between atoms: C_11  and  OXT_13
REMARK                            x       y       z     vdW  Elec       q    Type
REMARK                         _______ _______ _______ _____ _____    ______ ____
ROOT
ATOM      1  C   UNL     1       4.231   5.439  19.410  0.00  0.00    +0.000 C 
ENDROOT
BRANCH   1   2
ATOM      2  P   UNL     1       3.238   3.908  19.265  0.00  0.00    +0.000 P 
ATOM      3  O   UNL     1       4.523   3.064  19.380  0.00  0.00    +0.000 OA
BRANCH   2   5
ATOM      4  C   UNL     1       0.755   2.643  19.278  0.00  0.00    +0.000 C 
ATOM      5  C   UNL     1       2.245   2.378  19.120  0.00  0.00    +0.000 C 
BRANCH   5   6
ATOM      6  N   UNL     1       2.525   1.786  17.780  0.00  0.00    +0.000 NA
ATOM      7  H   UNL     1       2.647   2.544  17.104  0.00  0.00    +0.000 HD
ATOM      8  H   UNL     1       1.683   1.293  17.471  0.00  0.00    +0.000 HD
ENDBRANCH   5   6
ENDBRANCH   2   5
BRANCH   2   9
ATOM      9  O   UNL     1       3.058   4.224  17.641  0.00  0.00    +0.000 OA
ATOM     10  H   UNL     1       3.910   4.043  17.169  0.00  0.00    +0.000 HD
ENDBRANCH   2   9
ENDBRANCH   1   2
BRANCH   1  11
ATOM     11  C   UNL     1       5.737   5.226  19.202  0.00  0.00    +0.000 C 
BRANCH  11  12
ATOM     12  CA  UNL     1       6.290   5.741  17.871  0.00  0.00    +0.000 C 
BRANCH  12  13
ATOM     13  N   UNL     1       5.224   6.423  17.106  0.00  0.00    +0.000 NA
ATOM     14  H1  UNL     1       4.372   6.402  17.685  0.00  0.00    +0.000 HD
ATOM     15  H2  UNL     1       4.980   5.825  16.312  0.00  0.00    +0.000 HD
ENDBRANCH  12  13
BRANCH  12  16
ATOM     16  C   UNL     1       6.794   4.551  17.029  0.00  0.00    +0.000 C 
ATOM     17  O   UNL     1       7.958   4.431  16.668  0.00  0.00    +0.000 OA
BRANCH  16  18
ATOM     18  OXT UNL     1       5.844   3.648  16.713  0.00  0.00    +0.000 OA
ATOM     19  HXT UNL     1       6.186   2.804  16.368  0.00  0.00    +0.000 HD
ENDBRANCH  16  18
ENDBRANCH  12  16
ENDBRANCH  11  12
ENDBRANCH   1  11
TORSDOF 9
ENDMDL
MODEL 6
REMARK VINA RESULT:      -5.3      2.329      5.291
REMARK  Name = 
REMARK  10 active torsions:
REMARK  status: ('A' for Active; 'I' for Inactive)
REMARK    1  A    between atoms: C_1  and  C_2
REMARK    2  A    between atoms: C_2  and  N_3
REMARK    3  A    between atoms: C_2  and  P_4
REMARK    4  A    between atoms: P_4  and  O_6
REMARK    5  A    between atoms: P_4  and  C_7
REMARK    6  A    between atoms: C_7  and  C_8
REMARK    7  A    between atoms: C_8  and  CA_9
REMARK    8  A    between atoms: CA_9  and  N_10
REMARK    9  A    between atoms: CA_9  and  C_11
REMARK   10  A    between atoms: C_11  and  OXT_13
REMARK                            x       y       z     vdW  Elec       q    Type
REMARK                         _______ _______ _______ _____ _____    ______ ____
ROOT
ATOM      1  C   UNL     1       5.633   4.689  18.971  0.00  0.00    +0.000 C 
ENDROOT
BRANCH   1   2
ATOM      2  P   UNL     1       4.139   3.636  19.050  0.00  0.00    +0.000 P 
ATOM      3  O   UNL     1       4.873   2.664  19.997  0.00  0.00    +0.000 OA
BRANCH   2   5
ATOM      4  C   UNL     1       1.425   3.270  18.532  0.00  0.00    +0.000 C 
ATOM      5  C   UNL     1       2.644   2.584  19.130  0.00  0.00    +0.000 C 
BRANCH   5   6
ATOM      6  N   UNL     1       2.942   1.323  18.390  0.00  0.00    +0.000 NA
ATOM      7  H   UNL     1       2.082   0.994  17.942  0.00  0.00    +0.000 HD
ATOM      8  H   UNL     1       3.172   0.601  19.077  0.00  0.00    +0.000 HD
ENDBRANCH   5   6
ENDBRANCH   2   5
BRANCH   2   9
ATOM      9  O   UNL     1       4.480   3.101  17.512  0.00  0.00    +0.000 OA
ATOM     10  H   UNL     1       4.941   3.815  17.005  0.00  0.00    +0.000 HD
ENDBRANCH   2   9
ENDBRANCH   1   2
BRANCH   1  11
ATOM     11  C   UNL     1       5.743   5.516  17.682  0.00  0.00    +0.000 C 
BRANCH  11  12
ATOM     12  CA  UNL     1       7.128   5.526  17.030  0.00  0.00    +0.000 C 
BRANCH  12  13
ATOM     13  N   UNL     1       7.566   6.917  16.783  0.00  0.00    +0.000 NA
ATOM     14  H1  UNL     1       6.877   7.344  16.147  0.00  0.00    +0.000 HD
ATOM     15  H2  UNL     1       8.416   6.878  16.214  0.00  0.00    +0.000 HD
ENDBRANCH  12  13
BRANCH  12  16
ATOM     16  C   UNL     1       7.062   4.798  15.672  0.00  0.00    +0.000 C 
ATOM     17  O   UNL     1       7.530   5.261  14.640  0.00  0.00    +0.000 OA
BRANCH  16  18
ATOM     18  OXT UNL     1       6.439   3.603  15.709  0.00  0.00    +0.000 OA
ATOM     19  HXT UNL     1       6.236   3.280  16.606  0.00  0.00    +0.000 HD
ENDBRANCH  16  18
ENDBRANCH  12  16
ENDBRANCH  11  12
ENDBRANCH   1  11
TORSDOF 9
ENDMDL
MODEL 7
REMARK VINA RESULT:      -5.3      2.598      3.396
REMARK  Name = 
REMARK  10 active torsions:
REMARK  status: ('A' for Active; 'I' for Inactive)
REMARK    1  A    between atoms: C_1  and  C_2
REMARK    2  A    between atoms: C_2  and  N_3
REMARK    3  A    between atoms: C_2  and  P_4
REMARK    4  A    between atoms: P_4  and  O_6
REMARK    5  A    between atoms: P_4  and  C_7
REMARK    6  A    between atoms: C_7  and  C_8
REMARK    7  A    between atoms: C_8  and  CA_9
REMARK    8  A    between atoms: CA_9  and  N_10
REMARK    9  A    between atoms: CA_9  and  C_11
REMARK   10  A    between atoms: C_11  and  OXT_13
REMARK                            x       y       z     vdW  Elec       q    Type
REMARK                         _______ _______ _______ _____ _____    ______ ____
ROOT
ATOM      1  C   UNL     1       4.609   5.190  17.130  0.00  0.00    +0.000 C 
ENDROOT
BRANCH   1   2
ATOM      2  P   UNL     1       5.693   4.720  15.733  0.00  0.00    +0.000 P 
ATOM      3  O   UNL     1       6.824   4.379  16.725  0.00  0.00    +0.000 OA
BRANCH   2   5
ATOM      4  C   UNL     1       5.985   3.768  13.130  0.00  0.00    +0.000 C 
ATOM      5  C   UNL     1       6.777   4.250  14.336  0.00  0.00    +0.000 C 
BRANCH   5   6
ATOM      6  N   UNL     1       7.589   5.448  13.974  0.00  0.00    +0.000 NA
ATOM      7  H   UNL     1       6.955   6.220  13.751  0.00  0.00    +0.000 HD
ATOM      8  H   UNL     1       8.075   5.247  13.096  0.00  0.00    +0.000 HD
ENDBRANCH   5   6
ENDBRANCH   2   5
BRANCH   2   9
ATOM      9  O   UNL     1       5.882   6.337  15.385  0.00  0.00    +0.000 OA
ATOM     10  H   UNL     1       6.340   6.439  14.513  0.00  0.00    +0.000 HD
ENDBRANCH   2   9
ENDBRANCH   1   2
BRANCH   1  11
ATOM     11  C   UNL     1       3.575   4.118  17.503  0.00  0.00    +0.000 C 
BRANCH  11  12
ATOM     12  CA  UNL     1       3.800   3.440  18.857  0.00  0.00    +0.000 C 
BRANCH  12  13
ATOM     13  N   UNL     1       5.249   3.324  19.135  0.00  0.00    +0.000 NA
ATOM     14  H1  UNL     1       5.640   2.669  18.443  0.00  0.00    +0.000 HD
ATOM     15  H2  UNL     1       5.356   2.820  20.020  0.00  0.00    +0.000 HD
ENDBRANCH  12  13
BRANCH  12  16
ATOM     16  C   UNL     1       3.206   2.016  18.824  0.00  0.00    +0.000 C 
ATOM     17  O   UNL     1       2.059   1.761  19.165  0.00  0.00    +0.000 OA
BRANCH  16  18
ATOM     18  OXT UNL     1       4.060   1.066  18.391  0.00  0.00    +0.000 OA
ATOM     19  HXT UNL     1       4.346   1.170  17.466  0.00  0.00    +0.000 HD
ENDBRANCH  16  18
ENDBRANCH  12  16
ENDBRANCH  11  12
ENDBRANCH   1  11
TORSDOF 9
ENDMDL
MODEL 8
REMARK VINA RESULT:      -5.2      2.001      2.433
REMARK  Name = 
REMARK  10 active torsions:
REMARK  status: ('A' for Active; 'I' for Inactive)
REMARK    1  A    between atoms: C_1  and  C_2
REMARK    2  A    between atoms: C_2  and  N_3
REMARK    3  A    between atoms: C_2  and  P_4
REMARK    4  A    between atoms: P_4  and  O_6
REMARK    5  A    between atoms: P_4  and  C_7
REMARK    6  A    between atoms: C_7  and  C_8
REMARK    7  A    between atoms: C_8  and  CA_9
REMARK    8  A    between atoms: CA_9  and  N_10
REMARK    9  A    between atoms: CA_9  and  C_11
REMARK   10  A    between atoms: C_11  and  OXT_13
REMARK                            x       y       z     vdW  Elec       q    Type
REMARK                         _______ _______ _______ _____ _____    ______ ____
ROOT
ATOM      1  C   UNL     1       3.703   4.541  18.259  0.00  0.00    +0.000 C 
ENDROOT
BRANCH   1   2
ATOM      2  P   UNL     1       5.428   5.021  17.882  0.00  0.00    +0.000 P 
ATOM      3  O   UNL     1       4.930   5.901  16.718  0.00  0.00    +0.000 OA
BRANCH   2   5
ATOM      4  C   UNL     1       7.791   6.290  18.640  0.00  0.00    +0.000 C 
ATOM      5  C   UNL     1       7.154   5.501  17.507  0.00  0.00    +0.000 C 
BRANCH   5   6
ATOM      6  N   UNL     1       7.923   4.248  17.254  0.00  0.00    +0.000 NA
ATOM      7  H   UNL     1       7.350   3.448  17.533  0.00  0.00    +0.000 HD
ATOM      8  H   UNL     1       8.721   4.233  17.896  0.00  0.00    +0.000 HD
ENDBRANCH   5   6
ENDBRANCH   2   5
BRANCH   2   9
ATOM      9  O   UNL     1       5.666   3.510  17.227  0.00  0.00    +0.000 OA
ATOM     10  H   UNL     1       6.495   3.113  17.595  0.00  0.00    +0.000 HD
ENDBRANCH   2   9
ENDBRANCH   1   2
BRANCH   1  11
ATOM     11  C   UNL     1       3.487   4.081  19.708  0.00  0.00    +0.000 C 
BRANCH  11  12
ATOM     12  CA  UNL     1       3.593   2.571  19.934  0.00  0.00    +0.000 C 
BRANCH  12  13
ATOM     13  N   UNL     1       5.013   2.170  20.041  0.00  0.00    +0.000 NA
ATOM     14  H1  UNL     1       5.402   2.647  20.867  0.00  0.00    +0.000 HD
ATOM     15  H2  UNL     1       5.517   2.603  19.263  0.00  0.00    +0.000 HD
ENDBRANCH  12  13
BRANCH  12  16
ATOM     16  C   UNL     1       2.976   1.827  18.732  0.00  0.00    +0.000 C 
ATOM     17  O   UNL     1       3.645   1.353  17.822  0.00  0.00    +0.000 OA
BRANCH  16  18
ATOM     18  OXT UNL     1       1.631   1.743  18.759  0.00  0.00    +0.000 OA
ATOM     19  HXT UNL     1       1.231   1.929  19.627  0.00  0.00    +0.000 HD
ENDBRANCH  16  18
ENDBRANCH  12  16
ENDBRANCH  11  12
ENDBRANCH   1  11
TORSDOF 9
ENDMDL
MODEL 9
REMARK VINA RESULT:      -5.2      2.497      5.441
REMARK  Name = 
REMARK  10 active torsions:
REMARK  status: ('A' for Active; 'I' for Inactive)
REMARK    1  A    between atoms: C_1  and  C_2
REMARK    2  A    between atoms: C_2  and  N_3
REMARK    3  A    between atoms: C_2  and  P_4
REMARK    4  A    between atoms: P_4  and  O_6
REMARK    5  A    between atoms: P_4  and  C_7
REMARK    6  A    between atoms: C_7  and  C_8
REMARK    7  A    between atoms: C_8  and  CA_9
REMARK    8  A    between atoms: CA_9  and  N_10
REMARK    9  A    between atoms: CA_9  and  C_11
REMARK   10  A    between atoms: C_11  and  OXT_13
REMARK                            x       y       z     vdW  Elec       q    Type
REMARK                         _______ _______ _______ _____ _____    ______ ____
ROOT
ATOM      1  C   UNL     1       3.346   5.329  17.723  0.00  0.00    +0.000 C 
ENDROOT
BRANCH   1   2
ATOM      2  P   UNL     1       2.480   3.952  18.563  0.00  0.00    +0.000 P 
ATOM      3  O   UNL     1       3.814   3.495  19.188  0.00  0.00    +0.000 OA
BRANCH   2   5
ATOM      4  C   UNL     1       1.222   2.930  20.830  0.00  0.00    +0.000 C 
ATOM      5  C   UNL     1       1.614   2.577  19.404  0.00  0.00    +0.000 C 
BRANCH   5   6
ATOM      6  N   UNL     1       0.400   2.252  18.600  0.00  0.00    +0.000 NA
ATOM      7  H   UNL     1       0.399   1.250  18.396  0.00  0.00    +0.000 HD
ATOM      8  H   UNL     1       0.497   2.704  17.687  0.00  0.00    +0.000 HD
ENDBRANCH   5   6
ENDBRANCH   2   5
BRANCH   2   9
ATOM      9  O   UNL     1       2.384   3.168  17.099  0.00  0.00    +0.000 OA
ATOM     10  H   UNL     1       2.280   2.195  17.247  0.00  0.00    +0.000 HD
ENDBRANCH   2   9
ENDBRANCH   1   2
BRANCH   1  11
ATOM     11  C   UNL     1       4.875   5.277  17.859  0.00  0.00    +0.000 C 
BRANCH  11  12
ATOM     12  CA  UNL     1       5.626   4.842  16.599  0.00  0.00    +0.000 C 
BRANCH  12  13
ATOM     13  N   UNL     1       5.600   3.368  16.473  0.00  0.00    +0.000 NA
ATOM     14  H1  UNL     1       6.165   2.987  17.246  0.00  0.00    +0.000 HD
ATOM     15  H2  UNL     1       6.143   3.118  15.642  0.00  0.00    +0.000 HD
ENDBRANCH  12  13
BRANCH  12  16
ATOM     16  C   UNL     1       7.100   5.286  16.701  0.00  0.00    +0.000 C 
ATOM     17  O   UNL     1       7.477   6.423  16.447  0.00  0.00    +0.000 OA
BRANCH  16  18
ATOM     18  OXT UNL     1       7.950   4.313  17.088  0.00  0.00    +0.000 OA
ATOM     19  HXT UNL     1       8.407   4.488  17.930  0.00  0.00    +0.000 HD
ENDBRANCH  16  18
ENDBRANCH  12  16
ENDBRANCH  11  12
ENDBRANCH   1  11
TORSDOF 9
ENDMDL
