MODEL 1
REMARK VINA RESULT:      -7.0      0.000      0.000
REMARK  Name = 
REMARK  3 active torsions:
REMARK  status: ('A' for Active; 'I' for Inactive)
REMARK    1  A    between atoms: C_1  and  C_2
REMARK    2  A    between atoms: C_2  and  C_3
REMARK    3  A    between atoms: C_9  and  C_11
REMARK                            x       y       z     vdW  Elec       q    Type
REMARK                         _______ _______ _______ _____ _____    ______ ____
ROOT
ATOM      1  C   UNL     1       6.883   4.729  14.433  0.00  0.00    +0.000 C 
ATOM      2  O   UNL     1       7.750   5.582  14.242  0.00  0.00    +0.000 OA
ATOM      3  N   UNL     1       6.332   4.505  15.685  0.00  0.00    +0.000 N 
ATOM      4  C   UNL     1       6.709   5.374  16.806  0.00  0.00    +0.000 C 
ATOM      5  C   UNL     1       5.460   5.977  17.471  0.00  0.00    +0.000 C 
ATOM      6  N   UNL     1       4.482   4.932  17.809  0.00  0.00    +0.000 N 
ATOM      7  C   UNL     1       3.994   4.846  19.111  0.00  0.00    +0.000 C 
ATOM      8  O   UNL     1       4.333   5.663  19.968  0.00  0.00    +0.000 OA
ATOM      9  C   UNL     1       4.112   4.059  16.689  0.00  0.00    +0.000 C 
ATOM     10  C   UNL     1       5.363   3.454  16.033  0.00  0.00    +0.000 C 
ENDROOT
BRANCH   7  11
ATOM     11  C   UNL     1       2.979   3.725  19.439  0.00  0.00    +0.000 C 
ATOM     12  C   UNL     1       1.631   4.280  19.888  0.00  0.00    +0.000 C 
ATOM     13  C   UNL     1       1.113   3.240  20.845  0.00  0.00    +0.000 C 
ATOM     14  C   UNL     1       2.372   2.647  21.426  0.00  0.00    +0.000 C 
ATOM     15  O   UNL     1       3.426   2.841  20.478  0.00  0.00    +0.000 OA
ENDBRANCH   7  11
BRANCH   1  17
ATOM     16  C   UNL     1       7.133   4.053  12.007  0.00  0.00    +0.000 C 
ATOM     17  C   UNL     1       6.334   3.892  13.289  0.00  0.00    +0.000 C 
ENDBRANCH   1  17
TORSDOF 2
ENDMDL
MODEL 2
REMARK VINA RESULT:      -6.5      1.385      6.479
REMARK  Name = 
REMARK  3 active torsions:
REMARK  status: ('A' for Active; 'I' for Inactive)
REMARK    1  A    between atoms: C_1  and  C_2
REMARK    2  A    between atoms: C_2  and  C_3
REMARK    3  A    between atoms: C_9  and  C_11
REMARK                            x       y       z     vdW  Elec       q    Type
REMARK                         _______ _______ _______ _____ _____    ______ ____
ROOT
ATOM      1  C   UNL     1       2.396   4.257  19.916  0.00  0.00    +0.000 C 
ATOM      2  O   UNL     1       2.641   4.194  21.121  0.00  0.00    +0.000 OA
ATOM      3  N   UNL     1       3.344   4.668  18.993  0.00  0.00    +0.000 N 
ATOM      4  C   UNL     1       4.716   4.939  19.436  0.00  0.00    +0.000 C 
ATOM      5  C   UNL     1       5.726   4.124  18.611  0.00  0.00    +0.000 C 
ATOM      6  N   UNL     1       5.502   4.306  17.169  0.00  0.00    +0.000 N 
ATOM      7  C   UNL     1       6.563   4.698  16.355  0.00  0.00    +0.000 C 
ATOM      8  O   UNL     1       7.694   4.845  16.820  0.00  0.00    +0.000 OA
ATOM      9  C   UNL     1       4.128   4.043  16.727  0.00  0.00    +0.000 C 
ATOM     10  C   UNL     1       3.124   4.866  17.551  0.00  0.00    +0.000 C 
ENDROOT
BRANCH   7  11
ATOM     11  C   UNL     1       6.292   4.898  14.845  0.00  0.00    +0.000 C 
ATOM     12  C   UNL     1       6.067   3.576  14.119  0.00  0.00    +0.000 C 
ATOM     13  C   UNL     1       6.590   3.833  12.731  0.00  0.00    +0.000 C 
ATOM     14  C   UNL     1       7.670   4.862  12.953  0.00  0.00    +0.000 C 
ATOM     15  O   UNL     1       7.362   5.567  14.160  0.00  0.00    +0.000 OA
ENDBRANCH   7  11
BRANCH   1  17
ATOM     16  C   UNL     1       0.981   2.381  18.976  0.00  0.00    +0.000 C 
ATOM     17  C   UNL     1       1.040   3.849  19.364  0.00  0.00    +0.000 C 
ENDBRANCH   1  17
TORSDOF 2
ENDMDL
MODEL 3
REMARK VINA RESULT:      -6.5      1.676      6.654
REMARK  Name = 
REMARK  3 active torsions:
REMARK  status: ('A' for Active; 'I' for Inactive)
REMARK    1  A    between atoms: C_1  and  C_2
REMARK    2  A    between atoms: C_2  and  C_3
REMARK    3  A    between atoms: C_9  and  C_11
REMARK                            x       y       z     vdW  Elec       q    Type
REMARK                         _______ _______ _______ _____ _____    ______ ____
ROOT
ATOM      1  C   UNL     1       2.446   4.469  20.170  0.00  0.00    +0.000 C 
ATOM      2  O   UNL     1       1.859   5.382  20.753  0.00  0.00    +0.000 OA
ATOM      3  N   UNL     1       2.932   4.611  18.881  0.00  0.00    +0.000 N 
ATOM      4  C   UNL     1       2.845   5.915  18.214  0.00  0.00    +0.000 C 
ATOM      5  C   UNL     1       4.228   6.363  17.711  0.00  0.00    +0.000 C 
ATOM      6  N   UNL     1       4.868   5.308  16.910  0.00  0.00    +0.000 N 
ATOM      7  C   UNL     1       5.336   5.607  15.632  0.00  0.00    +0.000 C 
ATOM      8  O   UNL     1       5.265   6.753  15.186  0.00  0.00    +0.000 OA
ATOM      9  C   UNL     1       4.948   4.002  17.574  0.00  0.00    +0.000 C 
ATOM     10  C   UNL     1       3.562   3.557  18.068  0.00  0.00    +0.000 C 
ENDROOT
BRANCH   7  11
ATOM     11  C   UNL     1       5.989   4.472  14.808  0.00  0.00    +0.000 C 
ATOM     12  C   UNL     1       7.140   4.975  13.943  0.00  0.00    +0.000 C 
ATOM     13  C   UNL     1       7.116   4.065  12.744  0.00  0.00    +0.000 C 
ATOM     14  C   UNL     1       5.661   3.684  12.628  0.00  0.00    +0.000 C 
ATOM     15  O   UNL     1       5.070   3.811  13.926  0.00  0.00    +0.000 OA
ENDBRANCH   7  11
BRANCH   1  17
ATOM     16  C   UNL     1       1.502   2.628  21.629  0.00  0.00    +0.000 C 
ATOM     17  C   UNL     1       2.706   3.136  20.853  0.00  0.00    +0.000 C 
ENDBRANCH   1  17
TORSDOF 2
ENDMDL
MODEL 4
REMARK VINA RESULT:      -6.4      2.025      3.169
REMARK  Name = 
REMARK  3 active torsions:
REMARK  status: ('A' for Active; 'I' for Inactive)
REMARK    1  A    between atoms: C_1  and  C_2
REMARK    2  A    between atoms: C_2  and  C_3
REMARK    3  A    between atoms: C_9  and  C_11
REMARK                            x       y       z     vdW  Elec       q    Type
REMARK                         _______ _______ _______ _____ _____    ______ ____
ROOT
ATOM      1  C   UNL     1       7.086   6.277  16.985  0.00  0.00    +0.000 C 
ATOM      2  O   UNL     1       7.656   6.232  15.895  0.00  0.00    +0.000 OA
ATOM      3  N   UNL     1       5.826   5.737  17.181  0.00  0.00    +0.000 N 
ATOM      4  C   UNL     1       5.180   4.993  16.093  0.00  0.00    +0.000 C 
ATOM      5  C   UNL     1       4.756   3.593  16.567  0.00  0.00    +0.000 C 
ATOM      6  N   UNL     1       3.968   3.669  17.806  0.00  0.00    +0.000 N 
ATOM      7  C   UNL     1       2.721   3.050  17.864  0.00  0.00    +0.000 C 
ATOM      8  O   UNL     1       2.294   2.400  16.910  0.00  0.00    +0.000 OA
ATOM      9  C   UNL     1       4.610   4.420  18.892  0.00  0.00    +0.000 C 
ATOM     10  C   UNL     1       5.025   5.821  18.413  0.00  0.00    +0.000 C 
ENDROOT
BRANCH   7  11
ATOM     11  C   UNL     1       1.908   3.163  19.176  0.00  0.00    +0.000 C 
ATOM     12  C   UNL     1       1.762   4.608  19.642  0.00  0.00    +0.000 C 
ATOM     13  C   UNL     1       1.702   4.500  21.142  0.00  0.00    +0.000 C 
ATOM     14  C   UNL     1       2.521   3.267  21.433  0.00  0.00    +0.000 C 
ATOM     15  O   UNL     1       2.491   2.436  20.268  0.00  0.00    +0.000 OA
ENDBRANCH   7  11
BRANCH   1  17
ATOM     16  C   UNL     1       8.134   8.356  17.980  0.00  0.00    +0.000 C 
ATOM     17  C   UNL     1       7.755   6.901  18.200  0.00  0.00    +0.000 C 
ENDBRANCH   1  17
TORSDOF 2
ENDMDL
MODEL 5
REMARK VINA RESULT:      -6.1      1.279      1.434
REMARK  Name = 
REMARK  3 active torsions:
REMARK  status: ('A' for Active; 'I' for Inactive)
REMARK    1  A    between atoms: C_1  and  C_2
REMARK    2  A    between atoms: C_2  and  C_3
REMARK    3  A    between atoms: C_9  and  C_11
REMARK                            x       y       z     vdW  Elec       q    Type
REMARK                         _______ _______ _______ _____ _____    ______ ____
ROOT
ATOM      1  C   UNL     1       6.462   4.849  15.440  0.00  0.00    +0.000 C 
ATOM      2  O   UNL     1       7.270   5.744  15.197  0.00  0.00    +0.000 OA
ATOM      3  N   UNL     1       5.655   4.869  16.566  0.00  0.00    +0.000 N 
ATOM      4  C   UNL     1       5.681   6.038  17.453  0.00  0.00    +0.000 C 
ATOM      5  C   UNL     1       4.262   6.598  17.657  0.00  0.00    +0.000 C 
ATOM      6  N   UNL     1       3.328   5.538  18.069  0.00  0.00    +0.000 N 
ATOM      7  C   UNL     1       2.558   5.712  19.216  0.00  0.00    +0.000 C 
ATOM      8  O   UNL     1       2.614   6.760  19.861  0.00  0.00    +0.000 OA
ATOM      9  C   UNL     1       3.310   4.366  17.186  0.00  0.00    +0.000 C 
ATOM     10  C   UNL     1       4.729   3.807  16.992  0.00  0.00    +0.000 C 
ENDROOT
BRANCH   7  11
ATOM     11  C   UNL     1       1.598   4.572  19.633  0.00  0.00    +0.000 C 
ATOM     12  C   UNL     1       1.753   4.195  21.102  0.00  0.00    +0.000 C 
ATOM     13  C   UNL     1       1.421   2.727  21.135  0.00  0.00    +0.000 C 
ATOM     14  C   UNL     1       1.837   2.248  19.766  0.00  0.00    +0.000 C 
ATOM     15  O   UNL     1       1.787   3.367  18.876  0.00  0.00    +0.000 OA
ENDBRANCH   7  11
BRANCH   1  17
ATOM     16  C   UNL     1       6.524   4.053  13.038  0.00  0.00    +0.000 C 
ATOM     17  C   UNL     1       6.272   3.678  14.489  0.00  0.00    +0.000 C 
ENDBRANCH   1  17
TORSDOF 2
ENDMDL
MODEL 6
REMARK VINA RESULT:      -6.0      2.214      6.315
REMARK  Name = 
REMARK  3 active torsions:
REMARK  status: ('A' for Active; 'I' for Inactive)
REMARK    1  A    between atoms: C_1  and  C_2
REMARK    2  A    between atoms: C_2  and  C_3
REMARK    3  A    between atoms: C_9  and  C_11
REMARK                            x       y       z     vdW  Elec       q    Type
REMARK                         _______ _______ _______ _____ _____    ______ ____
ROOT
ATOM      1  C   UNL     1       1.727   3.066  19.332  0.00  0.00    +0.000 C 
ATOM      2  O   UNL     1       0.838   2.359  18.856  0.00  0.00    +0.000 OA
ATOM      3  N   UNL     1       2.981   3.164  18.750  0.00  0.00    +0.000 N 
ATOM      4  C   UNL     1       3.239   2.493  17.471  0.00  0.00    +0.000 C 
ATOM      5  C   UNL     1       3.784   3.489  16.434  0.00  0.00    +0.000 C 
ATOM      6  N   UNL     1       4.928   4.241  16.971  0.00  0.00    +0.000 N 
ATOM      7  C   UNL     1       6.124   4.272  16.257  0.00  0.00    +0.000 C 
ATOM      8  O   UNL     1       6.219   3.720  15.161  0.00  0.00    +0.000 OA
ATOM      9  C   UNL     1       4.672   4.905  18.255  0.00  0.00    +0.000 C 
ATOM     10  C   UNL     1       4.134   3.903  19.289  0.00  0.00    +0.000 C 
ENDROOT
BRANCH   7  11
ATOM     11  C   UNL     1       7.314   5.058  16.858  0.00  0.00    +0.000 C 
ATOM     12  C   UNL     1       7.378   4.937  18.377  0.00  0.00    +0.000 C 
ATOM     13  C   UNL     1       7.976   6.246  18.818  0.00  0.00    +0.000 C 
ATOM     14  C   UNL     1       7.522   7.211  17.752  0.00  0.00    +0.000 C 
ATOM     15  O   UNL     1       7.276   6.461  16.558  0.00  0.00    +0.000 OA
ENDBRANCH   7  11
BRANCH   1  17
ATOM     16  C   UNL     1       1.711   3.134  21.862  0.00  0.00    +0.000 C 
ATOM     17  C   UNL     1       1.486   3.908  20.574  0.00  0.00    +0.000 C 
ENDBRANCH   1  17
TORSDOF 2
ENDMDL
MODEL 7
REMARK VINA RESULT:      -5.9      1.201      1.438
REMARK  Name = 
REMARK  3 active torsions:
REMARK  status: ('A' for Active; 'I' for Inactive)
REMARK    1  A    between atoms: C_1  and  C_2
REMARK    2  A    between atoms: C_2  and  C_3
REMARK    3  A    between atoms: C_9  and  C_11
REMARK                            x       y       z     vdW  Elec       q    Type
REMARK                         _______ _______ _______ _____ _____    ______ ____
ROOT
ATOM      1  C   UNL     1       6.959   4.682  14.168  0.00  0.00    +0.000 C 
ATOM      2  O   UNL     1       7.861   5.480  13.911  0.00  0.00    +0.000 OA
ATOM      3  N   UNL     1       6.496   4.484  15.458  0.00  0.00    +0.000 N 
ATOM      4  C   UNL     1       7.013   5.318  16.549  0.00  0.00    +0.000 C 
ATOM      5  C   UNL     1       5.861   5.994  17.311  0.00  0.00    +0.000 C 
ATOM      6  N   UNL     1       4.848   5.009  17.723  0.00  0.00    +0.000 N 
ATOM      7  C   UNL     1       4.459   4.945  19.059  0.00  0.00    +0.000 C 
ATOM      8  O   UNL     1       4.915   5.733  19.888  0.00  0.00    +0.000 OA
ATOM      9  C   UNL     1       4.337   4.169  16.633  0.00  0.00    +0.000 C 
ATOM     10  C   UNL     1       5.493   3.492  15.879  0.00  0.00    +0.000 C 
ENDROOT
BRANCH   7  11
ATOM     11  C   UNL     1       3.404   3.887  19.463  0.00  0.00    +0.000 C 
ATOM     12  C   UNL     1       3.831   2.473  19.084  0.00  0.00    +0.000 C 
ATOM     13  C   UNL     1       2.532   1.766  18.805  0.00  0.00    +0.000 C 
ATOM     14  C   UNL     1       1.633   2.874  18.315  0.00  0.00    +0.000 C 
ATOM     15  O   UNL     1       2.121   4.105  18.857  0.00  0.00    +0.000 OA
ENDBRANCH   7  11
BRANCH   1  17
ATOM     16  C   UNL     1       7.099   3.805  11.797  0.00  0.00    +0.000 C 
ATOM     17  C   UNL     1       6.271   3.889  13.068  0.00  0.00    +0.000 C 
ENDBRANCH   1  17
TORSDOF 2
ENDMDL
MODEL 8
REMARK VINA RESULT:      -5.6      1.328      6.412
REMARK  Name = 
REMARK  3 active torsions:
REMARK  status: ('A' for Active; 'I' for Inactive)
REMARK    1  A    between atoms: C_1  and  C_2
REMARK    2  A    between atoms: C_2  and  C_3
REMARK    3  A    between atoms: C_9  and  C_11
REMARK                            x       y       z     vdW  Elec       q    Type
REMARK                         _______ _______ _______ _____ _____    ______ ____
ROOT
ATOM      1  C   UNL     1       2.705   4.261  19.477  0.00  0.00    +0.000 C 
ATOM      2  O   UNL     1       2.510   5.071  20.383  0.00  0.00    +0.000 OA
ATOM      3  N   UNL     1       3.486   4.563  18.374  0.00  0.00    +0.000 N 
ATOM      4  C   UNL     1       4.194   5.847  18.318  0.00  0.00    +0.000 C 
ATOM      5  C   UNL     1       5.696   5.631  18.068  0.00  0.00    +0.000 C 
ATOM      6  N   UNL     1       5.920   4.759  16.905  0.00  0.00    +0.000 N 
ATOM      7  C   UNL     1       6.758   5.188  15.878  0.00  0.00    +0.000 C 
ATOM      8  O   UNL     1       7.352   6.265  15.956  0.00  0.00    +0.000 OA
ATOM      9  C   UNL     1       5.205   3.478  16.957  0.00  0.00    +0.000 C 
ATOM     10  C   UNL     1       3.704   3.701  17.200  0.00  0.00    +0.000 C 
ENDROOT
BRANCH   7  11
ATOM     11  C   UNL     1       6.960   4.256  14.660  0.00  0.00    +0.000 C 
ATOM     12  C   UNL     1       7.555   4.990  13.463  0.00  0.00    +0.000 C 
ATOM     13  C   UNL     1       6.979   4.269  12.274  0.00  0.00    +0.000 C 
ATOM     14  C   UNL     1       5.649   3.771  12.782  0.00  0.00    +0.000 C 
ATOM     15  O   UNL     1       5.742   3.647  14.205  0.00  0.00    +0.000 OA
ENDBRANCH   7  11
BRANCH   1  17
ATOM     16  C   UNL     1       0.613   2.838  19.397  0.00  0.00    +0.000 C 
ATOM     17  C   UNL     1       2.126   2.856  19.537  0.00  0.00    +0.000 C 
ENDBRANCH   1  17
TORSDOF 2
ENDMDL
MODEL 9
REMARK VINA RESULT:      -5.6      2.478      6.389
REMARK  Name = 
REMARK  3 active torsions:
REMARK  status: ('A' for Active; 'I' for Inactive)
REMARK    1  A    between atoms: C_1  and  C_2
REMARK    2  A    between atoms: C_2  and  C_3
REMARK    3  A    between atoms: C_9  and  C_11
REMARK                            x       y       z     vdW  Elec       q    Type
REMARK                         _______ _______ _______ _____ _____    ______ ____
ROOT
ATOM      1  C   UNL     1       1.417   2.486  19.336  0.00  0.00    +0.000 C 
ATOM      2  O   UNL     1       0.903   1.574  18.689  0.00  0.00    +0.000 OA
ATOM      3  N   UNL     1       2.597   3.095  18.942  0.00  0.00    +0.000 N 
ATOM      4  C   UNL     1       3.210   2.724  17.661  0.00  0.00    +0.000 C 
ATOM      5  C   UNL     1       3.449   3.970  16.791  0.00  0.00    +0.000 C 
ATOM      6  N   UNL     1       4.175   5.008  17.538  0.00  0.00    +0.000 N 
ATOM      7  C   UNL     1       5.340   5.551  17.000  0.00  0.00    +0.000 C 
ATOM      8  O   UNL     1       5.740   5.209  15.887  0.00  0.00    +0.000 OA
ATOM      9  C   UNL     1       3.566   5.373  18.823  0.00  0.00    +0.000 C 
ATOM     10  C   UNL     1       3.336   4.125  19.690  0.00  0.00    +0.000 C 
ENDROOT
BRANCH   7  11
ATOM     11  C   UNL     1       6.090   6.629  17.819  0.00  0.00    +0.000 C 
ATOM     12  C   UNL     1       7.031   7.460  16.953  0.00  0.00    +0.000 C 
ATOM     13  C   UNL     1       8.150   7.831  17.888  0.00  0.00    +0.000 C 
ATOM     14  C   UNL     1       8.187   6.677  18.858  0.00  0.00    +0.000 C 
ATOM     15  O   UNL     1       6.885   6.082  18.881  0.00  0.00    +0.000 OA
ENDBRANCH   7  11
BRANCH   1  17
ATOM     16  C   UNL     1       1.428   2.529  21.867  0.00  0.00    +0.000 C 
ATOM     17  C   UNL     1       0.760   3.026  20.596  0.00  0.00    +0.000 C 
ENDBRANCH   1  17
TORSDOF 2
ENDMDL
