MODEL 1
REMARK VINA RESULT:      -8.7      0.000      0.000
REMARK  Name = 
REMARK  7 active torsions:
REMARK  status: ('A' for Active; 'I' for Inactive)
REMARK    1  A    between atoms: C_1  and  O_2
REMARK    2  A    between atoms: O_2  and  C_3
REMARK    3  A    between atoms: C_6  and  N_7
REMARK    4  A    between atoms: C_11  and  C_13
REMARK    5  A    between atoms: C_13  and  C_14
REMARK    6  A    between atoms: C_14  and  C_15
REMARK    7  A    between atoms: C_15  and  C_16
REMARK                            x       y       z     vdW  Elec       q    Type
REMARK                         _______ _______ _______ _____ _____    ______ ____
ROOT
ATOM      1  N   UNL     1      -1.618  11.844  21.789  0.00  0.00    +0.000 N 
ATOM      2  C   UNL     1      -0.832  10.846  22.541  0.00  0.00    +0.000 C 
ATOM      3  C   UNL     1      -0.618   9.582  21.680  0.00  0.00    +0.000 C 
ATOM      4  N   UNL     1      -0.048   9.891  20.355  0.00  0.00    +0.000 N 
ATOM      5  C   UNL     1       1.092   9.208  19.935  0.00  0.00    +0.000 C 
ATOM      6  O   UNL     1       1.686   8.430  20.690  0.00  0.00    +0.000 OA
ATOM      7  C   UNL     1      -0.823  10.897  19.614  0.00  0.00    +0.000 C 
ATOM      8  C   UNL     1      -1.061  12.176  20.462  0.00  0.00    +0.000 C 
ENDROOT
BRANCH   1  12
ATOM      9  C   UNL     1      -5.186  13.565  23.315  0.00  0.00    +0.000 A 
ATOM     10  C   UNL     1      -5.050  13.296  21.958  0.00  0.00    +0.000 A 
ATOM     11  C   UNL     1      -3.884  12.689  21.461  0.00  0.00    +0.000 A 
ATOM     12  C   UNL     1      -2.795  12.370  22.289  0.00  0.00    +0.000 A 
ATOM     13  C   UNL     1      -2.968  12.645  23.654  0.00  0.00    +0.000 A 
ATOM     14  C   UNL     1      -4.132  13.234  24.164  0.00  0.00    +0.000 A 
BRANCH   9  16
ATOM     15  C   UNL     1      -6.244  15.564  23.979  0.00  0.00    +0.000 C 
ATOM     16  O   UNL     1      -6.349  14.170  23.699  0.00  0.00    +0.000 OA
ENDBRANCH   9  16
ENDBRANCH   1  12
BRANCH   5  17
ATOM     17  C   UNL     1       1.616   9.441  18.520  0.00  0.00    +0.000 C 
BRANCH  17  18
ATOM     18  C   UNL     1       1.993   8.155  17.723  0.00  0.00    +0.000 C 
BRANCH  18  19
ATOM     19  C   UNL     1       3.467   7.590  17.736  0.00  0.00    +0.000 C 
BRANCH  19  20
ATOM     20  C   UNL     1       3.770   6.223  18.409  0.00  0.00    +0.000 C 
ATOM     21  N   UNL     1       4.278   5.343  17.638  0.00  0.00    +0.000 NA
ATOM     22  S   UNL     1       4.318   3.863  18.275  0.00  0.00    +0.000 S 
ATOM     23  O   UNL     1       4.298   2.877  17.220  0.00  0.00    +0.000 OA
ATOM     24  O   UNL     1       5.324   3.797  19.321  0.00  0.00    +0.000 OA
ATOM     25  C   UNL     1       2.707   3.870  18.984  0.00  0.00    +0.000 A 
ATOM     26  C   UNL     1       1.634   3.055  18.696  0.00  0.00    +0.000 A 
ATOM     27  C   UNL     1       0.790   2.766  19.748  0.00  0.00    +0.000 A 
ATOM     28  C   UNL     1       1.206   3.133  21.031  0.00  0.00    +0.000 A 
ATOM     29  C   UNL     1       2.196   4.148  21.188  0.00  0.00    +0.000 A 
ATOM     30  C   UNL     1       2.716   4.729  20.048  0.00  0.00    +0.000 A 
ATOM     31  N   UNL     1       3.428   5.964  19.822  0.00  0.00    +0.000 N 
ATOM     32  H   UNL     1       4.307   5.822  20.343  0.00  0.00    +0.000 HD
ENDBRANCH  19  20
ENDBRANCH  18  19
ENDBRANCH  17  18
ENDBRANCH   5  17
TORSDOF 6
ENDMDL
MODEL 2
REMARK VINA RESULT:      -8.2      0.606      1.021
REMARK  Name = 
REMARK  7 active torsions:
REMARK  status: ('A' for Active; 'I' for Inactive)
REMARK    1  A    between atoms: C_1  and  O_2
REMARK    2  A    between atoms: O_2  and  C_3
REMARK    3  A    between atoms: C_6  and  N_7
REMARK    4  A    between atoms: C_11  and  C_13
REMARK    5  A    between atoms: C_13  and  C_14
REMARK    6  A    between atoms: C_14  and  C_15
REMARK    7  A    between atoms: C_15  and  C_16
REMARK                            x       y       z     vdW  Elec       q    Type
REMARK                         _______ _______ _______ _____ _____    ______ ____
ROOT
ATOM      1  N   UNL     1      -1.095  12.124  21.487  0.00  0.00    +0.000 N 
ATOM      2  C   UNL     1      -0.254  11.164  22.228  0.00  0.00    +0.000 C 
ATOM      3  C   UNL     1      -0.220   9.808  21.489  0.00  0.00    +0.000 C 
ATOM      4  N   UNL     1       0.169   9.948  20.073  0.00  0.00    +0.000 N 
ATOM      5  C   UNL     1       1.207   9.161  19.577  0.00  0.00    +0.000 C 
ATOM      6  O   UNL     1       1.868   8.430  20.324  0.00  0.00    +0.000 OA
ATOM      7  C   UNL     1      -0.660  10.917  19.340  0.00  0.00    +0.000 C 
ATOM      8  C   UNL     1      -0.720  12.286  20.068  0.00  0.00    +0.000 C 
ENDROOT
BRANCH   1  12
ATOM      9  C   UNL     1      -4.407  13.995  23.373  0.00  0.00    +0.000 A 
ATOM     10  C   UNL     1      -3.147  14.020  23.960  0.00  0.00    +0.000 A 
ATOM     11  C   UNL     1      -2.045  13.435  23.314  0.00  0.00    +0.000 A 
ATOM     12  C   UNL     1      -2.165  12.766  22.085  0.00  0.00    +0.000 A 
ATOM     13  C   UNL     1      -3.446  12.768  21.514  0.00  0.00    +0.000 A 
ATOM     14  C   UNL     1      -4.550  13.363  22.139  0.00  0.00    +0.000 A 
BRANCH   9  16
ATOM     15  C   UNL     1      -6.730  14.141  23.739  0.00  0.00    +0.000 C 
ATOM     16  O   UNL     1      -5.418  14.577  24.084  0.00  0.00    +0.000 OA
ENDBRANCH   9  16
ENDBRANCH   1  12
BRANCH   5  17
ATOM     17  C   UNL     1       1.534   9.218  18.086  0.00  0.00    +0.000 C 
BRANCH  17  18
ATOM     18  C   UNL     1       2.119   7.908  17.476  0.00  0.00    +0.000 C 
BRANCH  18  19
ATOM     19  C   UNL     1       3.593   7.447  17.798  0.00  0.00    +0.000 C 
BRANCH  19  20
ATOM     20  C   UNL     1       3.848   6.073  18.479  0.00  0.00    +0.000 C 
ATOM     21  N   UNL     1       4.315   5.168  17.711  0.00  0.00    +0.000 NA
ATOM     22  S   UNL     1       4.302   3.693  18.358  0.00  0.00    +0.000 S 
ATOM     23  O   UNL     1       4.235   2.701  17.311  0.00  0.00    +0.000 OA
ATOM     24  O   UNL     1       5.312   3.595  19.399  0.00  0.00    +0.000 OA
ATOM     25  C   UNL     1       2.698   3.769  19.078  0.00  0.00    +0.000 A 
ATOM     26  C   UNL     1       1.592   2.994  18.804  0.00  0.00    +0.000 A 
ATOM     27  C   UNL     1       0.744   2.746  19.864  0.00  0.00    +0.000 A 
ATOM     28  C   UNL     1       1.184   3.106  21.141  0.00  0.00    +0.000 A 
ATOM     29  C   UNL     1       2.214   4.082  21.284  0.00  0.00    +0.000 A 
ATOM     30  C   UNL     1       2.748   4.633  20.136  0.00  0.00    +0.000 A 
ATOM     31  N   UNL     1       3.506   5.838  19.896  0.00  0.00    +0.000 N 
ATOM     32  H   UNL     1       4.383   5.666  20.412  0.00  0.00    +0.000 HD
ENDBRANCH  19  20
ENDBRANCH  18  19
ENDBRANCH  17  18
ENDBRANCH   5  17
TORSDOF 6
ENDMDL
MODEL 3
REMARK VINA RESULT:      -8.0      2.370      2.868
REMARK  Name = 
REMARK  7 active torsions:
REMARK  status: ('A' for Active; 'I' for Inactive)
REMARK    1  A    between atoms: C_1  and  O_2
REMARK    2  A    between atoms: O_2  and  C_3
REMARK    3  A    between atoms: C_6  and  N_7
REMARK    4  A    between atoms: C_11  and  C_13
REMARK    5  A    between atoms: C_13  and  C_14
REMARK    6  A    between atoms: C_14  and  C_15
REMARK    7  A    between atoms: C_15  and  C_16
REMARK                            x       y       z     vdW  Elec       q    Type
REMARK                         _______ _______ _______ _____ _____    ______ ____
ROOT
ATOM      1  N   UNL     1      -2.630  11.291  18.113  0.00  0.00    +0.000 N 
ATOM      2  C   UNL     1      -1.550  12.222  17.732  0.00  0.00    +0.000 C 
ATOM      3  C   UNL     1      -0.355  12.072  18.699  0.00  0.00    +0.000 C 
ATOM      4  N   UNL     1       0.100  10.674  18.819  0.00  0.00    +0.000 N 
ATOM      5  C   UNL     1       1.450  10.385  18.626  0.00  0.00    +0.000 C 
ATOM      6  O   UNL     1       2.244  11.257  18.257  0.00  0.00    +0.000 OA
ATOM      7  C   UNL     1      -0.980   9.744  19.183  0.00  0.00    +0.000 C 
ATOM      8  C   UNL     1      -2.199   9.883  18.232  0.00  0.00    +0.000 C 
ENDROOT
BRANCH   1  12
ATOM      9  C   UNL     1      -6.541  12.755  18.880  0.00  0.00    +0.000 A 
ATOM     10  C   UNL     1      -6.225  12.175  17.657  0.00  0.00    +0.000 A 
ATOM     11  C   UNL     1      -4.942  11.655  17.420  0.00  0.00    +0.000 A 
ATOM     12  C   UNL     1      -3.914  11.733  18.375  0.00  0.00    +0.000 A 
ATOM     13  C   UNL     1      -4.267  12.314  19.602  0.00  0.00    +0.000 A 
ATOM     14  C   UNL     1      -5.548  12.821  19.856  0.00  0.00    +0.000 A 
BRANCH   9  16
ATOM     15  C   UNL     1      -7.916  14.464  19.739  0.00  0.00    +0.000 C 
ATOM     16  O   UNL     1      -7.809  13.245  19.010  0.00  0.00    +0.000 OA
ENDBRANCH   9  16
ENDBRANCH   1  12
BRANCH   5  17
ATOM     17  C   UNL     1       1.944   8.959  18.864  0.00  0.00    +0.000 C 
BRANCH  17  18
ATOM     18  C   UNL     1       2.402   8.186  17.590  0.00  0.00    +0.000 C 
BRANCH  18  19
ATOM     19  C   UNL     1       3.796   7.447  17.543  0.00  0.00    +0.000 C 
BRANCH  19  20
ATOM     20  C   UNL     1       3.990   6.101  18.295  0.00  0.00    +0.000 C 
ATOM     21  N   UNL     1       4.469   5.152  17.591  0.00  0.00    +0.000 NA
ATOM     22  S   UNL     1       4.394   3.709  18.303  0.00  0.00    +0.000 S 
ATOM     23  O   UNL     1       4.349   2.671  17.299  0.00  0.00    +0.000 OA
ATOM     24  O   UNL     1       5.356   3.638  19.390  0.00  0.00    +0.000 OA
ATOM     25  C   UNL     1       2.763   3.852  18.948  0.00  0.00    +0.000 A 
ATOM     26  C   UNL     1       1.652   3.089  18.661  0.00  0.00    +0.000 A 
ATOM     27  C   UNL     1       0.754   2.908  19.693  0.00  0.00    +0.000 A 
ATOM     28  C   UNL     1       1.147   3.317  20.971  0.00  0.00    +0.000 A 
ATOM     29  C   UNL     1       2.192   4.277  21.113  0.00  0.00    +0.000 A 
ATOM     30  C   UNL     1       2.787   4.763  19.966  0.00  0.00    +0.000 A 
ATOM     31  N   UNL     1       3.582   5.939  19.706  0.00  0.00    +0.000 N 
ATOM     32  H   UNL     1       4.432   5.772  20.267  0.00  0.00    +0.000 HD
ENDBRANCH  19  20
ENDBRANCH  18  19
ENDBRANCH  17  18
ENDBRANCH   5  17
TORSDOF 6
ENDMDL
MODEL 4
REMARK VINA RESULT:      -7.8      1.670      2.009
REMARK  Name = 
REMARK  7 active torsions:
REMARK  status: ('A' for Active; 'I' for Inactive)
REMARK    1  A    between atoms: C_1  and  O_2
REMARK    2  A    between atoms: O_2  and  C_3
REMARK    3  A    between atoms: C_6  and  N_7
REMARK    4  A    between atoms: C_11  and  C_13
REMARK    5  A    between atoms: C_13  and  C_14
REMARK    6  A    between atoms: C_14  and  C_15
REMARK    7  A    between atoms: C_15  and  C_16
REMARK                            x       y       z     vdW  Elec       q    Type
REMARK                         _______ _______ _______ _____ _____    ______ ____
ROOT
ATOM      1  N   UNL     1      -0.809  12.814  20.800  0.00  0.00    +0.000 N 
ATOM      2  C   UNL     1       0.334  13.460  20.124  0.00  0.00    +0.000 C 
ATOM      3  C   UNL     1       1.499  12.457  19.977  0.00  0.00    +0.000 C 
ATOM      4  N   UNL     1       1.081  11.198  19.333  0.00  0.00    +0.000 N 
ATOM      5  C   UNL     1       1.801  10.731  18.235  0.00  0.00    +0.000 C 
ATOM      6  O   UNL     1       2.711  11.401  17.734  0.00  0.00    +0.000 OA
ATOM      7  C   UNL     1      -0.067  10.563  19.997  0.00  0.00    +0.000 C 
ATOM      8  C   UNL     1      -1.250  11.554  20.168  0.00  0.00    +0.000 C 
ENDROOT
BRANCH   1  12
ATOM      9  C   UNL     1      -2.571  14.513  24.268  0.00  0.00    +0.000 A 
ATOM     10  C   UNL     1      -3.208  13.490  23.575  0.00  0.00    +0.000 A 
ATOM     11  C   UNL     1      -2.603  12.902  22.452  0.00  0.00    +0.000 A 
ATOM     12  C   UNL     1      -1.366  13.341  21.950  0.00  0.00    +0.000 A 
ATOM     13  C   UNL     1      -0.746  14.367  22.678  0.00  0.00    +0.000 A 
ATOM     14  C   UNL     1      -1.330  14.950  23.810  0.00  0.00    +0.000 A 
BRANCH   9  16
ATOM     15  C   UNL     1      -3.883  16.284  25.104  0.00  0.00    +0.000 C 
ATOM     16  O   UNL     1      -3.245  15.031  25.338  0.00  0.00    +0.000 OA
ENDBRANCH   9  16
ENDBRANCH   1  12
BRANCH   5  17
ATOM     17  C   UNL     1       1.444   9.370  17.639  0.00  0.00    +0.000 C 
BRANCH  17  18
ATOM     18  C   UNL     1       1.967   8.133  18.431  0.00  0.00    +0.000 C 
BRANCH  18  19
ATOM     19  C   UNL     1       3.361   7.476  18.088  0.00  0.00    +0.000 C 
BRANCH  19  20
ATOM     20  C   UNL     1       3.716   6.070  18.646  0.00  0.00    +0.000 C 
ATOM     21  N   UNL     1       4.174   5.247  17.785  0.00  0.00    +0.000 NA
ATOM     22  S   UNL     1       4.265   3.730  18.318  0.00  0.00    +0.000 S 
ATOM     23  O   UNL     1       4.175   2.815  17.204  0.00  0.00    +0.000 OA
ATOM     24  O   UNL     1       5.341   3.604  19.286  0.00  0.00    +0.000 OA
ATOM     25  C   UNL     1       2.707   3.675  19.136  0.00  0.00    +0.000 A 
ATOM     26  C   UNL     1       1.621   2.871  18.869  0.00  0.00    +0.000 A 
ATOM     27  C   UNL     1       0.853   2.506  19.956  0.00  0.00    +0.000 A 
ATOM     28  C   UNL     1       1.356   2.792  21.229  0.00  0.00    +0.000 A 
ATOM     29  C   UNL     1       2.349   3.803  21.384  0.00  0.00    +0.000 A 
ATOM     30  C   UNL     1       2.786   4.462  20.251  0.00  0.00    +0.000 A 
ATOM     31  N   UNL     1       3.475   5.716  20.060  0.00  0.00    +0.000 N 
ATOM     32  H   UNL     1       4.389   5.548  20.508  0.00  0.00    +0.000 HD
ENDBRANCH  19  20
ENDBRANCH  18  19
ENDBRANCH  17  18
ENDBRANCH   5  17
TORSDOF 6
ENDMDL
MODEL 5
REMARK VINA RESULT:      -7.8      8.163      9.138
REMARK  Name = 
REMARK  7 active torsions:
REMARK  status: ('A' for Active; 'I' for Inactive)
REMARK    1  A    between atoms: C_1  and  O_2
REMARK    2  A    between atoms: O_2  and  C_3
REMARK    3  A    between atoms: C_6  and  N_7
REMARK    4  A    between atoms: C_11  and  C_13
REMARK    5  A    between atoms: C_13  and  C_14
REMARK    6  A    between atoms: C_14  and  C_15
REMARK    7  A    between atoms: C_15  and  C_16
REMARK                            x       y       z     vdW  Elec       q    Type
REMARK                         _______ _______ _______ _____ _____    ______ ____
ROOT
ATOM      1  N   UNL     1       8.312  13.035  22.364  0.00  0.00    +0.000 N 
ATOM      2  C   UNL     1       7.855  13.819  21.200  0.00  0.00    +0.000 C 
ATOM      3  C   UNL     1       8.884  13.712  20.052  0.00  0.00    +0.000 C 
ATOM      4  N   UNL     1       9.210  12.314  19.717  0.00  0.00    +0.000 N 
ATOM      5  C   UNL     1       9.115  11.898  18.390  0.00  0.00    +0.000 C 
ATOM      6  O   UNL     1       8.666  12.648  17.516  0.00  0.00    +0.000 OA
ATOM      7  C   UNL     1       9.650  11.529  20.880  0.00  0.00    +0.000 C 
ATOM      8  C   UNL     1       8.638  11.628  22.054  0.00  0.00    +0.000 C 
ENDROOT
BRANCH   1  12
ATOM      9  C   UNL     1       8.867  14.758  26.204  0.00  0.00    +0.000 A 
ATOM     10  C   UNL     1       9.016  15.523  25.052  0.00  0.00    +0.000 A 
ATOM     11  C   UNL     1       8.793  14.960  23.785  0.00  0.00    +0.000 A 
ATOM     12  C   UNL     1       8.457  13.606  23.615  0.00  0.00    +0.000 A 
ATOM     13  C   UNL     1       8.303  12.865  24.796  0.00  0.00    +0.000 A 
ATOM     14  C   UNL     1       8.507  13.419  26.066  0.00  0.00    +0.000 A 
BRANCH   9  16
ATOM     15  C   UNL     1       9.803  14.603  28.361  0.00  0.00    +0.000 C 
ATOM     16  O   UNL     1       9.121  15.390  27.388  0.00  0.00    +0.000 OA
ENDBRANCH   9  16
ENDBRANCH   1  12
BRANCH   5  17
ATOM     17  C   UNL     1       9.564  10.485  18.022  0.00  0.00    +0.000 C 
BRANCH  17  18
ATOM     18  C   UNL     1       8.633   9.335  18.514  0.00  0.00    +0.000 C 
BRANCH  18  19
ATOM     19  C   UNL     1       7.587   8.662  17.544  0.00  0.00    +0.000 C 
BRANCH  19  20
ATOM     20  C   UNL     1       7.433   7.116  17.516  0.00  0.00    +0.000 C 
ATOM     21  N   UNL     1       7.616   6.575  16.375  0.00  0.00    +0.000 NA
ATOM     22  S   UNL     1       7.177   5.027  16.309  0.00  0.00    +0.000 S 
ATOM     23  O   UNL     1       6.821   4.677  14.954  0.00  0.00    +0.000 OA
ATOM     24  O   UNL     1       8.118   4.209  17.055  0.00  0.00    +0.000 OA
ATOM     25  C   UNL     1       5.666   5.174  17.200  0.00  0.00    +0.000 A 
ATOM     26  C   UNL     1       4.382   4.924  16.768  0.00  0.00    +0.000 A 
ATOM     27  C   UNL     1       3.502   4.447  17.717  0.00  0.00    +0.000 A 
ATOM     28  C   UNL     1       4.032   4.057  18.951  0.00  0.00    +0.000 A 
ATOM     29  C   UNL     1       5.301   4.559  19.364  0.00  0.00    +0.000 A 
ATOM     30  C   UNL     1       5.968   5.415  18.511  0.00  0.00    +0.000 A 
ATOM     31  N   UNL     1       7.043   6.356  18.721  0.00  0.00    +0.000 N 
ATOM     32  H   UNL     1       7.834   5.748  18.986  0.00  0.00    +0.000 HD
ENDBRANCH  19  20
ENDBRANCH  18  19
ENDBRANCH  17  18
ENDBRANCH   5  17
TORSDOF 6
ENDMDL
MODEL 6
REMARK VINA RESULT:      -7.8      3.812      5.521
REMARK  Name = 
REMARK  7 active torsions:
REMARK  status: ('A' for Active; 'I' for Inactive)
REMARK    1  A    between atoms: C_1  and  O_2
REMARK    2  A    between atoms: O_2  and  C_3
REMARK    3  A    between atoms: C_6  and  N_7
REMARK    4  A    between atoms: C_11  and  C_13
REMARK    5  A    between atoms: C_13  and  C_14
REMARK    6  A    between atoms: C_14  and  C_15
REMARK    7  A    between atoms: C_15  and  C_16
REMARK                            x       y       z     vdW  Elec       q    Type
REMARK                         _______ _______ _______ _____ _____    ______ ____
ROOT
ATOM      1  N   UNL     1       1.270  10.002  19.086  0.00  0.00    +0.000 N 
ATOM      2  C   UNL     1       1.710   9.388  17.817  0.00  0.00    +0.000 C 
ATOM      3  C   UNL     1       2.727   8.261  18.098  0.00  0.00    +0.000 C 
ATOM      4  N   UNL     1       2.224   7.276  19.074  0.00  0.00    +0.000 N 
ATOM      5  C   UNL     1       2.258   5.922  18.745  0.00  0.00    +0.000 C 
ATOM      6  O   UNL     1       2.603   5.546  17.620  0.00  0.00    +0.000 OA
ATOM      7  C   UNL     1       1.772   7.890  20.332  0.00  0.00    +0.000 C 
ATOM      8  C   UNL     1       0.755   9.035  20.077  0.00  0.00    +0.000 C 
ENDROOT
BRANCH   1  12
ATOM      9  C   UNL     1       1.533  14.189  19.734  0.00  0.00    +0.000 A 
ATOM     10  C   UNL     1       0.902  13.365  20.658  0.00  0.00    +0.000 A 
ATOM     11  C   UNL     1       0.852  11.975  20.461  0.00  0.00    +0.000 A 
ATOM     12  C   UNL     1       1.388  11.360  19.317  0.00  0.00    +0.000 A 
ATOM     13  C   UNL     1       2.027  12.218  18.410  0.00  0.00    +0.000 A 
ATOM     14  C   UNL     1       2.099  13.603  18.603  0.00  0.00    +0.000 A 
BRANCH   9  16
ATOM     15  C   UNL     1       1.603  15.868  21.386  0.00  0.00    +0.000 C 
ATOM     16  O   UNL     1       1.517  15.528  20.005  0.00  0.00    +0.000 OA
ENDBRANCH   9  16
ENDBRANCH   1  12
BRANCH   5  17
ATOM     17  C   UNL     1       1.846   4.894  19.798  0.00  0.00    +0.000 C 
BRANCH  17  18
ATOM     18  C   UNL     1       2.755   3.631  19.892  0.00  0.00    +0.000 C 
BRANCH  18  19
ATOM     19  C   UNL     1       4.268   3.745  20.326  0.00  0.00    +0.000 C 
BRANCH  19  20
ATOM     20  C   UNL     1       5.365   4.012  19.259  0.00  0.00    +0.000 C 
ATOM     21  N   UNL     1       6.297   4.802  19.627  0.00  0.00    +0.000 NA
ATOM     22  S   UNL     1       7.256   5.284  18.427  0.00  0.00    +0.000 S 
ATOM     23  O   UNL     1       7.834   6.569  18.749  0.00  0.00    +0.000 OA
ATOM     24  O   UNL     1       8.104   4.187  17.992  0.00  0.00    +0.000 OA
ATOM     25  C   UNL     1       6.000   5.587  17.231  0.00  0.00    +0.000 A 
ATOM     26  C   UNL     1       5.659   6.774  16.620  0.00  0.00    +0.000 A 
ATOM     27  C   UNL     1       5.194   6.680  15.325  0.00  0.00    +0.000 A 
ATOM     28  C   UNL     1       5.314   5.444  14.683  0.00  0.00    +0.000 A 
ATOM     29  C   UNL     1       5.464   4.257  15.460  0.00  0.00    +0.000 A 
ATOM     30  C   UNL     1       5.493   4.382  16.834  0.00  0.00    +0.000 A 
ATOM     31  N   UNL     1       5.281   3.434  17.902  0.00  0.00    +0.000 N 
ATOM     32  H   UNL     1       6.068   2.776  17.786  0.00  0.00    +0.000 HD
ENDBRANCH  19  20
ENDBRANCH  18  19
ENDBRANCH  17  18
ENDBRANCH   5  17
TORSDOF 6
ENDMDL
MODEL 7
REMARK VINA RESULT:      -7.7      3.541     11.119
REMARK  Name = 
REMARK  7 active torsions:
REMARK  status: ('A' for Active; 'I' for Inactive)
REMARK    1  A    between atoms: C_1  and  O_2
REMARK    2  A    between atoms: O_2  and  C_3
REMARK    3  A    between atoms: C_6  and  N_7
REMARK    4  A    between atoms: C_11  and  C_13
REMARK    5  A    between atoms: C_13  and  C_14
REMARK    6  A    between atoms: C_14  and  C_15
REMARK    7  A    between atoms: C_15  and  C_16
REMARK                            x       y       z     vdW  Elec       q    Type
REMARK                         _______ _______ _______ _____ _____    ______ ____
ROOT
ATOM      1  N   UNL     1       1.560   8.407  20.067  0.00  0.00    +0.000 N 
ATOM      2  C   UNL     1       1.251   9.488  19.110  0.00  0.00    +0.000 C 
ATOM      3  C   UNL     1      -0.138  10.088  19.419  0.00  0.00    +0.000 C 
ATOM      4  N   UNL     1      -0.272  10.505  20.827  0.00  0.00    +0.000 N 
ATOM      5  C   UNL     1      -0.708  11.799  21.110  0.00  0.00    +0.000 C 
ATOM      6  O   UNL     1      -0.882  12.626  20.208  0.00  0.00    +0.000 OA
ATOM      7  C   UNL     1       0.051   9.432  21.780  0.00  0.00    +0.000 C 
ATOM      8  C   UNL     1       1.440   8.803  21.485  0.00  0.00    +0.000 C 
ENDROOT
BRANCH   1  12
ATOM      9  C   UNL     1       2.659   4.502  18.816  0.00  0.00    +0.000 A 
ATOM     10  C   UNL     1       1.988   4.702  20.017  0.00  0.00    +0.000 A 
ATOM     11  C   UNL     1       1.589   5.990  20.409  0.00  0.00    +0.000 A 
ATOM     12  C   UNL     1       1.884   7.131  19.643  0.00  0.00    +0.000 A 
ATOM     13  C   UNL     1       2.552   6.895  18.433  0.00  0.00    +0.000 A 
ATOM     14  C   UNL     1       2.940   5.613  18.023  0.00  0.00    +0.000 A 
BRANCH   9  16
ATOM     15  C   UNL     1       2.512   2.230  19.425  0.00  0.00    +0.000 C 
ATOM     16  O   UNL     1       3.018   3.215  18.529  0.00  0.00    +0.000 OA
ENDBRANCH   9  16
ENDBRANCH   1  12
BRANCH   5  17
ATOM     17  C   UNL     1      -0.959  12.194  22.564  0.00  0.00    +0.000 C 
BRANCH  17  18
ATOM     18  C   UNL     1      -2.258  13.017  22.820  0.00  0.00    +0.000 C 
BRANCH  18  19
ATOM     19  C   UNL     1      -3.320  12.551  23.891  0.00  0.00    +0.000 C 
BRANCH  19  20
ATOM     20  C   UNL     1      -4.818  12.924  23.715  0.00  0.00    +0.000 C 
ATOM     21  N   UNL     1      -5.645  12.090  24.211  0.00  0.00    +0.000 NA
ATOM     22  S   UNL     1      -7.174  12.347  23.773  0.00  0.00    +0.000 S 
ATOM     23  O   UNL     1      -7.912  11.106  23.824  0.00  0.00    +0.000 OA
ATOM     24  O   UNL     1      -7.690  13.534  24.433  0.00  0.00    +0.000 OA
ATOM     25  C   UNL     1      -6.876  12.681  22.071  0.00  0.00    +0.000 A 
ATOM     26  C   UNL     1      -7.316  11.987  20.966  0.00  0.00    +0.000 A 
ATOM     27  C   UNL     1      -7.561  12.737  19.834  0.00  0.00    +0.000 A 
ATOM     28  C   UNL     1      -7.556  14.129  19.967  0.00  0.00    +0.000 A 
ATOM     29  C   UNL     1      -6.880  14.729  21.070  0.00  0.00    +0.000 A 
ATOM     30  C   UNL     1      -6.258  13.897  21.980  0.00  0.00    +0.000 A 
ATOM     31  N   UNL     1      -5.232  14.130  22.968  0.00  0.00    +0.000 N 
ATOM     32  H   UNL     1      -5.691  14.775  23.630  0.00  0.00    +0.000 HD
ENDBRANCH  19  20
ENDBRANCH  18  19
ENDBRANCH  17  18
ENDBRANCH   5  17
TORSDOF 6
ENDMDL
MODEL 8
REMARK VINA RESULT:      -7.7      1.799      2.269
REMARK  Name = 
REMARK  7 active torsions:
REMARK  status: ('A' for Active; 'I' for Inactive)
REMARK    1  A    between atoms: C_1  and  O_2
REMARK    2  A    between atoms: O_2  and  C_3
REMARK    3  A    between atoms: C_6  and  N_7
REMARK    4  A    between atoms: C_11  and  C_13
REMARK    5  A    between atoms: C_13  and  C_14
REMARK    6  A    between atoms: C_14  and  C_15
REMARK    7  A    between atoms: C_15  and  C_16
REMARK                            x       y       z     vdW  Elec       q    Type
REMARK                         _______ _______ _______ _____ _____    ______ ____
ROOT
ATOM      1  N   UNL     1      -2.873  12.804  22.031  0.00  0.00    +0.000 N 
ATOM      2  C   UNL     1      -3.423  12.622  20.673  0.00  0.00    +0.000 C 
ATOM      3  C   UNL     1      -2.283  12.656  19.631  0.00  0.00    +0.000 C 
ATOM      4  N   UNL     1      -1.199  11.708  19.950  0.00  0.00    +0.000 N 
ATOM      5  C   UNL     1      -0.779  10.809  18.971  0.00  0.00    +0.000 C 
ATOM      6  O   UNL     1      -1.364  10.726  17.886  0.00  0.00    +0.000 OA
ATOM      7  C   UNL     1      -0.663  11.880  21.309  0.00  0.00    +0.000 C 
ATOM      8  C   UNL     1      -1.791  11.861  22.376  0.00  0.00    +0.000 C 
ENDROOT
BRANCH   1  12
ATOM      9  C   UNL     1      -4.229  15.969  24.515  0.00  0.00    +0.000 A 
ATOM     10  C   UNL     1      -5.126  15.229  23.752  0.00  0.00    +0.000 A 
ATOM     11  C   UNL     1      -4.679  14.157  22.962  0.00  0.00    +0.000 A 
ATOM     12  C   UNL     1      -3.320  13.810  22.868  0.00  0.00    +0.000 A 
ATOM     13  C   UNL     1      -2.444  14.569  23.658  0.00  0.00    +0.000 A 
ATOM     14  C   UNL     1      -2.879  15.629  24.463  0.00  0.00    +0.000 A 
BRANCH   9  16
ATOM     15  C   UNL     1      -3.912  18.142  25.371  0.00  0.00    +0.000 C 
ATOM     16  O   UNL     1      -4.756  17.001  25.238  0.00  0.00    +0.000 OA
ENDBRANCH   9  16
ENDBRANCH   1  12
BRANCH   5  17
ATOM     17  C   UNL     1       0.420   9.908  19.259  0.00  0.00    +0.000 C 
BRANCH  17  18
ATOM     18  C   UNL     1       0.923   9.054  18.054  0.00  0.00    +0.000 C 
BRANCH  18  19
ATOM     19  C   UNL     1       2.454   8.710  17.882  0.00  0.00    +0.000 C 
BRANCH  19  20
ATOM     20  C   UNL     1       3.016   7.370  18.430  0.00  0.00    +0.000 C 
ATOM     21  N   UNL     1       3.802   6.750  17.640  0.00  0.00    +0.000 NA
ATOM     22  S   UNL     1       4.142   5.246  18.105  0.00  0.00    +0.000 S 
ATOM     23  O   UNL     1       4.473   4.441  16.952  0.00  0.00    +0.000 OA
ATOM     24  O   UNL     1       5.022   5.267  19.262  0.00  0.00    +0.000 OA
ATOM     25  C   UNL     1       2.517   4.778  18.591  0.00  0.00    +0.000 A 
ATOM     26  C   UNL     1       1.714   3.785  18.073  0.00  0.00    +0.000 A 
ATOM     27  C   UNL     1       0.865   3.162  18.965  0.00  0.00    +0.000 A 
ATOM     28  C   UNL     1       1.046   3.431  20.325  0.00  0.00    +0.000 A 
ATOM     29  C   UNL     1       1.732   4.615  20.725  0.00  0.00    +0.000 A 
ATOM     30  C   UNL     1       2.205   5.455  19.737  0.00  0.00    +0.000 A 
ATOM     31  N   UNL     1       2.608   6.842  19.748  0.00  0.00    +0.000 N 
ATOM     32  H   UNL     1       3.438   6.836  20.362  0.00  0.00    +0.000 HD
ENDBRANCH  19  20
ENDBRANCH  18  19
ENDBRANCH  17  18
ENDBRANCH   5  17
TORSDOF 6
ENDMDL
MODEL 9
REMARK VINA RESULT:      -7.7      2.812      4.356
REMARK  Name = 
REMARK  7 active torsions:
REMARK  status: ('A' for Active; 'I' for Inactive)
REMARK    1  A    between atoms: C_1  and  O_2
REMARK    2  A    between atoms: O_2  and  C_3
REMARK    3  A    between atoms: C_6  and  N_7
REMARK    4  A    between atoms: C_11  and  C_13
REMARK    5  A    between atoms: C_13  and  C_14
REMARK    6  A    between atoms: C_14  and  C_15
REMARK    7  A    between atoms: C_15  and  C_16
REMARK                            x       y       z     vdW  Elec       q    Type
REMARK                         _______ _______ _______ _____ _____    ______ ____
ROOT
ATOM      1  N   UNL     1       0.073  10.587  19.633  0.00  0.00    +0.000 N 
ATOM      2  C   UNL     1       0.550  10.029  18.351  0.00  0.00    +0.000 C 
ATOM      3  C   UNL     1       1.852   9.230  18.573  0.00  0.00    +0.000 C 
ATOM      4  N   UNL     1       1.717   8.213  19.633  0.00  0.00    +0.000 N 
ATOM      5  C   UNL     1       2.084   6.897  19.358  0.00  0.00    +0.000 C 
ATOM      6  O   UNL     1       2.420   6.553  18.219  0.00  0.00    +0.000 OA
ATOM      7  C   UNL     1       1.227   8.768  20.905  0.00  0.00    +0.000 C 
ATOM      8  C   UNL     1      -0.078   9.586  20.708  0.00  0.00    +0.000 C 
ENDROOT
BRANCH   1  12
ATOM      9  C   UNL     1      -0.588  14.737  20.235  0.00  0.00    +0.000 A 
ATOM     10  C   UNL     1       0.555  14.285  19.586  0.00  0.00    +0.000 A 
ATOM     11  C   UNL     1       0.752  12.914  19.352  0.00  0.00    +0.000 A 
ATOM     12  C   UNL     1      -0.159  11.940  19.795  0.00  0.00    +0.000 A 
ATOM     13  C   UNL     1      -1.306  12.429  20.437  0.00  0.00    +0.000 A 
ATOM     14  C   UNL     1      -1.522  13.795  20.661  0.00  0.00    +0.000 A 
BRANCH   9  16
ATOM     15  C   UNL     1      -1.676  16.743  19.650  0.00  0.00    +0.000 C 
ATOM     16  O   UNL     1      -0.682  16.086  20.430  0.00  0.00    +0.000 OA
ENDBRANCH   9  16
ENDBRANCH   1  12
BRANCH   5  17
ATOM     17  C   UNL     1       2.055   5.868  20.486  0.00  0.00    +0.000 C 
BRANCH  17  18
ATOM     18  C   UNL     1       0.780   4.974  20.546  0.00  0.00    +0.000 C 
BRANCH  18  19
ATOM     19  C   UNL     1       0.781   3.511  19.952  0.00  0.00    +0.000 C 
BRANCH  19  20
ATOM     20  C   UNL     1       2.071   2.934  19.307  0.00  0.00    +0.000 C 
ATOM     21  N   UNL     1       2.828   2.284  20.102  0.00  0.00    +0.000 NA
ATOM     22  S   UNL     1       4.279   1.945  19.489  0.00  0.00    +0.000 S 
ATOM     23  O   UNL     1       5.239   1.799  20.558  0.00  0.00    +0.000 OA
ATOM     24  O   UNL     1       4.162   0.921  18.464  0.00  0.00    +0.000 OA
ATOM     25  C   UNL     1       4.591   3.510  18.747  0.00  0.00    +0.000 A 
ATOM     26  C   UNL     1       5.595   4.412  19.026  0.00  0.00    +0.000 A 
ATOM     27  C   UNL     1       6.053   5.161  17.962  0.00  0.00    +0.000 A 
ATOM     28  C   UNL     1       5.627   4.793  16.682  0.00  0.00    +0.000 A 
ATOM     29  C   UNL     1       4.442   4.015  16.529  0.00  0.00    +0.000 A 
ATOM     30  C   UNL     1       3.760   3.643  17.670  0.00  0.00    +0.000 A 
ATOM     31  N   UNL     1       2.407   3.188  17.891  0.00  0.00    +0.000 N 
ATOM     32  H   UNL     1       2.383   2.286  17.390  0.00  0.00    +0.000 HD
ENDBRANCH  19  20
ENDBRANCH  18  19
ENDBRANCH  17  18
ENDBRANCH   5  17
TORSDOF 6
ENDMDL
