MODEL 1
REMARK VINA RESULT:      -8.1      0.000      0.000
REMARK  Name = 
REMARK  7 active torsions:
REMARK  status: ('A' for Active; 'I' for Inactive)
REMARK    1  A    between atoms: C_1  and  O_2
REMARK    2  A    between atoms: O_2  and  C_3
REMARK    3  A    between atoms: C_6  and  C_7
REMARK    4  A    between atoms: C_8  and  C_9
REMARK    5  A    between atoms: N_11  and  C_12
REMARK    6  A    between atoms: C_15  and  S_16
REMARK    7  A    between atoms: S_16  and  N_17
REMARK                            x       y       z     vdW  Elec       q    Type
REMARK                         _______ _______ _______ _____ _____    ______ ____
ROOT
ATOM      1  C   UNL     1       7.591   7.317  18.084  0.00  0.00    +0.000 C 
ATOM      2  O   UNL     1       8.250   6.570  18.797  0.00  0.00    +0.000 OA
ATOM      3  N   UNL     1       6.379   7.028  17.490  0.00  0.00    +0.000 N 
ATOM      4  H   UNL     1       6.022   7.662  16.789  0.00  0.00    +0.000 HD
ENDROOT
BRANCH   3   5
ATOM      5  C   UNL     1       5.611   5.870  17.750  0.00  0.00    +0.000 A 
ATOM      6  C   UNL     1       5.084   5.587  19.016  0.00  0.00    +0.000 A 
ATOM      7  C   UNL     1       4.306   4.453  19.232  0.00  0.00    +0.000 A 
ATOM      8  C   UNL     1       4.039   3.594  18.171  0.00  0.00    +0.000 A 
ATOM      9  C   UNL     1       4.569   3.846  16.901  0.00  0.00    +0.000 A 
ATOM     10  C   UNL     1       5.342   4.995  16.690  0.00  0.00    +0.000 A 
BRANCH   8  11
ATOM     11  S   UNL     1       3.009   2.188  18.452  0.00  0.00    +0.000 S 
ATOM     12  O   UNL     1       2.556   2.197  19.824  0.00  0.00    +0.000 OA
ATOM     13  O   UNL     1       2.112   2.014  17.335  0.00  0.00    +0.000 OA
BRANCH  11  14
ATOM     14  N   UNL     1       4.132   0.943  18.344  0.00  0.00    +0.000 NA
ATOM     15  H   UNL     1       5.072   1.326  18.261  0.00  0.00    +0.000 HD
ATOM     16  H   UNL     1       4.008   0.292  19.119  0.00  0.00    +0.000 HD
ENDBRANCH  11  14
ENDBRANCH   8  11
ENDBRANCH   3   5
BRANCH   1  18
ATOM     17  C   UNL     1       8.781   9.323  18.726  0.00  0.00    +0.000 C 
ATOM     18  C   UNL     1       8.086   8.684  17.771  0.00  0.00    +0.000 C 
BRANCH  17  22
ATOM     19  C   UNL     1      10.146  13.363  18.411  0.00  0.00    +0.000 A 
ATOM     20  C   UNL     1       9.050  12.917  17.672  0.00  0.00    +0.000 A 
ATOM     21  C   UNL     1       8.608  11.597  17.794  0.00  0.00    +0.000 A 
ATOM     22  C   UNL     1       9.276  10.700  18.635  0.00  0.00    +0.000 A 
ATOM     23  C   UNL     1      10.366  11.157  19.383  0.00  0.00    +0.000 A 
ATOM     24  C   UNL     1      10.802  12.478  19.265  0.00  0.00    +0.000 A 
BRANCH  19  26
ATOM     25  C   UNL     1      11.207  14.915  16.984  0.00  0.00    +0.000 C 
ATOM     26  O   UNL     1      10.503  14.665  18.195  0.00  0.00    +0.000 OA
ENDBRANCH  19  26
ENDBRANCH  17  22
ENDBRANCH   1  18
TORSDOF 6
ENDMDL
MODEL 2
REMARK VINA RESULT:      -8.0      0.526      1.135
REMARK  Name = 
REMARK  7 active torsions:
REMARK  status: ('A' for Active; 'I' for Inactive)
REMARK    1  A    between atoms: C_1  and  O_2
REMARK    2  A    between atoms: O_2  and  C_3
REMARK    3  A    between atoms: C_6  and  C_7
REMARK    4  A    between atoms: C_8  and  C_9
REMARK    5  A    between atoms: N_11  and  C_12
REMARK    6  A    between atoms: C_15  and  S_16
REMARK    7  A    between atoms: S_16  and  N_17
REMARK                            x       y       z     vdW  Elec       q    Type
REMARK                         _______ _______ _______ _____ _____    ______ ____
ROOT
ATOM      1  C   UNL     1       7.609   7.338  18.019  0.00  0.00    +0.000 C 
ATOM      2  O   UNL     1       8.233   6.641  18.810  0.00  0.00    +0.000 OA
ATOM      3  N   UNL     1       6.435   7.000  17.376  0.00  0.00    +0.000 N 
ATOM      4  H   UNL     1       6.113   7.589  16.620  0.00  0.00    +0.000 HD
ENDROOT
BRANCH   3   5
ATOM      5  C   UNL     1       5.663   5.851  17.659  0.00  0.00    +0.000 A 
ATOM      6  C   UNL     1       5.362   5.452  18.966  0.00  0.00    +0.000 A 
ATOM      7  C   UNL     1       4.574   4.331  19.212  0.00  0.00    +0.000 A 
ATOM      8  C   UNL     1       4.070   3.602  18.139  0.00  0.00    +0.000 A 
ATOM      9  C   UNL     1       4.372   3.969  16.824  0.00  0.00    +0.000 A 
ATOM     10  C   UNL     1       5.157   5.105  16.586  0.00  0.00    +0.000 A 
BRANCH   8  11
ATOM     11  S   UNL     1       3.032   2.212  18.468  0.00  0.00    +0.000 S 
ATOM     12  O   UNL     1       2.594   2.260  19.844  0.00  0.00    +0.000 OA
ATOM     13  O   UNL     1       2.121   2.016  17.366  0.00  0.00    +0.000 OA
BRANCH  11  14
ATOM     14  N   UNL     1       4.143   0.955  18.380  0.00  0.00    +0.000 NA
ATOM     15  H   UNL     1       3.661   0.058  18.418  0.00  0.00    +0.000 HD
ATOM     16  H   UNL     1       4.745   1.076  17.565  0.00  0.00    +0.000 HD
ENDBRANCH  11  14
ENDBRANCH   8  11
ENDBRANCH   3   5
BRANCH   1  18
ATOM     17  C   UNL     1       8.742   9.393  18.608  0.00  0.00    +0.000 C 
ATOM     18  C   UNL     1       8.109   8.691  17.655  0.00  0.00    +0.000 C 
BRANCH  17  22
ATOM     19  C   UNL     1      10.251  13.375  18.222  0.00  0.00    +0.000 A 
ATOM     20  C   UNL     1      10.995  12.385  18.866  0.00  0.00    +0.000 A 
ATOM     21  C   UNL     1      10.495  11.086  18.974  0.00  0.00    +0.000 A 
ATOM     22  C   UNL     1       9.229  10.768  18.466  0.00  0.00    +0.000 A 
ATOM     23  C   UNL     1       8.495  11.761  17.810  0.00  0.00    +0.000 A 
ATOM     24  C   UNL     1       9.000  13.057  17.697  0.00  0.00    +0.000 A 
BRANCH  19  26
ATOM     25  C   UNL     1      10.400  15.512  19.211  0.00  0.00    +0.000 C 
ATOM     26  O   UNL     1      10.829  14.613  18.195  0.00  0.00    +0.000 OA
ENDBRANCH  19  26
ENDBRANCH  17  22
ENDBRANCH   1  18
TORSDOF 6
ENDMDL
MODEL 3
REMARK VINA RESULT:      -7.9      1.213      1.603
REMARK  Name = 
REMARK  7 active torsions:
REMARK  status: ('A' for Active; 'I' for Inactive)
REMARK    1  A    between atoms: C_1  and  O_2
REMARK    2  A    between atoms: O_2  and  C_3
REMARK    3  A    between atoms: C_6  and  C_7
REMARK    4  A    between atoms: C_8  and  C_9
REMARK    5  A    between atoms: N_11  and  C_12
REMARK    6  A    between atoms: C_15  and  S_16
REMARK    7  A    between atoms: S_16  and  N_17
REMARK                            x       y       z     vdW  Elec       q    Type
REMARK                         _______ _______ _______ _____ _____    ______ ____
ROOT
ATOM      1  C   UNL     1       7.220   7.345  17.298  0.00  0.00    +0.000 C 
ATOM      2  O   UNL     1       7.761   6.465  16.640  0.00  0.00    +0.000 OA
ATOM      3  N   UNL     1       5.993   7.262  17.927  0.00  0.00    +0.000 N 
ATOM      4  H   UNL     1       5.580   8.110  18.291  0.00  0.00    +0.000 HD
ENDROOT
BRANCH   3   5
ATOM      5  C   UNL     1       5.233   6.078  18.057  0.00  0.00    +0.000 A 
ATOM      6  C   UNL     1       4.243   5.716  17.137  0.00  0.00    +0.000 A 
ATOM      7  C   UNL     1       3.532   4.527  17.277  0.00  0.00    +0.000 A 
ATOM      8  C   UNL     1       3.819   3.682  18.345  0.00  0.00    +0.000 A 
ATOM      9  C   UNL     1       4.790   4.030  19.288  0.00  0.00    +0.000 A 
ATOM     10  C   UNL     1       5.508   5.224  19.133  0.00  0.00    +0.000 A 
BRANCH   8  11
ATOM     11  S   UNL     1       2.942   2.155  18.480  0.00  0.00    +0.000 S 
ATOM     12  O   UNL     1       2.381   2.044  19.806  0.00  0.00    +0.000 OA
ATOM     13  O   UNL     1       2.165   1.935  17.283  0.00  0.00    +0.000 OA
BRANCH  11  14
ATOM     14  N   UNL     1       4.208   1.053  18.419  0.00  0.00    +0.000 NA
ATOM     15  H   UNL     1       4.963   1.353  19.035  0.00  0.00    +0.000 HD
ATOM     16  H   UNL     1       3.862   0.112  18.604  0.00  0.00    +0.000 HD
ENDBRANCH  11  14
ENDBRANCH   8  11
ENDBRANCH   3   5
BRANCH   1  18
ATOM     17  C   UNL     1       8.589   8.858  18.598  0.00  0.00    +0.000 C 
ATOM     18  C   UNL     1       7.880   8.666  17.473  0.00  0.00    +0.000 C 
BRANCH  17  22
ATOM     19  C   UNL     1      10.484  12.548  19.634  0.00  0.00    +0.000 A 
ATOM     20  C   UNL     1      10.351  12.160  18.300  0.00  0.00    +0.000 A 
ATOM     21  C   UNL     1       9.718  10.958  17.976  0.00  0.00    +0.000 A 
ATOM     22  C   UNL     1       9.238  10.114  18.985  0.00  0.00    +0.000 A 
ATOM     23  C   UNL     1       9.364  10.515  20.319  0.00  0.00    +0.000 A 
ATOM     24  C   UNL     1       9.989  11.721  20.641  0.00  0.00    +0.000 A 
BRANCH  19  26
ATOM     25  C   UNL     1      10.565  14.590  20.815  0.00  0.00    +0.000 C 
ATOM     26  O   UNL     1      11.138  13.732  19.834  0.00  0.00    +0.000 OA
ENDBRANCH  19  26
ENDBRANCH  17  22
ENDBRANCH   1  18
TORSDOF 6
ENDMDL
MODEL 4
REMARK VINA RESULT:      -7.9      0.867      1.027
REMARK  Name = 
REMARK  7 active torsions:
REMARK  status: ('A' for Active; 'I' for Inactive)
REMARK    1  A    between atoms: C_1  and  O_2
REMARK    2  A    between atoms: O_2  and  C_3
REMARK    3  A    between atoms: C_6  and  C_7
REMARK    4  A    between atoms: C_8  and  C_9
REMARK    5  A    between atoms: N_11  and  C_12
REMARK    6  A    between atoms: C_15  and  S_16
REMARK    7  A    between atoms: S_16  and  N_17
REMARK                            x       y       z     vdW  Elec       q    Type
REMARK                         _______ _______ _______ _____ _____    ______ ____
ROOT
ATOM      1  C   UNL     1       7.584   7.396  18.002  0.00  0.00    +0.000 C 
ATOM      2  O   UNL     1       8.256   6.641  18.695  0.00  0.00    +0.000 OA
ATOM      3  N   UNL     1       6.373   7.103  17.406  0.00  0.00    +0.000 N 
ATOM      4  H   UNL     1       6.005   7.749  16.721  0.00  0.00    +0.000 HD
ENDROOT
BRANCH   3   5
ATOM      5  C   UNL     1       5.623   5.929  17.641  0.00  0.00    +0.000 A 
ATOM      6  C   UNL     1       5.161   5.575  18.913  0.00  0.00    +0.000 A 
ATOM      7  C   UNL     1       4.398   4.426  19.107  0.00  0.00    +0.000 A 
ATOM      8  C   UNL     1       4.082   3.625  18.015  0.00  0.00    +0.000 A 
ATOM      9  C   UNL     1       4.546   3.947  16.735  0.00  0.00    +0.000 A 
ATOM     10  C   UNL     1       5.305   5.111  16.549  0.00  0.00    +0.000 A 
BRANCH   8  11
ATOM     11  S   UNL     1       3.071   2.199  18.270  0.00  0.00    +0.000 S 
ATOM     12  O   UNL     1       1.976   2.218  17.329  0.00  0.00    +0.000 OA
ATOM     13  O   UNL     1       3.910   1.041  18.468  0.00  0.00    +0.000 OA
BRANCH  11  14
ATOM     14  N   UNL     1       2.400   2.548  19.770  0.00  0.00    +0.000 NA
ATOM     15  H   UNL     1       2.204   3.545  19.842  0.00  0.00    +0.000 HD
ATOM     16  H   UNL     1       1.595   1.946  19.942  0.00  0.00    +0.000 HD
ENDBRANCH  11  14
ENDBRANCH   8  11
ENDBRANCH   3   5
BRANCH   1  18
ATOM     17  C   UNL     1       8.811   9.375  18.658  0.00  0.00    +0.000 C 
ATOM     18  C   UNL     1       8.058   8.777  17.720  0.00  0.00    +0.000 C 
BRANCH  17  22
ATOM     19  C   UNL     1      10.154  13.428  18.438  0.00  0.00    +0.000 A 
ATOM     20  C   UNL     1       9.026  13.007  17.733  0.00  0.00    +0.000 A 
ATOM     21  C   UNL     1       8.592  11.683  17.824  0.00  0.00    +0.000 A 
ATOM     22  C   UNL     1       9.300  10.755  18.598  0.00  0.00    +0.000 A 
ATOM     23  C   UNL     1      10.422  11.187  19.312  0.00  0.00    +0.000 A 
ATOM     24  C   UNL     1      10.850  12.513  19.226  0.00  0.00    +0.000 A 
BRANCH  19  26
ATOM     25  C   UNL     1       9.444  15.597  17.837  0.00  0.00    +0.000 C 
ATOM     26  O   UNL     1      10.499  14.739  18.257  0.00  0.00    +0.000 OA
ENDBRANCH  19  26
ENDBRANCH  17  22
ENDBRANCH   1  18
TORSDOF 6
ENDMDL
MODEL 5
REMARK VINA RESULT:      -7.8      0.902      1.750
REMARK  Name = 
REMARK  7 active torsions:
REMARK  status: ('A' for Active; 'I' for Inactive)
REMARK    1  A    between atoms: C_1  and  O_2
REMARK    2  A    between atoms: O_2  and  C_3
REMARK    3  A    between atoms: C_6  and  C_7
REMARK    4  A    between atoms: C_8  and  C_9
REMARK    5  A    between atoms: N_11  and  C_12
REMARK    6  A    between atoms: C_15  and  S_16
REMARK    7  A    between atoms: S_16  and  N_17
REMARK                            x       y       z     vdW  Elec       q    Type
REMARK                         _______ _______ _______ _____ _____    ______ ____
ROOT
ATOM      1  C   UNL     1       7.493   7.216  17.952  0.00  0.00    +0.000 C 
ATOM      2  O   UNL     1       8.140   6.479  18.687  0.00  0.00    +0.000 OA
ATOM      3  N   UNL     1       6.277   6.927  17.363  0.00  0.00    +0.000 N 
ATOM      4  H   UNL     1       5.931   7.547  16.644  0.00  0.00    +0.000 HD
ENDROOT
BRANCH   3   5
ATOM      5  C   UNL     1       5.493   5.788  17.653  0.00  0.00    +0.000 A 
ATOM      6  C   UNL     1       5.277   4.767  16.721  0.00  0.00    +0.000 A 
ATOM      7  C   UNL     1       4.523   3.643  17.048  0.00  0.00    +0.000 A 
ATOM      8  C   UNL     1       3.985   3.530  18.326  0.00  0.00    +0.000 A 
ATOM      9  C   UNL     1       4.171   4.544  19.270  0.00  0.00    +0.000 A 
ATOM     10  C   UNL     1       4.940   5.667  18.935  0.00  0.00    +0.000 A 
BRANCH   8  11
ATOM     11  S   UNL     1       3.073   2.075  18.738  0.00  0.00    +0.000 S 
ATOM     12  O   UNL     1       3.929   0.920  18.593  0.00  0.00    +0.000 OA
ATOM     13  O   UNL     1       2.285   2.317  19.923  0.00  0.00    +0.000 OA
BRANCH  11  14
ATOM     14  N   UNL     1       1.984   2.007  17.462  0.00  0.00    +0.000 NA
ATOM     15  H   UNL     1       2.234   1.249  16.828  0.00  0.00    +0.000 HD
ATOM     16  H   UNL     1       1.030   1.962  17.818  0.00  0.00    +0.000 HD
ENDBRANCH  11  14
ENDBRANCH   8  11
ENDBRANCH   3   5
BRANCH   1  18
ATOM     17  C   UNL     1       8.638   9.256  18.568  0.00  0.00    +0.000 C 
ATOM     18  C   UNL     1       8.007   8.566  17.603  0.00  0.00    +0.000 C 
BRANCH  17  22
ATOM     19  C   UNL     1      10.182  13.229  18.231  0.00  0.00    +0.000 A 
ATOM     20  C   UNL     1      10.880  12.245  18.932  0.00  0.00    +0.000 A 
ATOM     21  C   UNL     1      10.369  10.949  19.023  0.00  0.00    +0.000 A 
ATOM     22  C   UNL     1       9.138  10.628  18.440  0.00  0.00    +0.000 A 
ATOM     23  C   UNL     1       8.450  11.615  17.727  0.00  0.00    +0.000 A 
ATOM     24  C   UNL     1       8.965  12.909  17.631  0.00  0.00    +0.000 A 
BRANCH  19  26
ATOM     25  C   UNL     1       9.942  15.533  18.684  0.00  0.00    +0.000 C 
ATOM     26  O   UNL     1      10.765  14.465  18.225  0.00  0.00    +0.000 OA
ENDBRANCH  19  26
ENDBRANCH  17  22
ENDBRANCH   1  18
TORSDOF 6
ENDMDL
MODEL 6
REMARK VINA RESULT:      -7.8      0.880      1.429
REMARK  Name = 
REMARK  7 active torsions:
REMARK  status: ('A' for Active; 'I' for Inactive)
REMARK    1  A    between atoms: C_1  and  O_2
REMARK    2  A    between atoms: O_2  and  C_3
REMARK    3  A    between atoms: C_6  and  C_7
REMARK    4  A    between atoms: C_8  and  C_9
REMARK    5  A    between atoms: N_11  and  C_12
REMARK    6  A    between atoms: C_15  and  S_16
REMARK    7  A    between atoms: S_16  and  N_17
REMARK                            x       y       z     vdW  Elec       q    Type
REMARK                         _______ _______ _______ _____ _____    ______ ____
ROOT
ATOM      1  C   UNL     1       7.573   7.351  17.906  0.00  0.00    +0.000 C 
ATOM      2  O   UNL     1       8.154   6.601  18.681  0.00  0.00    +0.000 OA
ATOM      3  N   UNL     1       6.398   7.084  17.231  0.00  0.00    +0.000 N 
ATOM      4  H   UNL     1       6.114   7.713  16.492  0.00  0.00    +0.000 HD
ENDROOT
BRANCH   3   5
ATOM      5  C   UNL     1       5.576   5.958  17.459  0.00  0.00    +0.000 A 
ATOM      6  C   UNL     1       5.117   5.140  16.420  0.00  0.00    +0.000 A 
ATOM      7  C   UNL     1       4.332   4.020  16.682  0.00  0.00    +0.000 A 
ATOM      8  C   UNL     1       4.009   3.704  17.997  0.00  0.00    +0.000 A 
ATOM      9  C   UNL     1       4.441   4.515  19.051  0.00  0.00    +0.000 A 
ATOM     10  C   UNL     1       5.238   5.635  18.780  0.00  0.00    +0.000 A 
BRANCH   8  11
ATOM     11  S   UNL     1       3.055   2.251  18.313  0.00  0.00    +0.000 S 
ATOM     12  O   UNL     1       1.878   2.265  17.477  0.00  0.00    +0.000 OA
ATOM     13  O   UNL     1       3.932   1.108  18.409  0.00  0.00    +0.000 OA
BRANCH  11  14
ATOM     14  N   UNL     1       2.518   2.556  19.875  0.00  0.00    +0.000 NA
ATOM     15  H   UNL     1       2.003   3.435  19.903  0.00  0.00    +0.000 HD
ATOM     16  H   UNL     1       2.000   1.752  20.230  0.00  0.00    +0.000 HD
ENDBRANCH  11  14
ENDBRANCH   8  11
ENDBRANCH   3   5
BRANCH   1  18
ATOM     17  C   UNL     1       8.713   9.366  18.608  0.00  0.00    +0.000 C 
ATOM     18  C   UNL     1       8.133   8.694  17.600  0.00  0.00    +0.000 C 
BRANCH  17  22
ATOM     19  C   UNL     1      10.183  13.370  18.314  0.00  0.00    +0.000 A 
ATOM     20  C   UNL     1       9.024  12.980  17.642  0.00  0.00    +0.000 A 
ATOM     21  C   UNL     1       8.549  11.672  17.757  0.00  0.00    +0.000 A 
ATOM     22  C   UNL     1       9.245  10.729  18.522  0.00  0.00    +0.000 A 
ATOM     23  C   UNL     1      10.398  11.129  19.204  0.00  0.00    +0.000 A 
ATOM     24  C   UNL     1      10.868  12.439  19.093  0.00  0.00    +0.000 A 
BRANCH  19  26
ATOM     25  C   UNL     1       9.506  15.592  17.896  0.00  0.00    +0.000 C 
ATOM     26  O   UNL     1      10.566  14.666  18.111  0.00  0.00    +0.000 OA
ENDBRANCH  19  26
ENDBRANCH  17  22
ENDBRANCH   1  18
TORSDOF 6
ENDMDL
MODEL 7
REMARK VINA RESULT:      -7.8      0.842      1.075
REMARK  Name = 
REMARK  7 active torsions:
REMARK  status: ('A' for Active; 'I' for Inactive)
REMARK    1  A    between atoms: C_1  and  O_2
REMARK    2  A    between atoms: O_2  and  C_3
REMARK    3  A    between atoms: C_6  and  C_7
REMARK    4  A    between atoms: C_8  and  C_9
REMARK    5  A    between atoms: N_11  and  C_12
REMARK    6  A    between atoms: C_15  and  S_16
REMARK    7  A    between atoms: S_16  and  N_17
REMARK                            x       y       z     vdW  Elec       q    Type
REMARK                         _______ _______ _______ _____ _____    ______ ____
ROOT
ATOM      1  C   UNL     1       7.693   7.779  17.884  0.00  0.00    +0.000 C 
ATOM      2  O   UNL     1       8.200   7.056  18.734  0.00  0.00    +0.000 OA
ATOM      3  N   UNL     1       6.577   7.493  17.124  0.00  0.00    +0.000 N 
ATOM      4  H   UNL     1       6.361   8.093  16.340  0.00  0.00    +0.000 HD
ENDROOT
BRANCH   3   5
ATOM      5  C   UNL     1       5.729   6.380  17.324  0.00  0.00    +0.000 A 
ATOM      6  C   UNL     1       6.193   5.062  17.269  0.00  0.00    +0.000 A 
ATOM      7  C   UNL     1       5.338   3.988  17.501  0.00  0.00    +0.000 A 
ATOM      8  C   UNL     1       4.002   4.232  17.803  0.00  0.00    +0.000 A 
ATOM      9  C   UNL     1       3.509   5.540  17.847  0.00  0.00    +0.000 A 
ATOM     10  C   UNL     1       4.380   6.615  17.623  0.00  0.00    +0.000 A 
BRANCH   8  11
ATOM     11  S   UNL     1       2.943   2.861  18.144  0.00  0.00    +0.000 S 
ATOM     12  O   UNL     1       2.624   2.844  19.553  0.00  0.00    +0.000 OA
ATOM     13  O   UNL     1       1.935   2.760  17.115  0.00  0.00    +0.000 OA
BRANCH  11  14
ATOM     14  N   UNL     1       3.993   1.575  17.891  0.00  0.00    +0.000 NA
ATOM     15  H   UNL     1       4.957   1.905  17.894  0.00  0.00    +0.000 HD
ATOM     16  H   UNL     1       3.801   0.829  18.559  0.00  0.00    +0.000 HD
ENDBRANCH  11  14
ENDBRANCH   8  11
ENDBRANCH   3   5
BRANCH   1  18
ATOM     17  C   UNL     1       8.938   9.737  18.568  0.00  0.00    +0.000 C 
ATOM     18  C   UNL     1       8.289   9.105  17.576  0.00  0.00    +0.000 C 
BRANCH  17  22
ATOM     19  C   UNL     1      10.539  13.691  18.282  0.00  0.00    +0.000 A 
ATOM     20  C   UNL     1       9.292  13.382  17.739  0.00  0.00    +0.000 A 
ATOM     21  C   UNL     1       8.776  12.089  17.851  0.00  0.00    +0.000 A 
ATOM     22  C   UNL     1       9.516  11.081  18.481  0.00  0.00    +0.000 A 
ATOM     23  C   UNL     1      10.760  11.401  19.034  0.00  0.00    +0.000 A 
ATOM     24  C   UNL     1      11.271  12.696  18.928  0.00  0.00    +0.000 A 
BRANCH  19  26
ATOM     25  C   UNL     1      12.295  15.135  17.648  0.00  0.00    +0.000 C 
ATOM     26  O   UNL     1      10.953  14.981  18.095  0.00  0.00    +0.000 OA
ENDBRANCH  19  26
ENDBRANCH  17  22
ENDBRANCH   1  18
TORSDOF 6
ENDMDL
MODEL 8
REMARK VINA RESULT:      -7.8      1.330      1.433
REMARK  Name = 
REMARK  7 active torsions:
REMARK  status: ('A' for Active; 'I' for Inactive)
REMARK    1  A    between atoms: C_1  and  O_2
REMARK    2  A    between atoms: O_2  and  C_3
REMARK    3  A    between atoms: C_6  and  C_7
REMARK    4  A    between atoms: C_8  and  C_9
REMARK    5  A    between atoms: N_11  and  C_12
REMARK    6  A    between atoms: C_15  and  S_16
REMARK    7  A    between atoms: S_16  and  N_17
REMARK                            x       y       z     vdW  Elec       q    Type
REMARK                         _______ _______ _______ _____ _____    ______ ____
ROOT
ATOM      1  C   UNL     1       7.225   7.225  17.227  0.00  0.00    +0.000 C 
ATOM      2  O   UNL     1       7.623   6.327  16.494  0.00  0.00    +0.000 OA
ATOM      3  N   UNL     1       6.075   7.213  17.990  0.00  0.00    +0.000 N 
ATOM      4  H   UNL     1       5.770   8.077  18.416  0.00  0.00    +0.000 HD
ENDROOT
BRANCH   3   5
ATOM      5  C   UNL     1       5.249   6.083  18.184  0.00  0.00    +0.000 A 
ATOM      6  C   UNL     1       5.567   5.066  19.091  0.00  0.00    +0.000 A 
ATOM      7  C   UNL     1       4.716   3.980  19.280  0.00  0.00    +0.000 A 
ATOM      8  C   UNL     1       3.526   3.911  18.563  0.00  0.00    +0.000 A 
ATOM      9  C   UNL     1       3.194   4.905  17.637  0.00  0.00    +0.000 A 
ATOM     10  C   UNL     1       4.051   6.000  17.460  0.00  0.00    +0.000 A 
BRANCH   8  11
ATOM     11  S   UNL     1       2.436   2.552  18.852  0.00  0.00    +0.000 S 
ATOM     12  O   UNL     1       2.278   2.364  20.275  0.00  0.00    +0.000 OA
ATOM     13  O   UNL     1       1.315   2.630  17.946  0.00  0.00    +0.000 OA
BRANCH  11  14
ATOM     14  N   UNL     1       3.377   1.268  18.316  0.00  0.00    +0.000 NA
ATOM     15  H   UNL     1       4.215   1.617  17.853  0.00  0.00    +0.000 HD
ATOM     16  H   UNL     1       3.559   0.623  19.085  0.00  0.00    +0.000 HD
ENDBRANCH  11  14
ENDBRANCH   8  11
ENDBRANCH   3   5
BRANCH   1  18
ATOM     17  C   UNL     1       8.451   8.820  18.571  0.00  0.00    +0.000 C 
ATOM     18  C   UNL     1       7.998   8.489  17.350  0.00  0.00    +0.000 C 
BRANCH  17  22
ATOM     19  C   UNL     1      10.501  12.467  19.453  0.00  0.00    +0.000 A 
ATOM     20  C   UNL     1      10.258  12.082  18.134  0.00  0.00    +0.000 A 
ATOM     21  C   UNL     1       9.577  10.893  17.861  0.00  0.00    +0.000 A 
ATOM     22  C   UNL     1       9.156  10.060  18.905  0.00  0.00    +0.000 A 
ATOM     23  C   UNL     1       9.391  10.459  20.224  0.00  0.00    +0.000 A 
ATOM     24  C   UNL     1      10.066  11.651  20.496  0.00  0.00    +0.000 A 
BRANCH  19  26
ATOM     25  C   UNL     1      10.675  14.538  20.572  0.00  0.00    +0.000 C 
ATOM     26  O   UNL     1      11.194  13.636  19.600  0.00  0.00    +0.000 OA
ENDBRANCH  19  26
ENDBRANCH  17  22
ENDBRANCH   1  18
TORSDOF 6
ENDMDL
MODEL 9
REMARK VINA RESULT:      -7.7      1.240      1.374
REMARK  Name = 
REMARK  7 active torsions:
REMARK  status: ('A' for Active; 'I' for Inactive)
REMARK    1  A    between atoms: C_1  and  O_2
REMARK    2  A    between atoms: O_2  and  C_3
REMARK    3  A    between atoms: C_6  and  C_7
REMARK    4  A    between atoms: C_8  and  C_9
REMARK    5  A    between atoms: N_11  and  C_12
REMARK    6  A    between atoms: C_15  and  S_16
REMARK    7  A    between atoms: S_16  and  N_17
REMARK                            x       y       z     vdW  Elec       q    Type
REMARK                         _______ _______ _______ _____ _____    ______ ____
ROOT
ATOM      1  C   UNL     1       7.301   7.374  17.406  0.00  0.00    +0.000 C 
ATOM      2  O   UNL     1       7.945   6.479  16.872  0.00  0.00    +0.000 OA
ATOM      3  N   UNL     1       6.023   7.272  17.918  0.00  0.00    +0.000 N 
ATOM      4  H   UNL     1       5.538   8.121  18.175  0.00  0.00    +0.000 HD
ENDROOT
BRANCH   3   5
ATOM      5  C   UNL     1       5.307   6.063  18.063  0.00  0.00    +0.000 A 
ATOM      6  C   UNL     1       5.534   5.178  19.123  0.00  0.00    +0.000 A 
ATOM      7  C   UNL     1       4.791   4.008  19.255  0.00  0.00    +0.000 A 
ATOM      8  C   UNL     1       3.800   3.720  18.322  0.00  0.00    +0.000 A 
ATOM      9  C   UNL     1       3.566   4.579  17.243  0.00  0.00    +0.000 A 
ATOM     10  C   UNL     1       4.311   5.759  17.125  0.00  0.00    +0.000 A 
BRANCH   8  11
ATOM     11  S   UNL     1       2.833   2.257  18.532  0.00  0.00    +0.000 S 
ATOM     12  O   UNL     1       1.630   2.365  17.741  0.00  0.00    +0.000 OA
ATOM     13  O   UNL     1       3.693   1.098  18.489  0.00  0.00    +0.000 OA
BRANCH  11  14
ATOM     14  N   UNL     1       2.352   2.419  20.132  0.00  0.00    +0.000 NA
ATOM     15  H   UNL     1       3.137   2.234  20.755  0.00  0.00    +0.000 HD
ATOM     16  H   UNL     1       1.907   3.325  20.274  0.00  0.00    +0.000 HD
ENDBRANCH  11  14
ENDBRANCH   8  11
ENDBRANCH   3   5
BRANCH   1  18
ATOM     17  C   UNL     1       8.666   8.969  18.608  0.00  0.00    +0.000 C 
ATOM     18  C   UNL     1       7.881   8.736  17.543  0.00  0.00    +0.000 C 
BRANCH  17  22
ATOM     19  C   UNL     1      10.380  12.774  19.535  0.00  0.00    +0.000 A 
ATOM     20  C   UNL     1      10.137  12.400  18.213  0.00  0.00    +0.000 A 
ATOM     21  C   UNL     1       9.565  11.159  17.926  0.00  0.00    +0.000 A 
ATOM     22  C   UNL     1       9.258  10.263  18.957  0.00  0.00    +0.000 A 
ATOM     23  C   UNL     1       9.493  10.650  20.281  0.00  0.00    +0.000 A 
ATOM     24  C   UNL     1      10.057  11.894  20.566  0.00  0.00    +0.000 A 
BRANCH  19  26
ATOM     25  C   UNL     1      11.771  14.443  18.611  0.00  0.00    +0.000 C 
ATOM     26  O   UNL     1      10.962  14.001  19.696  0.00  0.00    +0.000 OA
ENDBRANCH  19  26
ENDBRANCH  17  22
ENDBRANCH   1  18
TORSDOF 6
ENDMDL
