MODEL 1
REMARK VINA RESULT:      -9.4      0.000      0.000
REMARK  Name = 
REMARK  7 active torsions:
REMARK  status: ('A' for Active; 'I' for Inactive)
REMARK    1  A    between atoms: N_4  and  C_5
REMARK    2  A    between atoms: C_13  and  C_14
REMARK    3  A    between atoms: C_14  and  C_15
REMARK    4  A    between atoms: C_16  and  C_17
REMARK    5  A    between atoms: C_17  and  O_18
REMARK    6  A    between atoms: C_17  and  C_19
REMARK    7  A    between atoms: C_24  and  N_25
REMARK                            x       y       z     vdW  Elec       q    Type
REMARK                         _______ _______ _______ _____ _____    ______ ____
ROOT
ATOM      1  C   UNL     1       1.909   5.437  18.338  0.00  0.00    +0.000 A 
ATOM      2  C   UNL     1       2.819   4.549  17.762  0.00  0.00    +0.000 A 
ATOM      3  N   UNL     1       1.950   3.446  17.755  0.00  0.00    +0.000 N 
ATOM      4  C   UNL     1       1.633   3.362  19.114  0.00  0.00    +0.000 A 
ATOM      5  C   UNL     1       1.536   2.219  19.901  0.00  0.00    +0.000 A 
ATOM      6  C   UNL     1       1.975   2.369  21.213  0.00  0.00    +0.000 A 
ATOM      7  C   UNL     1       2.343   3.628  21.705  0.00  0.00    +0.000 A 
ATOM      8  C   UNL     1       2.189   4.816  20.937  0.00  0.00    +0.000 A 
ATOM      9  C   UNL     1       1.812   4.688  19.574  0.00  0.00    +0.000 A 
ATOM     10  H   UNL     1       1.190   3.413  17.083  0.00  0.00    +0.000 HD
ENDROOT
BRANCH   1  11
ATOM     11  C   UNL     1       1.681   6.812  17.757  0.00  0.00    +0.000 C 
BRANCH  11  18
ATOM     12  O   UNL     1       1.002   8.111  22.007  0.00  0.00    +0.000 OA
ATOM     13  C   UNL     1       1.225   8.416  20.840  0.00  0.00    +0.000 C 
ATOM     14  C   UNL     1       0.406   9.434  20.067  0.00  0.00    +0.000 C 
ATOM     15  N   UNL     1       1.239  10.191  19.124  0.00  0.00    +0.000 N 
ATOM     16  C   UNL     1       2.030   9.433  18.224  0.00  0.00    +0.000 C 
ATOM     17  O   UNL     1       2.513   9.859  17.172  0.00  0.00    +0.000 OA
ATOM     18  C   UNL     1       2.332   7.947  18.659  0.00  0.00    +0.000 C 
ATOM     19  N   UNL     1       2.164   7.755  20.099  0.00  0.00    +0.000 N 
ATOM     20  H   UNL     1       2.740   7.080  20.591  0.00  0.00    +0.000 HD
BRANCH  15  21
ATOM     21  C   UNL     1       0.977  11.613  18.975  0.00  0.00    +0.000 A 
ATOM     22  C   UNL     1       1.995  12.575  19.034  0.00  0.00    +0.000 A 
ATOM     23  C   UNL     1       1.732  13.947  18.866  0.00  0.00    +0.000 A 
ATOM     24  C   UNL     1       0.436  14.397  18.649  0.00  0.00    +0.000 A 
ATOM     25  C   UNL     1      -0.599  13.474  18.610  0.00  0.00    +0.000 A 
ATOM     26  C   UNL     1      -0.331  12.100  18.776  0.00  0.00    +0.000 A 
ENDBRANCH  15  21
ENDBRANCH  11  18
ENDBRANCH   1  11
BRANCH   2  27
ATOM     27  C   UNL     1       4.303   4.527  18.047  0.00  0.00    +0.000 C 
BRANCH  27  28
ATOM     28  C   UNL     1       5.182   4.755  16.865  0.00  0.00    +0.000 A 
ATOM     29  C   UNL     1       4.707   4.433  15.583  0.00  0.00    +0.000 A 
ATOM     30  C   UNL     1       5.601   4.317  14.526  0.00  0.00    +0.000 A 
ATOM     31  C   UNL     1       6.963   4.515  14.732  0.00  0.00    +0.000 A 
ATOM     32  C   UNL     1       7.434   4.903  15.986  0.00  0.00    +0.000 A 
ATOM     33  C   UNL     1       6.530   5.066  17.019  0.00  0.00    +0.000 A 
BRANCH  33  34
ATOM     34  N   UNL     1       7.011   5.584  18.291  0.00  0.00    +0.000 N 
ATOM     35  O   UNL     1       7.170   4.772  19.216  0.00  0.00    +0.000 OA
ATOM     36  O   UNL     1       7.242   6.799  18.372  0.00  0.00    +0.000 OA
ENDBRANCH  33  34
ENDBRANCH  27  28
BRANCH  27  37
ATOM     37  O   UNL     1       4.767   3.296  18.603  0.00  0.00    +0.000 OA
ATOM     38  H   UNL     1       4.618   3.298  19.562  0.00  0.00    +0.000 HD
ENDBRANCH  27  37
ENDBRANCH   2  27
TORSDOF 7
ENDMDL
MODEL 2
REMARK VINA RESULT:      -9.1      1.837      2.622
REMARK  Name = 
REMARK  7 active torsions:
REMARK  status: ('A' for Active; 'I' for Inactive)
REMARK    1  A    between atoms: N_4  and  C_5
REMARK    2  A    between atoms: C_13  and  C_14
REMARK    3  A    between atoms: C_14  and  C_15
REMARK    4  A    between atoms: C_16  and  C_17
REMARK    5  A    between atoms: C_17  and  O_18
REMARK    6  A    between atoms: C_17  and  C_19
REMARK    7  A    between atoms: C_24  and  N_25
REMARK                            x       y       z     vdW  Elec       q    Type
REMARK                         _______ _______ _______ _____ _____    ______ ____
ROOT
ATOM      1  C   UNL     1       2.318   6.426  19.655  0.00  0.00    +0.000 A 
ATOM      2  C   UNL     1       3.082   5.814  18.660  0.00  0.00    +0.000 A 
ATOM      3  N   UNL     1       2.008   5.136  18.059  0.00  0.00    +0.000 N 
ATOM      4  C   UNL     1       1.530   4.400  19.146  0.00  0.00    +0.000 A 
ATOM      5  C   UNL     1       1.110   3.073  19.163  0.00  0.00    +0.000 A 
ATOM      6  C   UNL     1       1.420   2.372  20.324  0.00  0.00    +0.000 A 
ATOM      7  C   UNL     1       1.985   3.027  21.427  0.00  0.00    +0.000 A 
ATOM      8  C   UNL     1       2.169   4.438  21.456  0.00  0.00    +0.000 A 
ATOM      9  C   UNL     1       1.929   5.170  20.264  0.00  0.00    +0.000 A 
ATOM     10  H   UNL     1       1.339   5.657  17.502  0.00  0.00    +0.000 HD
ENDROOT
BRANCH   1  11
ATOM     11  C   UNL     1       2.448   7.902  19.946  0.00  0.00    +0.000 C 
BRANCH  11  18
ATOM     12  O   UNL     1       2.268  11.872  17.844  0.00  0.00    +0.000 OA
ATOM     13  C   UNL     1       1.762  11.077  18.630  0.00  0.00    +0.000 C 
ATOM     14  C   UNL     1       1.329  11.449  20.036  0.00  0.00    +0.000 C 
ATOM     15  N   UNL     1       0.130  10.705  20.444  0.00  0.00    +0.000 N 
ATOM     16  C   UNL     1       0.183   9.294  20.318  0.00  0.00    +0.000 C 
ATOM     17  O   UNL     1      -0.559   8.501  20.904  0.00  0.00    +0.000 OA
ATOM     18  C   UNL     1       1.256   8.735  19.306  0.00  0.00    +0.000 C 
ATOM     19  N   UNL     1       1.668   9.747  18.334  0.00  0.00    +0.000 N 
ATOM     20  H   UNL     1       1.934   9.469  17.396  0.00  0.00    +0.000 HD
BRANCH  15  21
ATOM     21  C   UNL     1      -0.883  11.415  21.209  0.00  0.00    +0.000 A 
ATOM     22  C   UNL     1      -0.955  11.343  22.608  0.00  0.00    +0.000 A 
ATOM     23  C   UNL     1      -1.926  12.052  23.338  0.00  0.00    +0.000 A 
ATOM     24  C   UNL     1      -2.864  12.844  22.687  0.00  0.00    +0.000 A 
ATOM     25  C   UNL     1      -2.836  12.916  21.301  0.00  0.00    +0.000 A 
ATOM     26  C   UNL     1      -1.860  12.207  20.573  0.00  0.00    +0.000 A 
ENDBRANCH  15  21
ENDBRANCH  11  18
ENDBRANCH   1  11
BRANCH   2  27
ATOM     27  C   UNL     1       4.487   5.291  18.849  0.00  0.00    +0.000 C 
BRANCH  27  28
ATOM     28  C   UNL     1       5.315   5.230  17.610  0.00  0.00    +0.000 A 
ATOM     29  C   UNL     1       4.709   4.877  16.394  0.00  0.00    +0.000 A 
ATOM     30  C   UNL     1       5.497   4.490  15.318  0.00  0.00    +0.000 A 
ATOM     31  C   UNL     1       6.883   4.447  15.440  0.00  0.00    +0.000 A 
ATOM     32  C   UNL     1       7.496   4.862  16.622  0.00  0.00    +0.000 A 
ATOM     33  C   UNL     1       6.704   5.295  17.670  0.00  0.00    +0.000 A 
BRANCH  33  34
ATOM     34  N   UNL     1       7.353   5.837  18.855  0.00  0.00    +0.000 N 
ATOM     35  O   UNL     1       7.168   5.245  19.930  0.00  0.00    +0.000 OA
ATOM     36  O   UNL     1       8.056   6.848  18.720  0.00  0.00    +0.000 OA
ENDBRANCH  33  34
ENDBRANCH  27  28
BRANCH  27  37
ATOM     37  O   UNL     1       4.544   3.967  19.381  0.00  0.00    +0.000 OA
ATOM     38  H   UNL     1       4.491   4.005  20.349  0.00  0.00    +0.000 HD
ENDBRANCH  27  37
ENDBRANCH   2  27
TORSDOF 7
ENDMDL
MODEL 3
REMARK VINA RESULT:      -8.6      0.581      1.015
REMARK  Name = 
REMARK  7 active torsions:
REMARK  status: ('A' for Active; 'I' for Inactive)
REMARK    1  A    between atoms: N_4  and  C_5
REMARK    2  A    between atoms: C_13  and  C_14
REMARK    3  A    between atoms: C_14  and  C_15
REMARK    4  A    between atoms: C_16  and  C_17
REMARK    5  A    between atoms: C_17  and  O_18
REMARK    6  A    between atoms: C_17  and  C_19
REMARK    7  A    between atoms: C_24  and  N_25
REMARK                            x       y       z     vdW  Elec       q    Type
REMARK                         _______ _______ _______ _____ _____    ______ ____
ROOT
ATOM      1  C   UNL     1       1.929   5.193  18.430  0.00  0.00    +0.000 A 
ATOM      2  C   UNL     1       2.587   4.082  17.902  0.00  0.00    +0.000 A 
ATOM      3  N   UNL     1       1.514   3.192  18.073  0.00  0.00    +0.000 N 
ATOM      4  C   UNL     1       1.302   3.309  19.449  0.00  0.00    +0.000 A 
ATOM      5  C   UNL     1       1.042   2.293  20.364  0.00  0.00    +0.000 A 
ATOM      6  C   UNL     1       1.611   2.473  21.621  0.00  0.00    +0.000 A 
ATOM      7  C   UNL     1       2.268   3.667  21.946  0.00  0.00    +0.000 A 
ATOM      8  C   UNL     1       2.295   4.781  21.060  0.00  0.00    +0.000 A 
ATOM      9  C   UNL     1       1.786   4.605  19.746  0.00  0.00    +0.000 A 
ATOM     10  H   UNL     1       0.710   3.256  17.458  0.00  0.00    +0.000 HD
ENDROOT
BRANCH   1  11
ATOM     11  C   UNL     1       1.938   6.523  17.714  0.00  0.00    +0.000 C 
BRANCH  11  18
ATOM     12  O   UNL     1       0.906   7.798  21.900  0.00  0.00    +0.000 OA
ATOM     13  C   UNL     1       1.193   8.110  20.749  0.00  0.00    +0.000 C 
ATOM     14  C   UNL     1       0.377   9.083  19.916  0.00  0.00    +0.000 C 
ATOM     15  N   UNL     1       1.233   9.879  19.026  0.00  0.00    +0.000 N 
ATOM     16  C   UNL     1       2.121   9.159  18.187  0.00  0.00    +0.000 C 
ATOM     17  O   UNL     1       2.652   9.606  17.168  0.00  0.00    +0.000 OA
ATOM     18  C   UNL     1       2.467   7.692  18.652  0.00  0.00    +0.000 C 
ATOM     19  N   UNL     1       2.212   7.496  20.078  0.00  0.00    +0.000 N 
ATOM     20  H   UNL     1       2.786   6.853  20.612  0.00  0.00    +0.000 HD
BRANCH  15  21
ATOM     21  C   UNL     1       0.910  11.285  18.851  0.00  0.00    +0.000 A 
ATOM     22  C   UNL     1      -0.380  11.724  18.522  0.00  0.00    +0.000 A 
ATOM     23  C   UNL     1      -0.685  13.090  18.376  0.00  0.00    +0.000 A 
ATOM     24  C   UNL     1       0.299  14.057  18.543  0.00  0.00    +0.000 A 
ATOM     25  C   UNL     1       1.592  13.654  18.844  0.00  0.00    +0.000 A 
ATOM     26  C   UNL     1       1.894  12.286  18.991  0.00  0.00    +0.000 A 
ENDBRANCH  15  21
ENDBRANCH  11  18
ENDBRANCH   1  11
BRANCH   2  27
ATOM     27  C   UNL     1       4.054   3.774  18.095  0.00  0.00    +0.000 C 
BRANCH  27  28
ATOM     28  C   UNL     1       4.974   4.427  17.120  0.00  0.00    +0.000 A 
ATOM     29  C   UNL     1       4.614   4.481  15.764  0.00  0.00    +0.000 A 
ATOM     30  C   UNL     1       5.577   4.769  14.805  0.00  0.00    +0.000 A 
ATOM     31  C   UNL     1       6.897   5.001  15.182  0.00  0.00    +0.000 A 
ATOM     32  C   UNL     1       7.249   5.018  16.531  0.00  0.00    +0.000 A 
ATOM     33  C   UNL     1       6.272   4.780  17.480  0.00  0.00    +0.000 A 
BRANCH  33  34
ATOM     34  N   UNL     1       6.620   4.916  18.887  0.00  0.00    +0.000 N 
ATOM     35  O   UNL     1       5.790   4.521  19.722  0.00  0.00    +0.000 OA
ATOM     36  O   UNL     1       7.722   5.406  19.167  0.00  0.00    +0.000 OA
ENDBRANCH  33  34
ENDBRANCH  27  28
BRANCH  27  37
ATOM     37  O   UNL     1       4.370   2.384  18.007  0.00  0.00    +0.000 OA
ATOM     38  H   UNL     1       3.720   1.873  18.513  0.00  0.00    +0.000 HD
ENDBRANCH  27  37
ENDBRANCH   2  27
TORSDOF 7
ENDMDL
MODEL 4
REMARK VINA RESULT:      -8.6      1.171      4.564
REMARK  Name = 
REMARK  7 active torsions:
REMARK  status: ('A' for Active; 'I' for Inactive)
REMARK    1  A    between atoms: N_4  and  C_5
REMARK    2  A    between atoms: C_13  and  C_14
REMARK    3  A    between atoms: C_14  and  C_15
REMARK    4  A    between atoms: C_16  and  C_17
REMARK    5  A    between atoms: C_17  and  O_18
REMARK    6  A    between atoms: C_17  and  C_19
REMARK    7  A    between atoms: C_24  and  N_25
REMARK                            x       y       z     vdW  Elec       q    Type
REMARK                         _______ _______ _______ _____ _____    ______ ____
ROOT
ATOM      1  C   UNL     1       3.955   6.136  17.547  0.00  0.00    +0.000 A 
ATOM      2  C   UNL     1       4.608   5.403  18.539  0.00  0.00    +0.000 A 
ATOM      3  N   UNL     1       5.866   5.994  18.342  0.00  0.00    +0.000 N 
ATOM      4  C   UNL     1       6.074   5.709  16.990  0.00  0.00    +0.000 A 
ATOM      5  C   UNL     1       7.246   5.276  16.377  0.00  0.00    +0.000 A 
ATOM      6  C   UNL     1       7.067   4.373  15.335  0.00  0.00    +0.000 A 
ATOM      7  C   UNL     1       5.782   4.059  14.873  0.00  0.00    +0.000 A 
ATOM      8  C   UNL     1       4.619   4.716  15.365  0.00  0.00    +0.000 A 
ATOM      9  C   UNL     1       4.762   5.588  16.475  0.00  0.00    +0.000 A 
ATOM     10  H   UNL     1       6.026   6.944  18.662  0.00  0.00    +0.000 HD
ENDROOT
BRANCH   1  11
ATOM     11  C   UNL     1       2.633   6.814  17.816  0.00  0.00    +0.000 C 
BRANCH  11  18
ATOM     12  O   UNL     1       0.871   7.668  21.863  0.00  0.00    +0.000 OA
ATOM     13  C   UNL     1       1.218   8.082  20.761  0.00  0.00    +0.000 C 
ATOM     14  C   UNL     1       0.320   8.899  19.851  0.00  0.00    +0.000 C 
ATOM     15  N   UNL     1       1.087   9.892  19.087  0.00  0.00    +0.000 N 
ATOM     16  C   UNL     1       2.198   9.408  18.352  0.00  0.00    +0.000 C 
ATOM     17  O   UNL     1       2.739   9.999  17.414  0.00  0.00    +0.000 OA
ATOM     18  C   UNL     1       2.790   8.027  18.831  0.00  0.00    +0.000 C 
ATOM     19  N   UNL     1       2.415   7.722  20.211  0.00  0.00    +0.000 N 
ATOM     20  H   UNL     1       3.046   7.189  20.801  0.00  0.00    +0.000 HD
BRANCH  15  21
ATOM     21  C   UNL     1       0.497  11.207  18.897  0.00  0.00    +0.000 A 
ATOM     22  C   UNL     1      -0.815  11.382  18.433  0.00  0.00    +0.000 A 
ATOM     23  C   UNL     1      -1.382  12.660  18.274  0.00  0.00    +0.000 A 
ATOM     24  C   UNL     1      -0.645  13.802  18.561  0.00  0.00    +0.000 A 
ATOM     25  C   UNL     1       0.665  13.664  18.998  0.00  0.00    +0.000 A 
ATOM     26  C   UNL     1       1.229  12.383  19.158  0.00  0.00    +0.000 A 
ENDBRANCH  15  21
ENDBRANCH  11  18
ENDBRANCH   1  11
BRANCH   2  27
ATOM     27  C   UNL     1       4.333   3.952  18.863  0.00  0.00    +0.000 C 
BRANCH  27  28
ATOM     28  C   UNL     1       3.117   3.704  19.689  0.00  0.00    +0.000 A 
ATOM     29  C   UNL     1       3.178   3.896  21.078  0.00  0.00    +0.000 A 
ATOM     30  C   UNL     1       2.188   3.360  21.893  0.00  0.00    +0.000 A 
ATOM     31  C   UNL     1       1.141   2.631  21.339  0.00  0.00    +0.000 A 
ATOM     32  C   UNL     1       1.035   2.494  19.955  0.00  0.00    +0.000 A 
ATOM     33  C   UNL     1       1.997   3.075  19.151  0.00  0.00    +0.000 A 
BRANCH  33  34
ATOM     34  N   UNL     1       1.818   3.030  17.707  0.00  0.00    +0.000 N 
ATOM     35  O   UNL     1       2.337   2.082  17.096  0.00  0.00    +0.000 OA
ATOM     36  O   UNL     1       1.153   3.930  17.176  0.00  0.00    +0.000 OA
ENDBRANCH  33  34
ENDBRANCH  27  28
BRANCH  27  37
ATOM     37  O   UNL     1       5.388   3.310  19.581  0.00  0.00    +0.000 OA
ATOM     38  H   UNL     1       5.244   2.351  19.578  0.00  0.00    +0.000 HD
ENDBRANCH  27  37
ENDBRANCH   2  27
TORSDOF 7
ENDMDL
MODEL 5
REMARK VINA RESULT:      -8.6      1.623      2.564
REMARK  Name = 
REMARK  7 active torsions:
REMARK  status: ('A' for Active; 'I' for Inactive)
REMARK    1  A    between atoms: N_4  and  C_5
REMARK    2  A    between atoms: C_13  and  C_14
REMARK    3  A    between atoms: C_14  and  C_15
REMARK    4  A    between atoms: C_16  and  C_17
REMARK    5  A    between atoms: C_17  and  O_18
REMARK    6  A    between atoms: C_17  and  C_19
REMARK    7  A    between atoms: C_24  and  N_25
REMARK                            x       y       z     vdW  Elec       q    Type
REMARK                         _______ _______ _______ _____ _____    ______ ____
ROOT
ATOM      1  C   UNL     1       2.528   6.339  18.986  0.00  0.00    +0.000 A 
ATOM      2  C   UNL     1       2.984   5.410  18.050  0.00  0.00    +0.000 A 
ATOM      3  N   UNL     1       1.733   4.815  17.825  0.00  0.00    +0.000 N 
ATOM      4  C   UNL     1       1.401   4.417  19.123  0.00  0.00    +0.000 A 
ATOM      5  C   UNL     1       0.829   3.216  19.531  0.00  0.00    +0.000 A 
ATOM      6  C   UNL     1       1.282   2.734  20.755  0.00  0.00    +0.000 A 
ATOM      7  C   UNL     1       2.142   3.500  21.553  0.00  0.00    +0.000 A 
ATOM      8  C   UNL     1       2.506   4.833  21.210  0.00  0.00    +0.000 A 
ATOM      9  C   UNL     1       2.118   5.326  19.937  0.00  0.00    +0.000 A 
ATOM     10  H   UNL     1       1.034   5.313  17.284  0.00  0.00    +0.000 HD
ENDROOT
BRANCH   1  11
ATOM     11  C   UNL     1       2.902   7.799  18.887  0.00  0.00    +0.000 C 
BRANCH  11  18
ATOM     12  O   UNL     1       2.474  12.085  17.598  0.00  0.00    +0.000 OA
ATOM     13  C   UNL     1       2.063  11.146  18.273  0.00  0.00    +0.000 C 
ATOM     14  C   UNL     1       1.790  11.239  19.763  0.00  0.00    +0.000 C 
ATOM     15  N   UNL     1       0.647  10.404  20.154  0.00  0.00    +0.000 N 
ATOM     16  C   UNL     1       0.690   9.043  19.761  0.00  0.00    +0.000 C 
ATOM     17  O   UNL     1       0.021   8.138  20.266  0.00  0.00    +0.000 OA
ATOM     18  C   UNL     1       1.643   8.708  18.550  0.00  0.00    +0.000 C 
ATOM     19  N   UNL     1       1.940   9.892  17.746  0.00  0.00    +0.000 N 
ATOM     20  H   UNL     1       2.099   9.800  16.748  0.00  0.00    +0.000 HD
BRANCH  15  21
ATOM     21  C   UNL     1      -0.275  10.935  21.145  0.00  0.00    +0.000 A 
ATOM     22  C   UNL     1      -1.062  12.071  20.907  0.00  0.00    +0.000 A 
ATOM     23  C   UNL     1      -1.966  12.563  21.866  0.00  0.00    +0.000 A 
ATOM     24  C   UNL     1      -2.100  11.937  23.099  0.00  0.00    +0.000 A 
ATOM     25  C   UNL     1      -1.317  10.825  23.377  0.00  0.00    +0.000 A 
ATOM     26  C   UNL     1      -0.414  10.334  22.413  0.00  0.00    +0.000 A 
ENDBRANCH  15  21
ENDBRANCH  11  18
ENDBRANCH   1  11
BRANCH   2  27
ATOM     27  C   UNL     1       4.320   4.706  18.113  0.00  0.00    +0.000 C 
BRANCH  27  28
ATOM     28  C   UNL     1       5.151   4.805  16.879  0.00  0.00    +0.000 A 
ATOM     29  C   UNL     1       4.597   4.426  15.645  0.00  0.00    +0.000 A 
ATOM     30  C   UNL     1       5.430   4.190  14.559  0.00  0.00    +0.000 A 
ATOM     31  C   UNL     1       6.809   4.323  14.689  0.00  0.00    +0.000 A 
ATOM     32  C   UNL     1       7.362   4.767  15.890  0.00  0.00    +0.000 A 
ATOM     33  C   UNL     1       6.519   5.048  16.950  0.00  0.00    +0.000 A 
BRANCH  33  34
ATOM     34  N   UNL     1       7.090   5.622  18.160  0.00  0.00    +0.000 N 
ATOM     35  O   UNL     1       7.640   4.845  18.956  0.00  0.00    +0.000 OA
ATOM     36  O   UNL     1       7.002   6.848  18.318  0.00  0.00    +0.000 OA
ENDBRANCH  33  34
ENDBRANCH  27  28
BRANCH  27  37
ATOM     37  O   UNL     1       4.223   3.304  18.365  0.00  0.00    +0.000 OA
ATOM     38  H   UNL     1       4.349   3.136  19.313  0.00  0.00    +0.000 HD
ENDBRANCH  27  37
ENDBRANCH   2  27
TORSDOF 7
ENDMDL
MODEL 6
REMARK VINA RESULT:      -8.4      1.813      2.335
REMARK  Name = 
REMARK  7 active torsions:
REMARK  status: ('A' for Active; 'I' for Inactive)
REMARK    1  A    between atoms: N_4  and  C_5
REMARK    2  A    between atoms: C_13  and  C_14
REMARK    3  A    between atoms: C_14  and  C_15
REMARK    4  A    between atoms: C_16  and  C_17
REMARK    5  A    between atoms: C_17  and  O_18
REMARK    6  A    between atoms: C_17  and  C_19
REMARK    7  A    between atoms: C_24  and  N_25
REMARK                            x       y       z     vdW  Elec       q    Type
REMARK                         _______ _______ _______ _____ _____    ______ ____
ROOT
ATOM      1  C   UNL     1       2.279   6.556  19.565  0.00  0.00    +0.000 A 
ATOM      2  C   UNL     1       3.072   5.917  18.611  0.00  0.00    +0.000 A 
ATOM      3  N   UNL     1       2.026   5.182  18.031  0.00  0.00    +0.000 N 
ATOM      4  C   UNL     1       1.553   4.487  19.147  0.00  0.00    +0.000 A 
ATOM      5  C   UNL     1       1.168   3.152  19.224  0.00  0.00    +0.000 A 
ATOM      6  C   UNL     1       1.480   2.517  20.422  0.00  0.00    +0.000 A 
ATOM      7  C   UNL     1       2.012   3.240  21.498  0.00  0.00    +0.000 A 
ATOM      8  C   UNL     1       2.158   4.655  21.460  0.00  0.00    +0.000 A 
ATOM      9  C   UNL     1       1.915   5.321  20.231  0.00  0.00    +0.000 A 
ATOM     10  H   UNL     1       1.350   5.657  17.441  0.00  0.00    +0.000 HD
ENDROOT
BRANCH   1  11
ATOM     11  C   UNL     1       2.366   8.047  19.786  0.00  0.00    +0.000 C 
BRANCH  11  18
ATOM     12  O   UNL     1      -0.916  10.056  17.460  0.00  0.00    +0.000 OA
ATOM     13  C   UNL     1      -0.235  10.000  18.479  0.00  0.00    +0.000 C 
ATOM     14  C   UNL     1       0.512  11.188  19.056  0.00  0.00    +0.000 C 
ATOM     15  N   UNL     1       0.540  11.146  20.524  0.00  0.00    +0.000 N 
ATOM     16  C   UNL     1       1.018   9.949  21.116  0.00  0.00    +0.000 C 
ATOM     17  O   UNL     1       1.426   9.846  22.275  0.00  0.00    +0.000 OA
ATOM     18  C   UNL     1       0.962   8.663  20.205  0.00  0.00    +0.000 C 
ATOM     19  N   UNL     1       0.007   8.811  19.108  0.00  0.00    +0.000 N 
ATOM     20  H   UNL     1      -0.491   8.000  18.757  0.00  0.00    +0.000 HD
BRANCH  15  21
ATOM     21  C   UNL     1       0.372  12.397  21.244  0.00  0.00    +0.000 A 
ATOM     22  C   UNL     1       1.235  13.488  21.066  0.00  0.00    +0.000 A 
ATOM     23  C   UNL     1       1.049  14.702  21.753  0.00  0.00    +0.000 A 
ATOM     24  C   UNL     1      -0.002  14.854  22.649  0.00  0.00    +0.000 A 
ATOM     25  C   UNL     1      -0.859  13.785  22.867  0.00  0.00    +0.000 A 
ATOM     26  C   UNL     1      -0.671  12.572  22.177  0.00  0.00    +0.000 A 
ENDBRANCH  15  21
ENDBRANCH  11  18
ENDBRANCH   1  11
BRANCH   2  27
ATOM     27  C   UNL     1       4.488   5.442  18.842  0.00  0.00    +0.000 C 
BRANCH  27  28
ATOM     28  C   UNL     1       5.322   5.303  17.614  0.00  0.00    +0.000 A 
ATOM     29  C   UNL     1       4.706   4.955  16.401  0.00  0.00    +0.000 A 
ATOM     30  C   UNL     1       5.479   4.495  15.342  0.00  0.00    +0.000 A 
ATOM     31  C   UNL     1       6.859   4.375  15.479  0.00  0.00    +0.000 A 
ATOM     32  C   UNL     1       7.485   4.784  16.656  0.00  0.00    +0.000 A 
ATOM     33  C   UNL     1       6.712   5.288  17.685  0.00  0.00    +0.000 A 
BRANCH  33  34
ATOM     34  N   UNL     1       7.381   5.822  18.863  0.00  0.00    +0.000 N 
ATOM     35  O   UNL     1       7.273   5.183  19.921  0.00  0.00    +0.000 OA
ATOM     36  O   UNL     1       8.024   6.873  18.737  0.00  0.00    +0.000 OA
ENDBRANCH  33  34
ENDBRANCH  27  28
BRANCH  27  37
ATOM     37  O   UNL     1       4.573   4.166  19.478  0.00  0.00    +0.000 OA
ATOM     38  H   UNL     1       4.131   3.501  18.927  0.00  0.00    +0.000 HD
ENDBRANCH  27  37
ENDBRANCH   2  27
TORSDOF 7
ENDMDL
MODEL 7
REMARK VINA RESULT:      -8.3      4.608      8.145
REMARK  Name = 
REMARK  7 active torsions:
REMARK  status: ('A' for Active; 'I' for Inactive)
REMARK    1  A    between atoms: N_4  and  C_5
REMARK    2  A    between atoms: C_13  and  C_14
REMARK    3  A    between atoms: C_14  and  C_15
REMARK    4  A    between atoms: C_16  and  C_17
REMARK    5  A    between atoms: C_17  and  O_18
REMARK    6  A    between atoms: C_17  and  C_19
REMARK    7  A    between atoms: C_24  and  N_25
REMARK                            x       y       z     vdW  Elec       q    Type
REMARK                         _______ _______ _______ _____ _____    ______ ____
ROOT
ATOM      1  C   UNL     1       0.285  12.780  20.709  0.00  0.00    +0.000 A 
ATOM      2  C   UNL     1      -0.416  12.139  19.687  0.00  0.00    +0.000 A 
ATOM      3  N   UNL     1      -1.350  13.170  19.494  0.00  0.00    +0.000 N 
ATOM      4  C   UNL     1      -1.892  13.268  20.778  0.00  0.00    +0.000 A 
ATOM      5  C   UNL     1      -3.228  13.423  21.135  0.00  0.00    +0.000 A 
ATOM      6  C   UNL     1      -3.610  12.755  22.294  0.00  0.00    +0.000 A 
ATOM      7  C   UNL     1      -2.659  12.105  23.092  0.00  0.00    +0.000 A 
ATOM      8  C   UNL     1      -1.263  12.183  22.822  0.00  0.00    +0.000 A 
ATOM      9  C   UNL     1      -0.849  12.795  21.610  0.00  0.00    +0.000 A 
ATOM     10  H   UNL     1      -1.062  14.025  19.030  0.00  0.00    +0.000 HD
ENDROOT
BRANCH   1  11
ATOM     11  C   UNL     1       1.793  12.867  20.690  0.00  0.00    +0.000 C 
BRANCH  11  18
ATOM     12  O   UNL     1       0.943  16.524  18.216  0.00  0.00    +0.000 OA
ATOM     13  C   UNL     1       1.751  15.845  18.842  0.00  0.00    +0.000 C 
ATOM     14  C   UNL     1       3.079  15.383  18.270  0.00  0.00    +0.000 C 
ATOM     15  N   UNL     1       4.124  15.341  19.302  0.00  0.00    +0.000 N 
ATOM     16  C   UNL     1       3.828  14.605  20.477  0.00  0.00    +0.000 C 
ATOM     17  O   UNL     1       4.665  14.180  21.277  0.00  0.00    +0.000 OA
ATOM     18  C   UNL     1       2.296  14.372  20.774  0.00  0.00    +0.000 C 
ATOM     19  N   UNL     1       1.452  15.340  20.075  0.00  0.00    +0.000 N 
ATOM     20  H   UNL     1       0.578  15.644  20.492  0.00  0.00    +0.000 HD
BRANCH  15  21
ATOM     21  C   UNL     1       5.459  15.784  18.936  0.00  0.00    +0.000 A 
ATOM     22  C   UNL     1       5.972  17.029  19.329  0.00  0.00    +0.000 A 
ATOM     23  C   UNL     1       7.273  17.438  18.987  0.00  0.00    +0.000 A 
ATOM     24  C   UNL     1       8.097  16.616  18.227  0.00  0.00    +0.000 A 
ATOM     25  C   UNL     1       7.611  15.388  17.800  0.00  0.00    +0.000 A 
ATOM     26  C   UNL     1       6.307  14.981  18.147  0.00  0.00    +0.000 A 
ENDBRANCH  15  21
ENDBRANCH  11  18
ENDBRANCH   1  11
BRANCH   2  27
ATOM     27  C   UNL     1      -0.685  10.653  19.624  0.00  0.00    +0.000 C 
BRANCH  27  28
ATOM     28  C   UNL     1       0.518   9.797  19.414  0.00  0.00    +0.000 A 
ATOM     29  C   UNL     1       1.059   9.676  18.125  0.00  0.00    +0.000 A 
ATOM     30  C   UNL     1       1.947   8.645  17.844  0.00  0.00    +0.000 A 
ATOM     31  C   UNL     1       2.299   7.732  18.833  0.00  0.00    +0.000 A 
ATOM     32  C   UNL     1       1.820   7.886  20.133  0.00  0.00    +0.000 A 
ATOM     33  C   UNL     1       0.977   8.945  20.414  0.00  0.00    +0.000 A 
BRANCH  33  34
ATOM     34  N   UNL     1       0.576   9.169  21.796  0.00  0.00    +0.000 N 
ATOM     35  O   UNL     1       1.335   9.844  22.509  0.00  0.00    +0.000 OA
ATOM     36  O   UNL     1      -0.499   8.684  22.173  0.00  0.00    +0.000 OA
ENDBRANCH  33  34
ENDBRANCH  27  28
BRANCH  27  37
ATOM     37  O   UNL     1      -1.580  10.272  18.578  0.00  0.00    +0.000 OA
ATOM     38  H   UNL     1      -1.530   9.313  18.443  0.00  0.00    +0.000 HD
ENDBRANCH  27  37
ENDBRANCH   2  27
TORSDOF 7
ENDMDL
MODEL 8
REMARK VINA RESULT:      -8.3      2.098      3.186
REMARK  Name = 
REMARK  7 active torsions:
REMARK  status: ('A' for Active; 'I' for Inactive)
REMARK    1  A    between atoms: N_4  and  C_5
REMARK    2  A    between atoms: C_13  and  C_14
REMARK    3  A    between atoms: C_14  and  C_15
REMARK    4  A    between atoms: C_16  and  C_17
REMARK    5  A    between atoms: C_17  and  O_18
REMARK    6  A    between atoms: C_17  and  C_19
REMARK    7  A    between atoms: C_24  and  N_25
REMARK                            x       y       z     vdW  Elec       q    Type
REMARK                         _______ _______ _______ _____ _____    ______ ____
ROOT
ATOM      1  C   UNL     1       2.792   6.277  18.758  0.00  0.00    +0.000 A 
ATOM      2  C   UNL     1       3.547   5.352  18.036  0.00  0.00    +0.000 A 
ATOM      3  N   UNL     1       2.447   4.698  17.458  0.00  0.00    +0.000 N 
ATOM      4  C   UNL     1       1.749   4.310  18.606  0.00  0.00    +0.000 A 
ATOM      5  C   UNL     1       1.124   3.092  18.857  0.00  0.00    +0.000 A 
ATOM      6  C   UNL     1       1.199   2.653  20.175  0.00  0.00    +0.000 A 
ATOM      7  C   UNL     1       1.744   3.471  21.173  0.00  0.00    +0.000 A 
ATOM      8  C   UNL     1       2.146   4.812  20.916  0.00  0.00    +0.000 A 
ATOM      9  C   UNL     1       2.149   5.265  19.570  0.00  0.00    +0.000 A 
ATOM     10  H   UNL     1       1.929   5.154  16.714  0.00  0.00    +0.000 HD
ENDROOT
BRANCH   1  11
ATOM     11  C   UNL     1       3.125   7.750  18.733  0.00  0.00    +0.000 C 
BRANCH  11  18
ATOM     12  O   UNL     1       2.600  12.031  17.462  0.00  0.00    +0.000 OA
ATOM     13  C   UNL     1       2.216  11.083  18.140  0.00  0.00    +0.000 C 
ATOM     14  C   UNL     1       1.965  11.168  19.635  0.00  0.00    +0.000 C 
ATOM     15  N   UNL     1       0.843  10.312  20.041  0.00  0.00    +0.000 N 
ATOM     16  C   UNL     1       0.904   8.952  19.644  0.00  0.00    +0.000 C 
ATOM     17  O   UNL     1       0.260   8.034  20.157  0.00  0.00    +0.000 OA
ATOM     18  C   UNL     1       1.844   8.637  18.417  0.00  0.00    +0.000 C 
ATOM     19  N   UNL     1       2.108   9.828  17.612  0.00  0.00    +0.000 N 
ATOM     20  H   UNL     1       2.253   9.741  16.611  0.00  0.00    +0.000 HD
BRANCH  15  21
ATOM     21  C   UNL     1      -0.072  10.823  21.048  0.00  0.00    +0.000 A 
ATOM     22  C   UNL     1      -0.219  10.222  22.306  0.00  0.00    +0.000 A 
ATOM     23  C   UNL     1      -1.092  10.739  23.280  0.00  0.00    +0.000 A 
ATOM     24  C   UNL     1      -1.857  11.869  23.016  0.00  0.00    +0.000 A 
ATOM     25  C   UNL     1      -1.755  12.474  21.771  0.00  0.00    +0.000 A 
ATOM     26  C   UNL     1      -0.877  11.954  20.799  0.00  0.00    +0.000 A 
ENDBRANCH  15  21
ENDBRANCH  11  18
ENDBRANCH   1  11
BRANCH   2  27
ATOM     27  C   UNL     1       4.825   4.709  18.524  0.00  0.00    +0.000 C 
BRANCH  27  28
ATOM     28  C   UNL     1       6.069   5.488  18.263  0.00  0.00    +0.000 A 
ATOM     29  C   UNL     1       7.006   5.654  19.295  0.00  0.00    +0.000 A 
ATOM     30  C   UNL     1       7.985   6.634  19.186  0.00  0.00    +0.000 A 
ATOM     31  C   UNL     1       8.038   7.453  18.062  0.00  0.00    +0.000 A 
ATOM     32  C   UNL     1       7.155   7.248  17.003  0.00  0.00    +0.000 A 
ATOM     33  C   UNL     1       6.218   6.237  17.099  0.00  0.00    +0.000 A 
BRANCH  33  34
ATOM     34  N   UNL     1       5.379   5.952  15.944  0.00  0.00    +0.000 N 
ATOM     35  O   UNL     1       4.808   6.912  15.401  0.00  0.00    +0.000 OA
ATOM     36  O   UNL     1       5.292   4.776  15.566  0.00  0.00    +0.000 OA
ENDBRANCH  33  34
ENDBRANCH  27  28
BRANCH  27  37
ATOM     37  O   UNL     1       5.081   3.426  17.954  0.00  0.00    +0.000 OA
ATOM     38  H   UNL     1       4.349   3.181  17.365  0.00  0.00    +0.000 HD
ENDBRANCH  27  37
ENDBRANCH   2  27
TORSDOF 7
ENDMDL
MODEL 9
REMARK VINA RESULT:      -8.2      3.676      9.549
REMARK  Name = 
REMARK  7 active torsions:
REMARK  status: ('A' for Active; 'I' for Inactive)
REMARK    1  A    between atoms: N_4  and  C_5
REMARK    2  A    between atoms: C_13  and  C_14
REMARK    3  A    between atoms: C_14  and  C_15
REMARK    4  A    between atoms: C_16  and  C_17
REMARK    5  A    between atoms: C_17  and  O_18
REMARK    6  A    between atoms: C_17  and  C_19
REMARK    7  A    between atoms: C_24  and  N_25
REMARK                            x       y       z     vdW  Elec       q    Type
REMARK                         _______ _______ _______ _____ _____    ______ ____
ROOT
ATOM      1  C   UNL     1      -0.624  10.952  21.031  0.00  0.00    +0.000 A 
ATOM      2  C   UNL     1      -1.117  11.822  20.057  0.00  0.00    +0.000 A 
ATOM      3  N   UNL     1      -0.198  12.853  20.316  0.00  0.00    +0.000 N 
ATOM      4  C   UNL     1      -0.447  13.083  21.671  0.00  0.00    +0.000 A 
ATOM      5  C   UNL     1      -0.546  14.306  22.328  0.00  0.00    +0.000 A 
ATOM      6  C   UNL     1      -1.489  14.352  23.349  0.00  0.00    +0.000 A 
ATOM      7  C   UNL     1      -2.166  13.193  23.751  0.00  0.00    +0.000 A 
ATOM      8  C   UNL     1      -1.853  11.910  23.219  0.00  0.00    +0.000 A 
ATOM      9  C   UNL     1      -0.948  11.841  22.128  0.00  0.00    +0.000 A 
ATOM     10  H   UNL     1       0.766  12.748  20.017  0.00  0.00    +0.000 HD
ENDROOT
BRANCH   1  11
ATOM     11  C   UNL     1      -0.341   9.503  20.715  0.00  0.00    +0.000 C 
BRANCH  11  18
ATOM     12  O   UNL     1       2.432  10.574  17.342  0.00  0.00    +0.000 OA
ATOM     13  C   UNL     1       2.071   9.758  18.185  0.00  0.00    +0.000 C 
ATOM     14  C   UNL     1       1.732   8.314  17.864  0.00  0.00    +0.000 C 
ATOM     15  N   UNL     1       2.116   7.415  18.959  0.00  0.00    +0.000 N 
ATOM     16  C   UNL     1       1.632   7.743  20.251  0.00  0.00    +0.000 C 
ATOM     17  O   UNL     1       1.560   6.960  21.201  0.00  0.00    +0.000 OA
ATOM     18  C   UNL     1       1.207   9.247  20.463  0.00  0.00    +0.000 C 
ATOM     19  N   UNL     1       1.821  10.132  19.474  0.00  0.00    +0.000 N 
ATOM     20  H   UNL     1       2.053  11.087  19.725  0.00  0.00    +0.000 HD
BRANCH  15  21
ATOM     21  C   UNL     1       2.692   6.126  18.611  0.00  0.00    +0.000 A 
ATOM     22  C   UNL     1       1.977   5.150  17.902  0.00  0.00    +0.000 A 
ATOM     23  C   UNL     1       2.552   3.915  17.552  0.00  0.00    +0.000 A 
ATOM     24  C   UNL     1       3.860   3.616  17.914  0.00  0.00    +0.000 A 
ATOM     25  C   UNL     1       4.587   4.549  18.638  0.00  0.00    +0.000 A 
ATOM     26  C   UNL     1       4.008   5.786  18.986  0.00  0.00    +0.000 A 
ENDBRANCH  15  21
ENDBRANCH  11  18
ENDBRANCH   1  11
BRANCH   2  27
ATOM     27  C   UNL     1      -2.577  11.983  19.702  0.00  0.00    +0.000 C 
BRANCH  27  28
ATOM     28  C   UNL     1      -2.989  11.363  18.410  0.00  0.00    +0.000 A 
ATOM     29  C   UNL     1      -2.011  10.801  17.574  0.00  0.00    +0.000 A 
ATOM     30  C   UNL     1      -2.314  10.528  16.246  0.00  0.00    +0.000 A 
ATOM     31  C   UNL     1      -3.578  10.813  15.740  0.00  0.00    +0.000 A 
ATOM     32  C   UNL     1      -4.575  11.307  16.580  0.00  0.00    +0.000 A 
ATOM     33  C   UNL     1      -4.279  11.526  17.913  0.00  0.00    +0.000 A 
BRANCH  33  34
ATOM     34  N   UNL     1      -5.354  11.928  18.808  0.00  0.00    +0.000 N 
ATOM     35  O   UNL     1      -5.653  13.132  18.838  0.00  0.00    +0.000 OA
ATOM     36  O   UNL     1      -5.910  11.047  19.478  0.00  0.00    +0.000 OA
ENDBRANCH  33  34
ENDBRANCH  27  28
BRANCH  27  37
ATOM     37  O   UNL     1      -2.999  13.343  19.595  0.00  0.00    +0.000 OA
ATOM     38  H   UNL     1      -2.337  13.921  20.006  0.00  0.00    +0.000 HD
ENDBRANCH  27  37
ENDBRANCH   2  27
TORSDOF 7
ENDMDL
