MODEL 1
REMARK VINA RESULT:      -7.9      0.000      0.000
REMARK  Name = 
REMARK  9 active torsions:
REMARK  status: ('A' for Active; 'I' for Inactive)
REMARK    1  A    between atoms: C_1  and  C_2
REMARK    2  A    between atoms: C_2  and  N_3
REMARK    3  A    between atoms: C_2  and  C_12
REMARK    4  A    between atoms: N_3  and  C_4
REMARK    5  A    between atoms: C_4  and  C_5
REMARK    6  A    between atoms: C_5  and  C_6
REMARK    7  A    between atoms: C_21  and  O_22
REMARK    8  A    between atoms: C_25  and  C_26
REMARK    9  A    between atoms: C_30  and  C_31
REMARK                            x       y       z     vdW  Elec       q    Type
REMARK                         _______ _______ _______ _____ _____    ______ ____
ROOT
ATOM      1  C   UNL     1       0.408  10.990  20.841  0.00  0.00    +0.000 C 
ATOM      2  C   UNL     1      -0.933  11.579  21.271  0.00  0.00    +0.000 C 
ATOM      3  C   UNL     1      -0.796  12.967  20.716  0.00  0.00    +0.000 C 
ATOM      4  C   UNL     1      -0.434  12.687  19.241  0.00  0.00    +0.000 C 
ATOM      5  C   UNL     1       0.335  13.837  18.573  0.00  0.00    +0.000 C 
ATOM      6  C   UNL     1      -0.317  15.193  18.845  0.00  0.00    +0.000 C 
ATOM      7  C   UNL     1       0.523  16.143  19.608  0.00  0.00    +0.000 C 
ATOM      8  C   UNL     1       1.844  16.023  19.829  0.00  0.00    +0.000 C 
ATOM      9  C   UNL     1       2.465  17.015  20.790  0.00  0.00    +0.000 C 
ATOM     10  C   UNL     1       3.380  16.343  21.810  0.00  0.00    +0.000 C 
ATOM     11  C   UNL     1       4.438  15.521  21.090  0.00  0.00    +0.000 C 
ATOM     12  C   UNL     1       3.785  14.399  20.297  0.00  0.00    +0.000 C 
ATOM     13  C   UNL     1       2.702  14.878  19.257  0.00  0.00    +0.000 C 
ATOM     14  C   UNL     1       3.428  15.320  17.975  0.00  0.00    +0.000 C 
ATOM     15  C   UNL     1       1.800  13.646  18.996  0.00  0.00    +0.000 C 
ATOM     16  C   UNL     1       2.335  12.511  18.120  0.00  0.00    +0.000 C 
ATOM     17  C   UNL     1       1.744  11.185  18.609  0.00  0.00    +0.000 C 
ATOM     18  C   UNL     1       0.316  11.243  19.257  0.00  0.00    +0.000 C 
ATOM     19  C   UNL     1      -0.602  10.341  18.399  0.00  0.00    +0.000 C 
ENDROOT
BRANCH   1  21
ATOM     20  C   UNL     1      -0.098   9.508  22.930  0.00  0.00    +0.000 C 
ATOM     21  C   UNL     1       0.811   9.769  21.722  0.00  0.00    +0.000 C 
BRANCH  21  22
ATOM     22  N   UNL     1       0.715   8.464  20.972  0.00  0.00    +0.000 NA
ATOM     23  H   UNL     1       0.612   8.677  19.976  0.00  0.00    +0.000 HD
BRANCH  22  24
ATOM     24  C   UNL     1       1.770   7.444  21.076  0.00  0.00    +0.000 C 
BRANCH  24  25
ATOM     25  C   UNL     1       2.279   6.896  19.731  0.00  0.00    +0.000 C 
BRANCH  25  26
ATOM     26  C   UNL     1       1.884   5.460  19.480  0.00  0.00    +0.000 A 
ATOM     27  C   UNL     1       1.342   4.658  20.503  0.00  0.00    +0.000 A 
ATOM     28  C   UNL     1       0.980   3.332  20.268  0.00  0.00    +0.000 A 
ATOM     29  C   UNL     1       1.125   2.789  18.991  0.00  0.00    +0.000 A 
ATOM     30  C   UNL     1       1.649   3.570  17.970  0.00  0.00    +0.000 A 
ATOM     31  C   UNL     1       2.037   4.889  18.204  0.00  0.00    +0.000 A 
ENDBRANCH  25  26
ENDBRANCH  24  25
ENDBRANCH  22  24
ENDBRANCH  21  22
ENDBRANCH   1  21
BRANCH  10  32
ATOM     32  O   UNL     1       2.624  15.521  22.706  0.00  0.00    +0.000 OA
ATOM     33  H   UNL     1       1.714  15.861  22.737  0.00  0.00    +0.000 HD
ENDBRANCH  10  32
TORSDOF 6
ENDMDL
MODEL 2
REMARK VINA RESULT:      -7.6      6.466     10.834
REMARK  Name = 
REMARK  9 active torsions:
REMARK  status: ('A' for Active; 'I' for Inactive)
REMARK    1  A    between atoms: C_1  and  C_2
REMARK    2  A    between atoms: C_2  and  N_3
REMARK    3  A    between atoms: C_2  and  C_12
REMARK    4  A    between atoms: N_3  and  C_4
REMARK    5  A    between atoms: C_4  and  C_5
REMARK    6  A    between atoms: C_5  and  C_6
REMARK    7  A    between atoms: C_21  and  O_22
REMARK    8  A    between atoms: C_25  and  C_26
REMARK    9  A    between atoms: C_30  and  C_31
REMARK                            x       y       z     vdW  Elec       q    Type
REMARK                         _______ _______ _______ _____ _____    ______ ____
ROOT
ATOM      1  C   UNL     1       6.066   5.855  17.905  0.00  0.00    +0.000 C 
ATOM      2  C   UNL     1       6.652   4.690  17.111  0.00  0.00    +0.000 C 
ATOM      3  C   UNL     1       5.472   3.762  17.104  0.00  0.00    +0.000 C 
ATOM      4  C   UNL     1       4.352   4.674  16.557  0.00  0.00    +0.000 C 
ATOM      5  C   UNL     1       2.943   4.229  16.979  0.00  0.00    +0.000 C 
ATOM      6  C   UNL     1       2.732   2.729  16.768  0.00  0.00    +0.000 C 
ATOM      7  C   UNL     1       2.473   1.960  18.005  0.00  0.00    +0.000 C 
ATOM      8  C   UNL     1       2.148   2.480  19.202  0.00  0.00    +0.000 C 
ATOM      9  C   UNL     1       2.108   1.520  20.373  0.00  0.00    +0.000 C 
ATOM     10  C   UNL     1       2.834   2.066  21.598  0.00  0.00    +0.000 C 
ATOM     11  C   UNL     1       2.267   3.428  21.969  0.00  0.00    +0.000 C 
ATOM     12  C   UNL     1       2.513   4.426  20.848  0.00  0.00    +0.000 C 
ATOM     13  C   UNL     1       1.939   3.987  19.446  0.00  0.00    +0.000 C 
ATOM     14  C   UNL     1       0.446   4.352  19.402  0.00  0.00    +0.000 C 
ATOM     15  C   UNL     1       2.745   4.790  18.395  0.00  0.00    +0.000 C 
ATOM     16  C   UNL     1       2.438   6.278  18.207  0.00  0.00    +0.000 C 
ATOM     17  C   UNL     1       3.726   7.005  17.812  0.00  0.00    +0.000 C 
ATOM     18  C   UNL     1       4.782   6.181  16.995  0.00  0.00    +0.000 C 
ATOM     19  C   UNL     1       4.979   6.915  15.647  0.00  0.00    +0.000 C 
ENDROOT
BRANCH   1  21
ATOM     20  C   UNL     1       8.322   5.938  19.217  0.00  0.00    +0.000 C 
ATOM     21  C   UNL     1       7.180   6.726  18.560  0.00  0.00    +0.000 C 
BRANCH  21  22
ATOM     22  N   UNL     1       7.921   7.564  17.549  0.00  0.00    +0.000 NA
ATOM     23  H   UNL     1       7.505   7.393  16.629  0.00  0.00    +0.000 HD
BRANCH  22  24
ATOM     24  C   UNL     1       8.028   9.023  17.697  0.00  0.00    +0.000 C 
BRANCH  24  25
ATOM     25  C   UNL     1       8.905   9.494  18.871  0.00  0.00    +0.000 C 
BRANCH  25  26
ATOM     26  C   UNL     1       9.468  10.882  18.681  0.00  0.00    +0.000 A 
ATOM     27  C   UNL     1      10.662  11.282  19.311  0.00  0.00    +0.000 A 
ATOM     28  C   UNL     1      11.179  12.565  19.134  0.00  0.00    +0.000 A 
ATOM     29  C   UNL     1      10.524  13.468  18.296  0.00  0.00    +0.000 A 
ATOM     30  C   UNL     1       9.350  13.085  17.661  0.00  0.00    +0.000 A 
ATOM     31  C   UNL     1       8.815  11.811  17.853  0.00  0.00    +0.000 A 
ENDBRANCH  25  26
ENDBRANCH  24  25
ENDBRANCH  22  24
ENDBRANCH  21  22
ENDBRANCH   1  21
BRANCH  10  32
ATOM     32  O   UNL     1       4.243   2.155  21.356  0.00  0.00    +0.000 OA
ATOM     33  H   UNL     1       4.589   1.254  21.237  0.00  0.00    +0.000 HD
ENDBRANCH  10  32
TORSDOF 6
ENDMDL
MODEL 3
REMARK VINA RESULT:      -7.6      0.901      1.388
REMARK  Name = 
REMARK  9 active torsions:
REMARK  status: ('A' for Active; 'I' for Inactive)
REMARK    1  A    between atoms: C_1  and  C_2
REMARK    2  A    between atoms: C_2  and  N_3
REMARK    3  A    between atoms: C_2  and  C_12
REMARK    4  A    between atoms: N_3  and  C_4
REMARK    5  A    between atoms: C_4  and  C_5
REMARK    6  A    between atoms: C_5  and  C_6
REMARK    7  A    between atoms: C_21  and  O_22
REMARK    8  A    between atoms: C_25  and  C_26
REMARK    9  A    between atoms: C_30  and  C_31
REMARK                            x       y       z     vdW  Elec       q    Type
REMARK                         _______ _______ _______ _____ _____    ______ ____
ROOT
ATOM      1  C   UNL     1       0.534  10.703  20.639  0.00  0.00    +0.000 C 
ATOM      2  C   UNL     1      -0.818  11.223  21.120  0.00  0.00    +0.000 C 
ATOM      3  C   UNL     1      -0.721  12.651  20.667  0.00  0.00    +0.000 C 
ATOM      4  C   UNL     1      -0.365  12.489  19.173  0.00  0.00    +0.000 C 
ATOM      5  C   UNL     1       0.369  13.704  18.585  0.00  0.00    +0.000 C 
ATOM      6  C   UNL     1      -0.317  15.019  18.960  0.00  0.00    +0.000 C 
ATOM      7  C   UNL     1       0.505  15.933  19.785  0.00  0.00    +0.000 C 
ATOM      8  C   UNL     1       1.831  15.832  19.988  0.00  0.00    +0.000 C 
ATOM      9  C   UNL     1       2.434  16.768  21.015  0.00  0.00    +0.000 C 
ATOM     10  C   UNL     1       3.374  16.048  21.977  0.00  0.00    +0.000 C 
ATOM     11  C   UNL     1       4.447  15.310  21.192  0.00  0.00    +0.000 C 
ATOM     12  C   UNL     1       3.817  14.231  20.324  0.00  0.00    +0.000 C 
ATOM     13  C   UNL     1       2.714  14.756  19.328  0.00  0.00    +0.000 C 
ATOM     14  C   UNL     1       3.416  15.309  18.077  0.00  0.00    +0.000 C 
ATOM     15  C   UNL     1       1.841  13.523  18.984  0.00  0.00    +0.000 C 
ATOM     16  C   UNL     1       2.399  12.469  18.024  0.00  0.00    +0.000 C 
ATOM     17  C   UNL     1       1.846  11.096  18.418  0.00  0.00    +0.000 C 
ATOM     18  C   UNL     1       0.423  11.068  19.078  0.00  0.00    +0.000 C 
ATOM     19  C   UNL     1      -0.479  10.207  18.162  0.00  0.00    +0.000 C 
ENDROOT
BRANCH   1  21
ATOM     20  C   UNL     1       0.067   9.041  22.598  0.00  0.00    +0.000 C 
ATOM     21  C   UNL     1       0.977   9.432  21.425  0.00  0.00    +0.000 C 
BRANCH  21  22
ATOM     22  N   UNL     1       0.939   8.188  20.574  0.00  0.00    +0.000 NA
ATOM     23  H   UNL     1       0.386   8.393  19.736  0.00  0.00    +0.000 HD
BRANCH  22  24
ATOM     24  C   UNL     1       2.176   7.540  20.113  0.00  0.00    +0.000 C 
BRANCH  24  25
ATOM     25  C   UNL     1       2.357   7.498  18.585  0.00  0.00    +0.000 C 
BRANCH  25  26
ATOM     26  C   UNL     1       2.750   6.136  18.064  0.00  0.00    +0.000 A 
ATOM     27  C   UNL     1       4.034   5.894  17.539  0.00  0.00    +0.000 A 
ATOM     28  C   UNL     1       4.394   4.635  17.058  0.00  0.00    +0.000 A 
ATOM     29  C   UNL     1       3.481   3.582  17.120  0.00  0.00    +0.000 A 
ATOM     30  C   UNL     1       2.214   3.803  17.644  0.00  0.00    +0.000 A 
ATOM     31  C   UNL     1       1.840   5.065  18.104  0.00  0.00    +0.000 A 
ENDBRANCH  25  26
ENDBRANCH  24  25
ENDBRANCH  22  24
ENDBRANCH  21  22
ENDBRANCH   1  21
BRANCH  10  32
ATOM     32  O   UNL     1       2.648  15.143  22.816  0.00  0.00    +0.000 OA
ATOM     33  H   UNL     1       1.954  14.723  22.281  0.00  0.00    +0.000 HD
ENDBRANCH  10  32
TORSDOF 6
ENDMDL
MODEL 4
REMARK VINA RESULT:      -7.4      0.568      1.034
REMARK  Name = 
REMARK  9 active torsions:
REMARK  status: ('A' for Active; 'I' for Inactive)
REMARK    1  A    between atoms: C_1  and  C_2
REMARK    2  A    between atoms: C_2  and  N_3
REMARK    3  A    between atoms: C_2  and  C_12
REMARK    4  A    between atoms: N_3  and  C_4
REMARK    5  A    between atoms: C_4  and  C_5
REMARK    6  A    between atoms: C_5  and  C_6
REMARK    7  A    between atoms: C_21  and  O_22
REMARK    8  A    between atoms: C_25  and  C_26
REMARK    9  A    between atoms: C_30  and  C_31
REMARK                            x       y       z     vdW  Elec       q    Type
REMARK                         _______ _______ _______ _____ _____    ______ ____
ROOT
ATOM      1  C   UNL     1       0.403  11.085  20.981  0.00  0.00    +0.000 C 
ATOM      2  C   UNL     1      -0.800  11.640  21.738  0.00  0.00    +0.000 C 
ATOM      3  C   UNL     1      -0.676  13.096  21.390  0.00  0.00    +0.000 C 
ATOM      4  C   UNL     1      -0.599  13.050  19.848  0.00  0.00    +0.000 C 
ATOM      5  C   UNL     1       0.112  14.267  19.237  0.00  0.00    +0.000 C 
ATOM      6  C   UNL     1      -0.395  15.582  19.833  0.00  0.00    +0.000 C 
ATOM      7  C   UNL     1       0.625  16.364  20.566  0.00  0.00    +0.000 C 
ATOM      8  C   UNL     1       1.954  16.164  20.518  0.00  0.00    +0.000 C 
ATOM      9  C   UNL     1       2.798  16.963  21.490  0.00  0.00    +0.000 C 
ATOM     10  C   UNL     1       3.833  16.101  22.206  0.00  0.00    +0.000 C 
ATOM     11  C   UNL     1       4.693  15.374  21.184  0.00  0.00    +0.000 C 
ATOM     12  C   UNL     1       3.841  14.420  20.361  0.00  0.00    +0.000 C 
ATOM     13  C   UNL     1       2.624  15.101  19.626  0.00  0.00    +0.000 C 
ATOM     14  C   UNL     1       3.138  15.723  18.317  0.00  0.00    +0.000 C 
ATOM     15  C   UNL     1       1.613  13.960  19.347  0.00  0.00    +0.000 C 
ATOM     16  C   UNL     1       1.912  12.967  18.222  0.00  0.00    +0.000 C 
ATOM     17  C   UNL     1       1.334  11.600  18.599  0.00  0.00    +0.000 C 
ATOM     18  C   UNL     1       0.049  11.599  19.500  0.00  0.00    +0.000 C 
ATOM     19  C   UNL     1      -1.062  10.882  18.696  0.00  0.00    +0.000 C 
ENDROOT
BRANCH   1  21
ATOM     20  C   UNL     1      -0.140   9.013  22.475  0.00  0.00    +0.000 C 
ATOM     21  C   UNL     1       0.878   9.723  21.570  0.00  0.00    +0.000 C 
BRANCH  21  22
ATOM     22  N   UNL     1       1.119   8.688  20.501  0.00  0.00    +0.000 NA
ATOM     23  H   UNL     1       1.673   9.122  19.758  0.00  0.00    +0.000 HD
BRANCH  22  24
ATOM     24  C   UNL     1       1.766   7.404  20.812  0.00  0.00    +0.000 C 
BRANCH  24  25
ATOM     25  C   UNL     1       2.429   6.703  19.613  0.00  0.00    +0.000 C 
BRANCH  25  26
ATOM     26  C   UNL     1       1.955   5.283  19.411  0.00  0.00    +0.000 A 
ATOM     27  C   UNL     1       2.132   4.618  18.183  0.00  0.00    +0.000 A 
ATOM     28  C   UNL     1       1.693   3.307  17.999  0.00  0.00    +0.000 A 
ATOM     29  C   UNL     1       1.091   2.622  19.055  0.00  0.00    +0.000 A 
ATOM     30  C   UNL     1       0.918   3.262  20.276  0.00  0.00    +0.000 A 
ATOM     31  C   UNL     1       1.333   4.581  20.458  0.00  0.00    +0.000 A 
ENDBRANCH  25  26
ENDBRANCH  24  25
ENDBRANCH  22  24
ENDBRANCH  21  22
ENDBRANCH   1  21
BRANCH  10  32
ATOM     32  O   UNL     1       3.197  15.169  23.088  0.00  0.00    +0.000 OA
ATOM     33  H   UNL     1       2.291  15.477  23.254  0.00  0.00    +0.000 HD
ENDBRANCH  10  32
TORSDOF 6
ENDMDL
MODEL 5
REMARK VINA RESULT:      -7.3      1.404      2.497
REMARK  Name = 
REMARK  9 active torsions:
REMARK  status: ('A' for Active; 'I' for Inactive)
REMARK    1  A    between atoms: C_1  and  C_2
REMARK    2  A    between atoms: C_2  and  N_3
REMARK    3  A    between atoms: C_2  and  C_12
REMARK    4  A    between atoms: N_3  and  C_4
REMARK    5  A    between atoms: C_4  and  C_5
REMARK    6  A    between atoms: C_5  and  C_6
REMARK    7  A    between atoms: C_21  and  O_22
REMARK    8  A    between atoms: C_25  and  C_26
REMARK    9  A    between atoms: C_30  and  C_31
REMARK                            x       y       z     vdW  Elec       q    Type
REMARK                         _______ _______ _______ _____ _____    ______ ____
ROOT
ATOM      1  C   UNL     1       0.295  10.141  19.342  0.00  0.00    +0.000 C 
ATOM      2  C   UNL     1      -0.111   9.662  20.734  0.00  0.00    +0.000 C 
ATOM      3  C   UNL     1      -0.326  10.985  21.410  0.00  0.00    +0.000 C 
ATOM      4  C   UNL     1      -1.304  11.685  20.441  0.00  0.00    +0.000 C 
ATOM      5  C   UNL     1      -1.251  13.218  20.523  0.00  0.00    +0.000 C 
ATOM      6  C   UNL     1      -1.289  13.713  21.970  0.00  0.00    +0.000 C 
ATOM      7  C   UNL     1      -0.081  14.450  22.404  0.00  0.00    +0.000 C 
ATOM      8  C   UNL     1       0.878  14.936  21.596  0.00  0.00    +0.000 C 
ATOM      9  C   UNL     1       2.114  15.495  22.269  0.00  0.00    +0.000 C 
ATOM     10  C   UNL     1       3.403  14.995  21.623  0.00  0.00    +0.000 C 
ATOM     11  C   UNL     1       3.386  15.304  20.134  0.00  0.00    +0.000 C 
ATOM     12  C   UNL     1       2.251  14.555  19.453  0.00  0.00    +0.000 C 
ATOM     13  C   UNL     1       0.824  14.842  20.059  0.00  0.00    +0.000 C 
ATOM     14  C   UNL     1       0.292  16.147  19.444  0.00  0.00    +0.000 C 
ATOM     15  C   UNL     1      -0.053  13.631  19.654  0.00  0.00    +0.000 C 
ATOM     16  C   UNL     1      -0.540  13.524  18.207  0.00  0.00    +0.000 C 
ATOM     17  C   UNL     1      -0.646  12.044  17.827  0.00  0.00    +0.000 C 
ATOM     18  C   UNL     1      -0.988  11.039  18.981  0.00  0.00    +0.000 C 
ATOM     19  C   UNL     1      -2.313  10.342  18.592  0.00  0.00    +0.000 C 
ENDROOT
BRANCH   1  21
ATOM     20  C   UNL     1       2.254   9.595  17.705  0.00  0.00    +0.000 C 
ATOM     21  C   UNL     1       1.110   9.057  18.574  0.00  0.00    +0.000 C 
BRANCH  21  22
ATOM     22  N   UNL     1       1.838   8.121  19.504  0.00  0.00    +0.000 NA
ATOM     23  H   UNL     1       1.140   7.570  20.012  0.00  0.00    +0.000 HD
BRANCH  22  24
ATOM     24  C   UNL     1       2.839   7.168  19.000  0.00  0.00    +0.000 C 
BRANCH  24  25
ATOM     25  C   UNL     1       2.258   5.929  18.294  0.00  0.00    +0.000 C 
BRANCH  25  26
ATOM     26  C   UNL     1       1.953   4.789  19.236  0.00  0.00    +0.000 A 
ATOM     27  C   UNL     1       1.287   3.630  18.794  0.00  0.00    +0.000 A 
ATOM     28  C   UNL     1       1.007   2.579  19.666  0.00  0.00    +0.000 A 
ATOM     29  C   UNL     1       1.416   2.654  20.998  0.00  0.00    +0.000 A 
ATOM     30  C   UNL     1       2.082   3.786  21.447  0.00  0.00    +0.000 A 
ATOM     31  C   UNL     1       2.344   4.851  20.585  0.00  0.00    +0.000 A 
ENDBRANCH  25  26
ENDBRANCH  24  25
ENDBRANCH  22  24
ENDBRANCH  21  22
ENDBRANCH   1  21
BRANCH  10  32
ATOM     32  O   UNL     1       3.573  13.591  21.847  0.00  0.00    +0.000 OA
ATOM     33  H   UNL     1       2.947  13.315  22.537  0.00  0.00    +0.000 HD
ENDBRANCH  10  32
TORSDOF 6
ENDMDL
MODEL 6
REMARK VINA RESULT:      -7.3      1.298      2.082
REMARK  Name = 
REMARK  9 active torsions:
REMARK  status: ('A' for Active; 'I' for Inactive)
REMARK    1  A    between atoms: C_1  and  C_2
REMARK    2  A    between atoms: C_2  and  N_3
REMARK    3  A    between atoms: C_2  and  C_12
REMARK    4  A    between atoms: N_3  and  C_4
REMARK    5  A    between atoms: C_4  and  C_5
REMARK    6  A    between atoms: C_5  and  C_6
REMARK    7  A    between atoms: C_21  and  O_22
REMARK    8  A    between atoms: C_25  and  C_26
REMARK    9  A    between atoms: C_30  and  C_31
REMARK                            x       y       z     vdW  Elec       q    Type
REMARK                         _______ _______ _______ _____ _____    ______ ____
ROOT
ATOM      1  C   UNL     1       0.118  10.723  19.826  0.00  0.00    +0.000 C 
ATOM      2  C   UNL     1      -0.353  10.420  21.246  0.00  0.00    +0.000 C 
ATOM      3  C   UNL     1      -0.331  11.805  21.827  0.00  0.00    +0.000 C 
ATOM      4  C   UNL     1      -1.182  12.592  20.806  0.00  0.00    +0.000 C 
ATOM      5  C   UNL     1      -0.866  14.095  20.780  0.00  0.00    +0.000 C 
ATOM      6  C   UNL     1      -0.807  14.690  22.188  0.00  0.00    +0.000 C 
ATOM      7  C   UNL     1       0.513  15.237  22.574  0.00  0.00    +0.000 C 
ATOM      8  C   UNL     1       1.534  15.493  21.738  0.00  0.00    +0.000 C 
ATOM      9  C   UNL     1       2.854  15.876  22.375  0.00  0.00    +0.000 C 
ATOM     10  C   UNL     1       4.033  15.119  21.772  0.00  0.00    +0.000 C 
ATOM     11  C   UNL     1       4.057  15.320  20.265  0.00  0.00    +0.000 C 
ATOM     12  C   UNL     1       2.804  14.732  19.633  0.00  0.00    +0.000 C 
ATOM     13  C   UNL     1       1.453  15.301  20.212  0.00  0.00    +0.000 C 
ATOM     14  C   UNL     1       1.148  16.632  19.504  0.00  0.00    +0.000 C 
ATOM     15  C   UNL     1       0.378  14.234  19.889  0.00  0.00    +0.000 C 
ATOM     16  C   UNL     1      -0.132  14.111  18.451  0.00  0.00    +0.000 C 
ATOM     17  C   UNL     1      -0.494  12.648  18.176  0.00  0.00    +0.000 C 
ATOM     18  C   UNL     1      -0.994  11.800  19.397  0.00  0.00    +0.000 C 
ATOM     19  C   UNL     1      -2.422  11.316  19.053  0.00  0.00    +0.000 C 
ENDROOT
BRANCH   1  21
ATOM     20  C   UNL     1       1.730   9.755  18.014  0.00  0.00    +0.000 C 
ATOM     21  C   UNL     1       0.728   9.463  19.140  0.00  0.00    +0.000 C 
BRANCH  21  22
ATOM     22  N   UNL     1       1.558   8.638  20.090  0.00  0.00    +0.000 NA
ATOM     23  H   UNL     1       0.984   8.423  20.909  0.00  0.00    +0.000 HD
BRANCH  22  24
ATOM     24  C   UNL     1       2.174   7.372  19.664  0.00  0.00    +0.000 C 
BRANCH  24  25
ATOM     25  C   UNL     1       1.904   6.174  20.593  0.00  0.00    +0.000 C 
BRANCH  25  26
ATOM     26  C   UNL     1       1.722   4.870  19.853  0.00  0.00    +0.000 A 
ATOM     27  C   UNL     1       1.087   3.767  20.456  0.00  0.00    +0.000 A 
ATOM     28  C   UNL     1       0.920   2.564  19.771  0.00  0.00    +0.000 A 
ATOM     29  C   UNL     1       1.362   2.450  18.452  0.00  0.00    +0.000 A 
ATOM     30  C   UNL     1       1.981   3.532  17.841  0.00  0.00    +0.000 A 
ATOM     31  C   UNL     1       2.172   4.730  18.529  0.00  0.00    +0.000 A 
ENDBRANCH  25  26
ENDBRANCH  24  25
ENDBRANCH  22  24
ENDBRANCH  21  22
ENDBRANCH   1  21
BRANCH  10  32
ATOM     32  O   UNL     1       3.960  13.725  22.095  0.00  0.00    +0.000 OA
ATOM     33  H   UNL     1       3.858  13.641  23.058  0.00  0.00    +0.000 HD
ENDBRANCH  10  32
TORSDOF 6
ENDMDL
MODEL 7
REMARK VINA RESULT:      -7.2      3.183      5.461
REMARK  Name = 
REMARK  9 active torsions:
REMARK  status: ('A' for Active; 'I' for Inactive)
REMARK    1  A    between atoms: C_1  and  C_2
REMARK    2  A    between atoms: C_2  and  N_3
REMARK    3  A    between atoms: C_2  and  C_12
REMARK    4  A    between atoms: N_3  and  C_4
REMARK    5  A    between atoms: C_4  and  C_5
REMARK    6  A    between atoms: C_5  and  C_6
REMARK    7  A    between atoms: C_21  and  O_22
REMARK    8  A    between atoms: C_25  and  C_26
REMARK    9  A    between atoms: C_30  and  C_31
REMARK                            x       y       z     vdW  Elec       q    Type
REMARK                         _______ _______ _______ _____ _____    ______ ____
ROOT
ATOM      1  C   UNL     1      -0.746  11.573  19.271  0.00  0.00    +0.000 C 
ATOM      2  C   UNL     1      -0.239  12.737  18.424  0.00  0.00    +0.000 C 
ATOM      3  C   UNL     1      -0.903  13.882  19.133  0.00  0.00    +0.000 C 
ATOM      4  C   UNL     1      -0.463  13.651  20.595  0.00  0.00    +0.000 C 
ATOM      5  C   UNL     1      -1.421  14.267  21.625  0.00  0.00    +0.000 C 
ATOM      6  C   UNL     1      -1.792  15.708  21.269  0.00  0.00    +0.000 C 
ATOM      7  C   UNL     1      -3.229  15.927  20.993  0.00  0.00    +0.000 C 
ATOM      8  C   UNL     1      -4.226  15.074  21.284  0.00  0.00    +0.000 C 
ATOM      9  C   UNL     1      -5.599  15.422  20.747  0.00  0.00    +0.000 C 
ATOM     10  C   UNL     1      -6.287  14.229  20.092  0.00  0.00    +0.000 C 
ATOM     11  C   UNL     1      -6.346  13.067  21.072  0.00  0.00    +0.000 C 
ATOM     12  C   UNL     1      -4.942  12.605  21.429  0.00  0.00    +0.000 C 
ATOM     13  C   UNL     1      -4.013  13.735  22.018  0.00  0.00    +0.000 C 
ATOM     14  C   UNL     1      -4.316  13.874  23.519  0.00  0.00    +0.000 C 
ATOM     15  C   UNL     1      -2.562  13.249  21.780  0.00  0.00    +0.000 C 
ATOM     16  C   UNL     1      -2.000  12.136  22.669  0.00  0.00    +0.000 C 
ATOM     17  C   UNL     1      -1.009  11.302  21.852  0.00  0.00    +0.000 C 
ATOM     18  C   UNL     1      -0.224  12.045  20.716  0.00  0.00    +0.000 C 
ATOM     19  C   UNL     1       1.280  11.921  21.054  0.00  0.00    +0.000 C 
ENDROOT
BRANCH   1  21
ATOM     20  C   UNL     1      -1.748  10.079  17.379  0.00  0.00    +0.000 C 
ATOM     21  C   UNL     1      -0.698  10.226  18.489  0.00  0.00    +0.000 C 
BRANCH  21  22
ATOM     22  N   UNL     1       0.590  10.051  17.726  0.00  0.00    +0.000 NA
ATOM     23  H   UNL     1       0.816  10.943  17.275  0.00  0.00    +0.000 HD
BRANCH  22  24
ATOM     24  C   UNL     1       1.818   9.596  18.395  0.00  0.00    +0.000 C 
BRANCH  24  25
ATOM     25  C   UNL     1       2.501   8.381  17.742  0.00  0.00    +0.000 C 
BRANCH  25  26
ATOM     26  C   UNL     1       2.319   7.099  18.519  0.00  0.00    +0.000 A 
ATOM     27  C   UNL     1       2.418   5.841  17.894  0.00  0.00    +0.000 A 
ATOM     28  C   UNL     1       2.249   4.660  18.615  0.00  0.00    +0.000 A 
ATOM     29  C   UNL     1       2.006   4.713  19.988  0.00  0.00    +0.000 A 
ATOM     30  C   UNL     1       1.916   5.946  20.621  0.00  0.00    +0.000 A 
ATOM     31  C   UNL     1       2.060   7.132  19.901  0.00  0.00    +0.000 A 
ENDBRANCH  25  26
ENDBRANCH  24  25
ENDBRANCH  22  24
ENDBRANCH  21  22
ENDBRANCH   1  21
BRANCH  10  32
ATOM     32  O   UNL     1      -5.606  13.845  18.892  0.00  0.00    +0.000 OA
ATOM     33  H   UNL     1      -6.095  13.109  18.487  0.00  0.00    +0.000 HD
ENDBRANCH  10  32
TORSDOF 6
ENDMDL
MODEL 8
REMARK VINA RESULT:      -7.2      4.299      7.557
REMARK  Name = 
REMARK  9 active torsions:
REMARK  status: ('A' for Active; 'I' for Inactive)
REMARK    1  A    between atoms: C_1  and  C_2
REMARK    2  A    between atoms: C_2  and  N_3
REMARK    3  A    between atoms: C_2  and  C_12
REMARK    4  A    between atoms: N_3  and  C_4
REMARK    5  A    between atoms: C_4  and  C_5
REMARK    6  A    between atoms: C_5  and  C_6
REMARK    7  A    between atoms: C_21  and  O_22
REMARK    8  A    between atoms: C_25  and  C_26
REMARK    9  A    between atoms: C_30  and  C_31
REMARK                            x       y       z     vdW  Elec       q    Type
REMARK                         _______ _______ _______ _____ _____    ______ ____
ROOT
ATOM      1  C   UNL     1      -0.662  12.776  19.311  0.00  0.00    +0.000 C 
ATOM      2  C   UNL     1      -0.259  14.196  18.919  0.00  0.00    +0.000 C 
ATOM      3  C   UNL     1      -0.840  14.958  20.075  0.00  0.00    +0.000 C 
ATOM      4  C   UNL     1      -0.234  14.214  21.285  0.00  0.00    +0.000 C 
ATOM      5  C   UNL     1      -1.069  14.353  22.567  0.00  0.00    +0.000 C 
ATOM      6  C   UNL     1      -1.482  15.803  22.824  0.00  0.00    +0.000 C 
ATOM      7  C   UNL     1      -2.942  16.044  22.805  0.00  0.00    +0.000 C 
ATOM      8  C   UNL     1      -3.897  15.098  22.855  0.00  0.00    +0.000 C 
ATOM      9  C   UNL     1      -5.323  15.558  22.638  0.00  0.00    +0.000 C 
ATOM     10  C   UNL     1      -6.079  14.669  21.656  0.00  0.00    +0.000 C 
ATOM     11  C   UNL     1      -6.022  13.222  22.123  0.00  0.00    +0.000 C 
ATOM     12  C   UNL     1      -4.584  12.726  22.128  0.00  0.00    +0.000 C 
ATOM     13  C   UNL     1      -3.597  13.593  23.000  0.00  0.00    +0.000 C 
ATOM     14  C   UNL     1      -3.726  13.143  24.464  0.00  0.00    +0.000 C 
ATOM     15  C   UNL     1      -2.181  13.300  22.444  0.00  0.00    +0.000 C 
ATOM     16  C   UNL     1      -1.518  11.962  22.780  0.00  0.00    +0.000 C 
ATOM     17  C   UNL     1      -0.625  11.542  21.609  0.00  0.00    +0.000 C 
ATOM     18  C   UNL     1       0.022  12.694  20.763  0.00  0.00    +0.000 C 
ATOM     19  C   UNL     1       1.555  12.521  20.867  0.00  0.00    +0.000 C 
ENDROOT
BRANCH   1  21
ATOM     20  C   UNL     1      -0.799  10.330  18.407  0.00  0.00    +0.000 C 
ATOM     21  C   UNL     1      -0.701  11.826  18.076  0.00  0.00    +0.000 C 
BRANCH  21  22
ATOM     22  N   UNL     1      -1.928  12.038  17.227  0.00  0.00    +0.000 NA
ATOM     23  H   UNL     1      -1.622  12.295  16.285  0.00  0.00    +0.000 HD
BRANCH  22  24
ATOM     24  C   UNL     1      -2.939  10.982  17.068  0.00  0.00    +0.000 C 
BRANCH  24  25
ATOM     25  C   UNL     1      -4.238  11.425  16.370  0.00  0.00    +0.000 C 
BRANCH  25  26
ATOM     26  C   UNL     1      -5.392  11.628  17.322  0.00  0.00    +0.000 A 
ATOM     27  C   UNL     1      -5.617  10.752  18.401  0.00  0.00    +0.000 A 
ATOM     28  C   UNL     1      -6.684  10.943  19.278  0.00  0.00    +0.000 A 
ATOM     29  C   UNL     1      -7.534  12.036  19.110  0.00  0.00    +0.000 A 
ATOM     30  C   UNL     1      -7.319  12.915  18.056  0.00  0.00    +0.000 A 
ATOM     31  C   UNL     1      -6.269  12.716  17.161  0.00  0.00    +0.000 A 
ENDBRANCH  25  26
ENDBRANCH  24  25
ENDBRANCH  22  24
ENDBRANCH  21  22
ENDBRANCH   1  21
BRANCH  10  32
ATOM     32  O   UNL     1      -5.540  14.796  20.336  0.00  0.00    +0.000 OA
ATOM     33  H   UNL     1      -6.115  14.307  19.724  0.00  0.00    +0.000 HD
ENDBRANCH  10  32
TORSDOF 6
ENDMDL
MODEL 9
REMARK VINA RESULT:      -7.2      1.256      2.146
REMARK  Name = 
REMARK  9 active torsions:
REMARK  status: ('A' for Active; 'I' for Inactive)
REMARK    1  A    between atoms: C_1  and  C_2
REMARK    2  A    between atoms: C_2  and  N_3
REMARK    3  A    between atoms: C_2  and  C_12
REMARK    4  A    between atoms: N_3  and  C_4
REMARK    5  A    between atoms: C_4  and  C_5
REMARK    6  A    between atoms: C_5  and  C_6
REMARK    7  A    between atoms: C_21  and  O_22
REMARK    8  A    between atoms: C_25  and  C_26
REMARK    9  A    between atoms: C_30  and  C_31
REMARK                            x       y       z     vdW  Elec       q    Type
REMARK                         _______ _______ _______ _____ _____    ______ ____
ROOT
ATOM      1  C   UNL     1      -0.180  11.057  20.260  0.00  0.00    +0.000 C 
ATOM      2  C   UNL     1      -0.666  10.966  21.705  0.00  0.00    +0.000 C 
ATOM      3  C   UNL     1      -0.475  12.393  22.132  0.00  0.00    +0.000 C 
ATOM      4  C   UNL     1      -1.242  13.160  21.033  0.00  0.00    +0.000 C 
ATOM      5  C   UNL     1      -0.752  14.605  20.844  0.00  0.00    +0.000 C 
ATOM      6  C   UNL     1      -0.607  15.336  22.179  0.00  0.00    +0.000 C 
ATOM      7  C   UNL     1       0.772  15.762  22.505  0.00  0.00    +0.000 C 
ATOM      8  C   UNL     1       1.806  15.806  21.646  0.00  0.00    +0.000 C 
ATOM      9  C   UNL     1       3.170  16.098  22.238  0.00  0.00    +0.000 C 
ATOM     10  C   UNL     1       4.244  15.147  21.720  0.00  0.00    +0.000 C 
ATOM     11  C   UNL     1       4.273  15.181  20.200  0.00  0.00    +0.000 C 
ATOM     12  C   UNL     1       2.953  14.679  19.635  0.00  0.00    +0.000 C 
ATOM     13  C   UNL     1       1.684  15.462  20.149  0.00  0.00    +0.000 C 
ATOM     14  C   UNL     1       1.528  16.736  19.302  0.00  0.00    +0.000 C 
ATOM     15  C   UNL     1       0.488  14.500  19.944  0.00  0.00    +0.000 C 
ATOM     16  C   UNL     1      -0.051  14.284  18.527  0.00  0.00    +0.000 C 
ATOM     17  C   UNL     1      -0.584  12.853  18.412  0.00  0.00    +0.000 C 
ATOM     18  C   UNL     1      -1.164  12.205  19.717  0.00  0.00    +0.000 C 
ATOM     19  C   UNL     1      -2.644  11.858  19.427  0.00  0.00    +0.000 C 
ENDROOT
BRANCH   1  21
ATOM     20  C   UNL     1       0.950   9.698  18.338  0.00  0.00    +0.000 C 
ATOM     21  C   UNL     1       0.270   9.669  19.714  0.00  0.00    +0.000 C 
BRANCH  21  22
ATOM     22  N   UNL     1       1.332   9.031  20.574  0.00  0.00    +0.000 NA
ATOM     23  H   UNL     1       1.288   9.459  21.503  0.00  0.00    +0.000 HD
BRANCH  22  24
ATOM     24  C   UNL     1       1.375   7.576  20.782  0.00  0.00    +0.000 C 
BRANCH  24  25
ATOM     25  C   UNL     1       2.349   6.816  19.864  0.00  0.00    +0.000 C 
BRANCH  25  26
ATOM     26  C   UNL     1       1.905   5.407  19.552  0.00  0.00    +0.000 A 
ATOM     27  C   UNL     1       2.035   4.866  18.258  0.00  0.00    +0.000 A 
ATOM     28  C   UNL     1       1.624   3.565  17.973  0.00  0.00    +0.000 A 
ATOM     29  C   UNL     1       1.097   2.765  18.988  0.00  0.00    +0.000 A 
ATOM     30  C   UNL     1       0.971   3.281  20.271  0.00  0.00    +0.000 A 
ATOM     31  C   UNL     1       1.358   4.590  20.557  0.00  0.00    +0.000 A 
ENDBRANCH  25  26
ENDBRANCH  24  25
ENDBRANCH  22  24
ENDBRANCH  21  22
ENDBRANCH   1  21
BRANCH  10  32
ATOM     32  O   UNL     1       4.014  13.814  22.192  0.00  0.00    +0.000 OA
ATOM     33  H   UNL     1       4.868  13.353  22.229  0.00  0.00    +0.000 HD
ENDBRANCH  10  32
TORSDOF 6
ENDMDL
