MODEL 1
REMARK VINA RESULT:      -8.4      0.000      0.000
REMARK  Name = 
REMARK  4 active torsions:
REMARK  status: ('A' for Active; 'I' for Inactive)
REMARK    1  A    between atoms: C_7  and  N_8
REMARK    2  A    between atoms: N_11  and  C_12
REMARK    3  A    between atoms: C_15  and  O_16
REMARK    4  A    between atoms: O_16  and  C_17
REMARK                            x       y       z     vdW  Elec       q    Type
REMARK                         _______ _______ _______ _____ _____    ______ ____
ROOT
ATOM      1  N   UNL     1       1.560   7.621  21.269  0.00  0.00    +0.000 N 
ATOM      2  C   UNL     1       2.205   7.239  20.103  0.00  0.00    +0.000 C 
ATOM      3  O   UNL     1       2.299   7.937  19.100  0.00  0.00    +0.000 OA
ATOM      4  N   UNL     1       2.711   5.952  20.200  0.00  0.00    +0.000 N 
ATOM      5  H   UNL     1       1.935   7.224  22.118  0.00  0.00    +0.000 HD
ATOM      6  H   UNL     1       2.156   5.332  20.773  0.00  0.00    +0.000 HD
ENDROOT
BRANCH   1  13
ATOM      7  N   UNL     1      -2.774  13.513  19.948  0.00  0.00    +0.000 N 
ATOM      8  C   UNL     1      -1.959  12.502  20.282  0.00  0.00    +0.000 A 
ATOM      9  N   UNL     1      -1.710  12.178  21.523  0.00  0.00    +0.000 NA
ATOM     10  C   UNL     1      -0.876  11.073  21.568  0.00  0.00    +0.000 A 
ATOM     11  C   UNL     1      -0.425  10.433  22.735  0.00  0.00    +0.000 A 
ATOM     12  C   UNL     1       0.392   9.302  22.631  0.00  0.00    +0.000 A 
ATOM     13  C   UNL     1       0.771   8.791  21.388  0.00  0.00    +0.000 A 
ATOM     14  C   UNL     1       0.379   9.452  20.215  0.00  0.00    +0.000 A 
ATOM     15  C   UNL     1      -0.464  10.578  20.331  0.00  0.00    +0.000 A 
ATOM     16  S   UNL     1      -1.166  11.551  19.092  0.00  0.00    +0.000 S 
ATOM     17  H   UNL     1      -2.990  14.172  20.686  0.00  0.00    +0.000 HD
ATOM     18  H   UNL     1      -2.692  13.923  19.022  0.00  0.00    +0.000 HD
ENDBRANCH   1  13
BRANCH   4  19
ATOM     19  C   UNL     1       3.424   5.359  19.134  0.00  0.00    +0.000 A 
ATOM     20  C   UNL     1       2.786   4.614  18.140  0.00  0.00    +0.000 A 
ATOM     21  C   UNL     1       3.530   4.024  17.115  0.00  0.00    +0.000 A 
ATOM     22  C   UNL     1       4.917   4.168  17.072  0.00  0.00    +0.000 A 
ATOM     23  C   UNL     1       5.558   4.872  18.091  0.00  0.00    +0.000 A 
ATOM     24  C   UNL     1       4.811   5.505  19.092  0.00  0.00    +0.000 A 
BRANCH  22  25
ATOM     25  O   UNL     1       5.535   3.518  16.049  0.00  0.00    +0.000 OA
BRANCH  25  26
ATOM     26  C   UNL     1       6.077   4.273  14.972  0.00  0.00    +0.000 C 
ATOM     27  F   UNL     1       5.465   5.454  14.749  0.00  0.00    +0.000 F 
ATOM     28  F   UNL     1       7.385   4.506  15.212  0.00  0.00    +0.000 F 
ATOM     29  F   UNL     1       5.982   3.539  13.839  0.00  0.00    +0.000 F 
ENDBRANCH  25  26
ENDBRANCH  22  25
ENDBRANCH   4  19
TORSDOF 4
ENDMDL
MODEL 2
REMARK VINA RESULT:      -8.2      0.294      1.240
REMARK  Name = 
REMARK  4 active torsions:
REMARK  status: ('A' for Active; 'I' for Inactive)
REMARK    1  A    between atoms: C_7  and  N_8
REMARK    2  A    between atoms: N_11  and  C_12
REMARK    3  A    between atoms: C_15  and  O_16
REMARK    4  A    between atoms: O_16  and  C_17
REMARK                            x       y       z     vdW  Elec       q    Type
REMARK                         _______ _______ _______ _____ _____    ______ ____
ROOT
ATOM      1  N   UNL     1       1.399   7.705  21.399  0.00  0.00    +0.000 N 
ATOM      2  C   UNL     1       2.042   7.294  20.242  0.00  0.00    +0.000 C 
ATOM      3  O   UNL     1       2.145   7.971  19.226  0.00  0.00    +0.000 OA
ATOM      4  N   UNL     1       2.535   6.004  20.366  0.00  0.00    +0.000 N 
ATOM      5  H   UNL     1       1.769   7.322  22.257  0.00  0.00    +0.000 HD
ATOM      6  H   UNL     1       1.973   5.401  20.950  0.00  0.00    +0.000 HD
ENDROOT
BRANCH   1  13
ATOM      7  N   UNL     1      -2.913  13.586  19.961  0.00  0.00    +0.000 N 
ATOM      8  C   UNL     1      -2.100  12.579  20.314  0.00  0.00    +0.000 A 
ATOM      9  N   UNL     1      -1.829  12.296  21.560  0.00  0.00    +0.000 NA
ATOM     10  C   UNL     1      -1.003  11.186  21.627  0.00  0.00    +0.000 A 
ATOM     11  C   UNL     1      -0.535  10.582  22.806  0.00  0.00    +0.000 A 
ATOM     12  C   UNL     1       0.272   9.441  22.725  0.00  0.00    +0.000 A 
ATOM     13  C   UNL     1       0.622   8.885  21.493  0.00  0.00    +0.000 A 
ATOM     14  C   UNL     1       0.212   9.509  20.306  0.00  0.00    +0.000 A 
ATOM     15  C   UNL     1      -0.619  10.646  20.400  0.00  0.00    +0.000 A 
ATOM     16  S   UNL     1      -1.337  11.582  19.142  0.00  0.00    +0.000 S 
ATOM     17  H   UNL     1      -3.110  14.271  20.681  0.00  0.00    +0.000 HD
ATOM     18  H   UNL     1      -2.846  13.964  19.020  0.00  0.00    +0.000 HD
ENDBRANCH   1  13
BRANCH   4  19
ATOM     19  C   UNL     1       3.244   5.383  19.313  0.00  0.00    +0.000 A 
ATOM     20  C   UNL     1       4.637   5.439  19.223  0.00  0.00    +0.000 A 
ATOM     21  C   UNL     1       5.299   4.832  18.153  0.00  0.00    +0.000 A 
ATOM     22  C   UNL     1       4.580   4.165  17.160  0.00  0.00    +0.000 A 
ATOM     23  C   UNL     1       3.188   4.150  17.225  0.00  0.00    +0.000 A 
ATOM     24  C   UNL     1       2.524   4.716  18.321  0.00  0.00    +0.000 A 
BRANCH  22  25
ATOM     25  O   UNL     1       5.332   3.646  16.152  0.00  0.00    +0.000 OA
BRANCH  25  26
ATOM     26  C   UNL     1       5.819   4.510  15.132  0.00  0.00    +0.000 C 
ATOM     27  F   UNL     1       5.664   4.042  13.876  0.00  0.00    +0.000 F 
ATOM     28  F   UNL     1       5.190   5.701  15.227  0.00  0.00    +0.000 F 
ATOM     29  F   UNL     1       7.141   4.715  15.335  0.00  0.00    +0.000 F 
ENDBRANCH  25  26
ENDBRANCH  22  25
ENDBRANCH   4  19
TORSDOF 4
ENDMDL
MODEL 3
REMARK VINA RESULT:      -8.1      7.187      8.222
REMARK  Name = 
REMARK  4 active torsions:
REMARK  status: ('A' for Active; 'I' for Inactive)
REMARK    1  A    between atoms: C_7  and  N_8
REMARK    2  A    between atoms: N_11  and  C_12
REMARK    3  A    between atoms: C_15  and  O_16
REMARK    4  A    between atoms: O_16  and  C_17
REMARK                            x       y       z     vdW  Elec       q    Type
REMARK                         _______ _______ _______ _____ _____    ______ ____
ROOT
ATOM      1  N   UNL     1       9.512   9.549  19.133  0.00  0.00    +0.000 N 
ATOM      2  C   UNL     1       8.514   8.812  18.515  0.00  0.00    +0.000 C 
ATOM      3  O   UNL     1       7.731   9.259  17.685  0.00  0.00    +0.000 OA
ATOM      4  N   UNL     1       8.491   7.503  18.973  0.00  0.00    +0.000 N 
ATOM      5  H   UNL     1      10.336   9.027  19.391  0.00  0.00    +0.000 HD
ATOM      6  H   UNL     1       8.759   7.399  19.941  0.00  0.00    +0.000 HD
ENDROOT
BRANCH   1  13
ATOM      7  N   UNL     1      10.954  16.458  16.802  0.00  0.00    +0.000 N 
ATOM      8  C   UNL     1      10.693  15.253  17.329  0.00  0.00    +0.000 A 
ATOM      9  N   UNL     1       9.994  15.098  18.422  0.00  0.00    +0.000 NA
ATOM     10  C   UNL     1       9.845  13.750  18.704  0.00  0.00    +0.000 A 
ATOM     11  C   UNL     1       9.128  13.213  19.786  0.00  0.00    +0.000 A 
ATOM     12  C   UNL     1       9.033  11.824  19.932  0.00  0.00    +0.000 A 
ATOM     13  C   UNL     1       9.638  10.955  19.021  0.00  0.00    +0.000 A 
ATOM     14  C   UNL     1      10.406  11.474  17.970  0.00  0.00    +0.000 A 
ATOM     15  C   UNL     1      10.476  12.875  17.819  0.00  0.00    +0.000 A 
ATOM     16  S   UNL     1      11.270  13.807  16.604  0.00  0.00    +0.000 S 
ATOM     17  H   UNL     1      10.805  17.252  17.414  0.00  0.00    +0.000 HD
ATOM     18  H   UNL     1      11.737  16.555  16.163  0.00  0.00    +0.000 HD
ENDBRANCH   1  13
BRANCH   4  19
ATOM     19  C   UNL     1       7.565   6.563  18.468  0.00  0.00    +0.000 A 
ATOM     20  C   UNL     1       7.211   6.523  17.117  0.00  0.00    +0.000 A 
ATOM     21  C   UNL     1       6.273   5.592  16.662  0.00  0.00    +0.000 A 
ATOM     22  C   UNL     1       5.676   4.695  17.548  0.00  0.00    +0.000 A 
ATOM     23  C   UNL     1       5.994   4.767  18.904  0.00  0.00    +0.000 A 
ATOM     24  C   UNL     1       6.969   5.666  19.355  0.00  0.00    +0.000 A 
BRANCH  22  25
ATOM     25  O   UNL     1       4.753   3.863  16.995  0.00  0.00    +0.000 OA
BRANCH  25  26
ATOM     26  C   UNL     1       3.398   3.948  17.418  0.00  0.00    +0.000 C 
ATOM     27  F   UNL     1       3.159   3.440  18.646  0.00  0.00    +0.000 F 
ATOM     28  F   UNL     1       3.013   5.242  17.407  0.00  0.00    +0.000 F 
ATOM     29  F   UNL     1       2.626   3.273  16.536  0.00  0.00    +0.000 F 
ENDBRANCH  25  26
ENDBRANCH  22  25
ENDBRANCH   4  19
TORSDOF 4
ENDMDL
MODEL 4
REMARK VINA RESULT:      -8.0      1.143      1.937
REMARK  Name = 
REMARK  4 active torsions:
REMARK  status: ('A' for Active; 'I' for Inactive)
REMARK    1  A    between atoms: C_7  and  N_8
REMARK    2  A    between atoms: N_11  and  C_12
REMARK    3  A    between atoms: C_15  and  O_16
REMARK    4  A    between atoms: O_16  and  C_17
REMARK                            x       y       z     vdW  Elec       q    Type
REMARK                         _______ _______ _______ _____ _____    ______ ____
ROOT
ATOM      1  N   UNL     1       1.831   7.765  20.654  0.00  0.00    +0.000 N 
ATOM      2  C   UNL     1       2.481   7.273  19.533  0.00  0.00    +0.000 C 
ATOM      3  O   UNL     1       2.508   7.833  18.443  0.00  0.00    +0.000 OA
ATOM      4  N   UNL     1       3.079   6.048  19.788  0.00  0.00    +0.000 N 
ATOM      5  H   UNL     1       2.248   7.513  21.538  0.00  0.00    +0.000 HD
ATOM      6  H   UNL     1       2.581   5.475  20.454  0.00  0.00    +0.000 HD
ENDROOT
BRANCH   1  13
ATOM      7  N   UNL     1      -2.638  13.405  22.515  0.00  0.00    +0.000 N 
ATOM      8  C   UNL     1      -1.880  12.388  22.076  0.00  0.00    +0.000 A 
ATOM      9  N   UNL     1      -1.516  12.269  20.827  0.00  0.00    +0.000 NA
ATOM     10  C   UNL     1      -0.705  11.157  20.673  0.00  0.00    +0.000 A 
ATOM     11  C   UNL     1      -0.107  10.738  19.472  0.00  0.00    +0.000 A 
ATOM     12  C   UNL     1       0.718   9.608  19.468  0.00  0.00    +0.000 A 
ATOM     13  C   UNL     1       0.963   8.883  20.636  0.00  0.00    +0.000 A 
ATOM     14  C   UNL     1       0.327   9.252  21.830  0.00  0.00    +0.000 A 
ATOM     15  C   UNL     1      -0.485  10.406  21.828  0.00  0.00    +0.000 A 
ATOM     16  S   UNL     1      -1.334  11.150  23.132  0.00  0.00    +0.000 S 
ATOM     17  H   UNL     1      -3.123  13.937  21.802  0.00  0.00    +0.000 HD
ATOM     18  H   UNL     1      -3.149  13.295  23.386  0.00  0.00    +0.000 HD
ENDBRANCH   1  13
BRANCH   4  19
ATOM     19  C   UNL     1       3.815   5.367  18.792  0.00  0.00    +0.000 A 
ATOM     20  C   UNL     1       5.182   5.581  18.604  0.00  0.00    +0.000 A 
ATOM     21  C   UNL     1       5.868   4.904  17.592  0.00  0.00    +0.000 A 
ATOM     22  C   UNL     1       5.198   4.010  16.756  0.00  0.00    +0.000 A 
ATOM     23  C   UNL     1       3.824   3.832  16.914  0.00  0.00    +0.000 A 
ATOM     24  C   UNL     1       3.143   4.472  17.958  0.00  0.00    +0.000 A 
BRANCH  22  25
ATOM     25  O   UNL     1       5.964   3.440  15.786  0.00  0.00    +0.000 OA
BRANCH  25  26
ATOM     26  C   UNL     1       6.279   4.189  14.619  0.00  0.00    +0.000 C 
ATOM     27  F   UNL     1       7.466   4.829  14.664  0.00  0.00    +0.000 F 
ATOM     28  F   UNL     1       6.278   3.362  13.552  0.00  0.00    +0.000 F 
ATOM     29  F   UNL     1       5.316   5.120  14.430  0.00  0.00    +0.000 F 
ENDBRANCH  25  26
ENDBRANCH  22  25
ENDBRANCH   4  19
TORSDOF 4
ENDMDL
MODEL 5
REMARK VINA RESULT:      -8.0      7.212      8.274
REMARK  Name = 
REMARK  4 active torsions:
REMARK  status: ('A' for Active; 'I' for Inactive)
REMARK    1  A    between atoms: C_7  and  N_8
REMARK    2  A    between atoms: N_11  and  C_12
REMARK    3  A    between atoms: C_15  and  O_16
REMARK    4  A    between atoms: O_16  and  C_17
REMARK                            x       y       z     vdW  Elec       q    Type
REMARK                         _______ _______ _______ _____ _____    ______ ____
ROOT
ATOM      1  N   UNL     1       9.518   9.557  19.045  0.00  0.00    +0.000 N 
ATOM      2  C   UNL     1       8.493   8.826  18.467  0.00  0.00    +0.000 C 
ATOM      3  O   UNL     1       7.681   9.279  17.667  0.00  0.00    +0.000 OA
ATOM      4  N   UNL     1       8.479   7.518  18.925  0.00  0.00    +0.000 N 
ATOM      5  H   UNL     1      10.349   9.029  19.271  0.00  0.00    +0.000 HD
ATOM      6  H   UNL     1       8.784   7.412  19.883  0.00  0.00    +0.000 HD
ENDROOT
BRANCH   1  13
ATOM      7  N   UNL     1      11.063  16.448  16.727  0.00  0.00    +0.000 N 
ATOM      8  C   UNL     1      10.778  15.247  17.251  0.00  0.00    +0.000 A 
ATOM      9  N   UNL     1      10.031  15.100  18.313  0.00  0.00    +0.000 NA
ATOM     10  C   UNL     1       9.870  13.754  18.598  0.00  0.00    +0.000 A 
ATOM     11  C   UNL     1       9.106  13.225  19.652  0.00  0.00    +0.000 A 
ATOM     12  C   UNL     1       9.005  11.838  19.804  0.00  0.00    +0.000 A 
ATOM     13  C   UNL     1       9.649  10.962  18.928  0.00  0.00    +0.000 A 
ATOM     14  C   UNL     1      10.464  11.473  17.908  0.00  0.00    +0.000 A 
ATOM     15  C   UNL     1      10.540  12.873  17.749  0.00  0.00    +0.000 A 
ATOM     16  S   UNL     1      11.387  13.796  16.563  0.00  0.00    +0.000 S 
ATOM     17  H   UNL     1      10.887  17.246  17.325  0.00  0.00    +0.000 HD
ATOM     18  H   UNL     1      11.874  16.540  16.122  0.00  0.00    +0.000 HD
ENDBRANCH   1  13
BRANCH   4  19
ATOM     19  C   UNL     1       7.528   6.583  18.457  0.00  0.00    +0.000 A 
ATOM     20  C   UNL     1       6.889   5.684  19.315  0.00  0.00    +0.000 A 
ATOM     21  C   UNL     1       5.971   4.760  18.808  0.00  0.00    +0.000 A 
ATOM     22  C   UNL     1       5.684   4.720  17.443  0.00  0.00    +0.000 A 
ATOM     23  C   UNL     1       6.358   5.585  16.582  0.00  0.00    +0.000 A 
ATOM     24  C   UNL     1       7.241   6.545  17.092  0.00  0.00    +0.000 A 
BRANCH  22  25
ATOM     25  O   UNL     1       4.804   3.753  17.066  0.00  0.00    +0.000 OA
BRANCH  25  26
ATOM     26  C   UNL     1       3.425   3.910  17.376  0.00  0.00    +0.000 C 
ATOM     27  F   UNL     1       2.583   3.273  16.535  0.00  0.00    +0.000 F 
ATOM     28  F   UNL     1       3.202   3.459  18.629  0.00  0.00    +0.000 F 
ATOM     29  F   UNL     1       3.121   5.227  17.343  0.00  0.00    +0.000 F 
ENDBRANCH  25  26
ENDBRANCH  22  25
ENDBRANCH   4  19
TORSDOF 4
ENDMDL
MODEL 6
REMARK VINA RESULT:      -7.9      7.243      8.338
REMARK  Name = 
REMARK  4 active torsions:
REMARK  status: ('A' for Active; 'I' for Inactive)
REMARK    1  A    between atoms: C_7  and  N_8
REMARK    2  A    between atoms: N_11  and  C_12
REMARK    3  A    between atoms: C_15  and  O_16
REMARK    4  A    between atoms: O_16  and  C_17
REMARK                            x       y       z     vdW  Elec       q    Type
REMARK                         _______ _______ _______ _____ _____    ______ ____
ROOT
ATOM      1  N   UNL     1       9.388   9.490  19.030  0.00  0.00    +0.000 N 
ATOM      2  C   UNL     1       8.449   8.801  18.279  0.00  0.00    +0.000 C 
ATOM      3  O   UNL     1       7.842   9.272  17.323  0.00  0.00    +0.000 OA
ATOM      4  N   UNL     1       8.257   7.515  18.759  0.00  0.00    +0.000 N 
ATOM      5  H   UNL     1      10.121   8.921  19.429  0.00  0.00    +0.000 HD
ATOM      6  H   UNL     1       8.360   7.428  19.760  0.00  0.00    +0.000 HD
ENDROOT
BRANCH   1  13
ATOM      7  N   UNL     1      11.488  16.219  16.673  0.00  0.00    +0.000 N 
ATOM      8  C   UNL     1      11.107  15.047  17.204  0.00  0.00    +0.000 A 
ATOM      9  N   UNL     1      10.354  14.968  18.269  0.00  0.00    +0.000 NA
ATOM     10  C   UNL     1      10.084  13.641  18.561  0.00  0.00    +0.000 A 
ATOM     11  C   UNL     1       9.281  13.182  19.619  0.00  0.00    +0.000 A 
ATOM     12  C   UNL     1       9.067  11.809  19.779  0.00  0.00    +0.000 A 
ATOM     13  C   UNL     1       9.634  10.879  18.906  0.00  0.00    +0.000 A 
ATOM     14  C   UNL     1      10.485  11.316  17.881  0.00  0.00    +0.000 A 
ATOM     15  C   UNL     1      10.676  12.704  17.715  0.00  0.00    +0.000 A 
ATOM     16  S   UNL     1      11.593  13.548  16.522  0.00  0.00    +0.000 S 
ATOM     17  H   UNL     1      11.381  17.032  17.268  0.00  0.00    +0.000 HD
ATOM     18  H   UNL     1      12.302  16.241  16.066  0.00  0.00    +0.000 HD
ENDBRANCH   1  13
BRANCH   4  19
ATOM     19  C   UNL     1       7.355   6.623  18.135  0.00  0.00    +0.000 A 
ATOM     20  C   UNL     1       6.243   7.074  17.421  0.00  0.00    +0.000 A 
ATOM     21  C   UNL     1       5.362   6.159  16.839  0.00  0.00    +0.000 A 
ATOM     22  C   UNL     1       5.578   4.786  16.966  0.00  0.00    +0.000 A 
ATOM     23  C   UNL     1       6.662   4.337  17.719  0.00  0.00    +0.000 A 
ATOM     24  C   UNL     1       7.574   5.251  18.263  0.00  0.00    +0.000 A 
BRANCH  22  25
ATOM     25  O   UNL     1       4.633   3.996  16.389  0.00  0.00    +0.000 OA
BRANCH  25  26
ATOM     26  C   UNL     1       3.621   3.415  17.202  0.00  0.00    +0.000 C 
ATOM     27  F   UNL     1       2.416   3.301  16.605  0.00  0.00    +0.000 F 
ATOM     28  F   UNL     1       4.023   2.187  17.594  0.00  0.00    +0.000 F 
ATOM     29  F   UNL     1       3.462   4.179  18.306  0.00  0.00    +0.000 F 
ENDBRANCH  25  26
ENDBRANCH  22  25
ENDBRANCH   4  19
TORSDOF 4
ENDMDL
MODEL 7
REMARK VINA RESULT:      -7.8      7.739     10.098
REMARK  Name = 
REMARK  4 active torsions:
REMARK  status: ('A' for Active; 'I' for Inactive)
REMARK    1  A    between atoms: C_7  and  N_8
REMARK    2  A    between atoms: N_11  and  C_12
REMARK    3  A    between atoms: C_15  and  O_16
REMARK    4  A    between atoms: O_16  and  C_17
REMARK                            x       y       z     vdW  Elec       q    Type
REMARK                         _______ _______ _______ _____ _____    ______ ____
ROOT
ATOM      1  N   UNL     1       8.343   7.438  18.858  0.00  0.00    +0.000 N 
ATOM      2  C   UNL     1       8.366   8.782  18.521  0.00  0.00    +0.000 C 
ATOM      3  O   UNL     1       7.544   9.331  17.796  0.00  0.00    +0.000 OA
ATOM      4  N   UNL     1       9.453   9.430  19.086  0.00  0.00    +0.000 N 
ATOM      5  H   UNL     1       8.723   7.215  19.766  0.00  0.00    +0.000 HD
ATOM      6  H   UNL     1      10.277   8.852  19.177  0.00  0.00    +0.000 HD
ENDROOT
BRANCH   1  13
ATOM      7  N   UNL     1       3.121   2.305  17.579  0.00  0.00    +0.000 N 
ATOM      8  C   UNL     1       4.114   3.197  17.714  0.00  0.00    +0.000 A 
ATOM      9  N   UNL     1       4.724   3.733  16.690  0.00  0.00    +0.000 NA
ATOM     10  C   UNL     1       5.669   4.648  17.125  0.00  0.00    +0.000 A 
ATOM     11  C   UNL     1       6.490   5.433  16.300  0.00  0.00    +0.000 A 
ATOM     12  C   UNL     1       7.383   6.343  16.877  0.00  0.00    +0.000 A 
ATOM     13  C   UNL     1       7.476   6.489  18.262  0.00  0.00    +0.000 A 
ATOM     14  C   UNL     1       6.706   5.672  19.102  0.00  0.00    +0.000 A 
ATOM     15  C   UNL     1       5.793   4.774  18.509  0.00  0.00    +0.000 A 
ATOM     16  S   UNL     1       4.671   3.700  19.258  0.00  0.00    +0.000 S 
ATOM     17  H   UNL     1       3.030   1.877  16.665  0.00  0.00    +0.000 HD
ATOM     18  H   UNL     1       2.901   1.694  18.359  0.00  0.00    +0.000 HD
ENDBRANCH   1  13
BRANCH   4  19
ATOM     19  C   UNL     1       9.669  10.813  18.891  0.00  0.00    +0.000 A 
ATOM     20  C   UNL     1      10.282  11.312  17.739  0.00  0.00    +0.000 A 
ATOM     21  C   UNL     1      10.498  12.685  17.596  0.00  0.00    +0.000 A 
ATOM     22  C   UNL     1      10.110  13.574  18.599  0.00  0.00    +0.000 A 
ATOM     23  C   UNL     1       9.542  13.070  19.769  0.00  0.00    +0.000 A 
ATOM     24  C   UNL     1       9.280  11.700  19.895  0.00  0.00    +0.000 A 
BRANCH  22  25
ATOM     25  O   UNL     1      10.406  14.880  18.361  0.00  0.00    +0.000 OA
BRANCH  25  26
ATOM     26  C   UNL     1       9.347  15.809  18.167  0.00  0.00    +0.000 C 
ATOM     27  F   UNL     1       8.902  16.400  19.296  0.00  0.00    +0.000 F 
ATOM     28  F   UNL     1       9.758  16.771  17.313  0.00  0.00    +0.000 F 
ATOM     29  F   UNL     1       8.303  15.162  17.601  0.00  0.00    +0.000 F 
ENDBRANCH  25  26
ENDBRANCH  22  25
ENDBRANCH   4  19
TORSDOF 4
ENDMDL
MODEL 8
REMARK VINA RESULT:      -7.8      1.177      1.565
REMARK  Name = 
REMARK  4 active torsions:
REMARK  status: ('A' for Active; 'I' for Inactive)
REMARK    1  A    between atoms: C_7  and  N_8
REMARK    2  A    between atoms: N_11  and  C_12
REMARK    3  A    between atoms: C_15  and  O_16
REMARK    4  A    between atoms: O_16  and  C_17
REMARK                            x       y       z     vdW  Elec       q    Type
REMARK                         _______ _______ _______ _____ _____    ______ ____
ROOT
ATOM      1  N   UNL     1       1.816   7.810  20.636  0.00  0.00    +0.000 N 
ATOM      2  C   UNL     1       2.468   7.351  19.502  0.00  0.00    +0.000 C 
ATOM      3  O   UNL     1       2.495   7.942  18.429  0.00  0.00    +0.000 OA
ATOM      4  N   UNL     1       3.068   6.121  19.723  0.00  0.00    +0.000 N 
ATOM      5  H   UNL     1       2.232   7.534  21.513  0.00  0.00    +0.000 HD
ATOM      6  H   UNL     1       2.569   5.528  20.372  0.00  0.00    +0.000 HD
ENDROOT
BRANCH   1  13
ATOM      7  N   UNL     1      -2.662  13.391  22.649  0.00  0.00    +0.000 N 
ATOM      8  C   UNL     1      -1.903  12.388  22.183  0.00  0.00    +0.000 A 
ATOM      9  N   UNL     1      -1.537  12.303  20.931  0.00  0.00    +0.000 NA
ATOM     10  C   UNL     1      -0.725  11.197  20.747  0.00  0.00    +0.000 A 
ATOM     11  C   UNL     1      -0.126  10.812  19.536  0.00  0.00    +0.000 A 
ATOM     12  C   UNL     1       0.701   9.684  19.501  0.00  0.00    +0.000 A 
ATOM     13  C   UNL     1       0.946   8.927  20.648  0.00  0.00    +0.000 A 
ATOM     14  C   UNL     1       0.309   9.262  21.851  0.00  0.00    +0.000 A 
ATOM     15  C   UNL     1      -0.504  10.415  21.881  0.00  0.00    +0.000 A 
ATOM     16  S   UNL     1      -1.355  11.121  23.204  0.00  0.00    +0.000 S 
ATOM     17  H   UNL     1      -3.148  13.941  21.951  0.00  0.00    +0.000 HD
ATOM     18  H   UNL     1      -3.173  13.257  23.516  0.00  0.00    +0.000 HD
ENDBRANCH   1  13
BRANCH   4  19
ATOM     19  C   UNL     1       3.805   5.468  18.710  0.00  0.00    +0.000 A 
ATOM     20  C   UNL     1       3.217   4.542  17.845  0.00  0.00    +0.000 A 
ATOM     21  C   UNL     1       3.987   3.901  16.871  0.00  0.00    +0.000 A 
ATOM     22  C   UNL     1       5.350   4.174  16.750  0.00  0.00    +0.000 A 
ATOM     23  C   UNL     1       5.946   5.063  17.644  0.00  0.00    +0.000 A 
ATOM     24  C   UNL     1       5.168   5.743  18.590  0.00  0.00    +0.000 A 
BRANCH  22  25
ATOM     25  O   UNL     1       6.000   3.462  15.790  0.00  0.00    +0.000 OA
BRANCH  25  26
ATOM     26  C   UNL     1       6.261   4.069  14.531  0.00  0.00    +0.000 C 
ATOM     27  F   UNL     1       5.337   4.970  14.138  0.00  0.00    +0.000 F 
ATOM     28  F   UNL     1       7.464   4.681  14.579  0.00  0.00    +0.000 F 
ATOM     29  F   UNL     1       6.320   3.101  13.589  0.00  0.00    +0.000 F 
ENDBRANCH  25  26
ENDBRANCH  22  25
ENDBRANCH   4  19
TORSDOF 4
ENDMDL
MODEL 9
REMARK VINA RESULT:      -7.7      6.805      7.904
REMARK  Name = 
REMARK  4 active torsions:
REMARK  status: ('A' for Active; 'I' for Inactive)
REMARK    1  A    between atoms: C_7  and  N_8
REMARK    2  A    between atoms: N_11  and  C_12
REMARK    3  A    between atoms: C_15  and  O_16
REMARK    4  A    between atoms: O_16  and  C_17
REMARK                            x       y       z     vdW  Elec       q    Type
REMARK                         _______ _______ _______ _____ _____    ______ ____
ROOT
ATOM      1  N   UNL     1       9.420   9.282  19.117  0.00  0.00    +0.000 N 
ATOM      2  C   UNL     1       8.384   8.577  18.525  0.00  0.00    +0.000 C 
ATOM      3  O   UNL     1       7.534   9.073  17.794  0.00  0.00    +0.000 OA
ATOM      4  N   UNL     1       8.409   7.238  18.885  0.00  0.00    +0.000 N 
ATOM      5  H   UNL     1      10.267   8.754  19.270  0.00  0.00    +0.000 HD
ATOM      6  H   UNL     1       8.753   7.068  19.819  0.00  0.00    +0.000 HD
ENDROOT
BRANCH   1  13
ATOM      7  N   UNL     1       9.950  16.455  20.990  0.00  0.00    +0.000 N 
ATOM      8  C   UNL     1       9.815  15.195  20.550  0.00  0.00    +0.000 A 
ATOM      9  N   UNL     1       9.960  14.867  19.294  0.00  0.00    +0.000 NA
ATOM     10  C   UNL     1       9.811  13.499  19.139  0.00  0.00    +0.000 A 
ATOM     11  C   UNL     1       9.931  12.793  17.931  0.00  0.00    +0.000 A 
ATOM     12  C   UNL     1       9.786  11.401  17.926  0.00  0.00    +0.000 A 
ATOM     13  C   UNL     1       9.524  10.694  19.101  0.00  0.00    +0.000 A 
ATOM     14  C   UNL     1       9.343  11.389  20.305  0.00  0.00    +0.000 A 
ATOM     15  C   UNL     1       9.514  12.790  20.303  0.00  0.00    +0.000 A 
ATOM     16  S   UNL     1       9.429  13.905  21.615  0.00  0.00    +0.000 S 
ATOM     17  H   UNL     1       9.920  17.178  20.281  0.00  0.00    +0.000 HD
ATOM     18  H   UNL     1       9.529  16.713  21.878  0.00  0.00    +0.000 HD
ENDBRANCH   1  13
BRANCH   4  19
ATOM     19  C   UNL     1       7.454   6.324  18.386  0.00  0.00    +0.000 A 
ATOM     20  C   UNL     1       7.235   6.156  17.016  0.00  0.00    +0.000 A 
ATOM     21  C   UNL     1       6.264   5.258  16.564  0.00  0.00    +0.000 A 
ATOM     22  C   UNL     1       5.501   4.521  17.470  0.00  0.00    +0.000 A 
ATOM     23  C   UNL     1       5.688   4.724  18.837  0.00  0.00    +0.000 A 
ATOM     24  C   UNL     1       6.693   5.587  19.294  0.00  0.00    +0.000 A 
BRANCH  22  25
ATOM     25  O   UNL     1       4.565   3.708  16.911  0.00  0.00    +0.000 OA
BRANCH  25  26
ATOM     26  C   UNL     1       3.227   3.755  17.392  0.00  0.00    +0.000 C 
ATOM     27  F   UNL     1       3.050   3.217  18.617  0.00  0.00    +0.000 F 
ATOM     28  F   UNL     1       2.816   5.040  17.425  0.00  0.00    +0.000 F 
ATOM     29  F   UNL     1       2.434   3.081  16.528  0.00  0.00    +0.000 F 
ENDBRANCH  25  26
ENDBRANCH  22  25
ENDBRANCH   4  19
TORSDOF 4
ENDMDL
