MODEL 1
REMARK VINA RESULT:      -7.9      0.000      0.000
REMARK  Name = 
REMARK  10 active torsions:
REMARK  status: ('A' for Active; 'I' for Inactive)
REMARK    1  A    between atoms: C_1  and  O_2
REMARK    2  A    between atoms: O_2  and  C_3
REMARK    3  A    between atoms: C_7  and  C_8
REMARK    4  A    between atoms: C_12  and  C_13
REMARK    5  A    between atoms: C_21  and  C_22
REMARK    6  A    between atoms: C_24  and  N_25
REMARK    7  A    between atoms: N_25  and  C_26
REMARK    8  A    between atoms: C_26  and  C_27
REMARK    9  A    between atoms: C_26  and  C_28
REMARK   10  A    between atoms: C_26  and  C_29
REMARK                            x       y       z     vdW  Elec       q    Type
REMARK                         _______ _______ _______ _____ _____    ______ ____
ROOT
ATOM      1  C   UNL     1       3.847   6.647  17.610  0.00  0.00    +0.000 A 
ATOM      2  N   UNL     1       3.419   7.829  17.036  0.00  0.00    +0.000 NA
ATOM      3  C   UNL     1       2.715   8.383  17.979  0.00  0.00    +0.000 A 
ATOM      4  S   UNL     1       1.746   9.823  18.010  0.00  0.00    +0.000 S 
ATOM      5  C   UNL     1       1.166   9.364  19.604  0.00  0.00    +0.000 A 
ATOM      6  C   UNL     1       1.634   8.159  20.016  0.00  0.00    +0.000 A 
ATOM      7  C   UNL     1       1.127   7.394  21.190  0.00  0.00    +0.000 C 
ATOM      8  N   UNL     1       2.578   7.635  19.118  0.00  0.00    +0.000 N 
ATOM      9  C   UNL     1       3.414   6.522  18.948  0.00  0.00    +0.000 A 
ENDROOT
BRANCH   5  10
ATOM     10  C   UNL     1       0.100  10.140  20.319  0.00  0.00    +0.000 C 
ATOM     11  O   UNL     1       0.291  10.439  21.500  0.00  0.00    +0.000 OA
ATOM     12  N   UNL     1      -0.997  10.648  19.631  0.00  0.00    +0.000 N 
ATOM     13  C   UNL     1      -1.661  10.034  18.473  0.00  0.00    +0.000 C 
ATOM     14  C   UNL     1      -2.428  11.057  17.618  0.00  0.00    +0.000 C 
ATOM     15  O   UNL     1      -3.260  11.922  18.400  0.00  0.00    +0.000 OA
ATOM     16  C   UNL     1      -2.483  12.601  19.394  0.00  0.00    +0.000 C 
ATOM     17  C   UNL     1      -1.863  11.589  20.358  0.00  0.00    +0.000 C 
ENDBRANCH   5  10
BRANCH   1  22
ATOM     18  C   UNL     1       6.516   5.110  15.395  0.00  0.00    +0.000 A 
ATOM     19  C   UNL     1       6.085   3.783  15.358  0.00  0.00    +0.000 A 
ATOM     20  C   UNL     1       4.923   3.396  16.026  0.00  0.00    +0.000 A 
ATOM     21  C   UNL     1       4.204   4.333  16.758  0.00  0.00    +0.000 A 
ATOM     22  C   UNL     1       4.624   5.675  16.832  0.00  0.00    +0.000 A 
ATOM     23  C   UNL     1       5.776   6.049  16.120  0.00  0.00    +0.000 A 
BRANCH  18  25
ATOM     24  C   UNL     1       7.625   5.074  13.293  0.00  0.00    +0.000 C 
ATOM     25  O   UNL     1       7.656   5.370  14.683  0.00  0.00    +0.000 OA
ENDBRANCH  18  25
ENDBRANCH   1  22
BRANCH   9  26
ATOM     26  N   UNL     1       3.568   5.469  19.815  0.00  0.00    +0.000 N 
ATOM     27  H   UNL     1       3.985   5.730  20.713  0.00  0.00    +0.000 HD
BRANCH  26  28
ATOM     28  C   UNL     1       2.738   4.255  19.973  0.00  0.00    +0.000 C 
ATOM     29  C   UNL     1       3.696   3.057  19.813  0.00  0.00    +0.000 C 
ATOM     30  C   UNL     1       2.201   4.175  21.427  0.00  0.00    +0.000 C 
ATOM     31  C   UNL     1       1.501   4.181  19.071  0.00  0.00    +0.000 C 
ENDBRANCH  26  28
ENDBRANCH   9  26
TORSDOF 5
ENDMDL
MODEL 2
REMARK VINA RESULT:      -7.6      0.878      1.024
REMARK  Name = 
REMARK  10 active torsions:
REMARK  status: ('A' for Active; 'I' for Inactive)
REMARK    1  A    between atoms: C_1  and  O_2
REMARK    2  A    between atoms: O_2  and  C_3
REMARK    3  A    between atoms: C_7  and  C_8
REMARK    4  A    between atoms: C_12  and  C_13
REMARK    5  A    between atoms: C_21  and  C_22
REMARK    6  A    between atoms: C_24  and  N_25
REMARK    7  A    between atoms: N_25  and  C_26
REMARK    8  A    between atoms: C_26  and  C_27
REMARK    9  A    between atoms: C_26  and  C_28
REMARK   10  A    between atoms: C_26  and  C_29
REMARK                            x       y       z     vdW  Elec       q    Type
REMARK                         _______ _______ _______ _____ _____    ______ ____
ROOT
ATOM      1  C   UNL     1       4.145   6.730  17.683  0.00  0.00    +0.000 A 
ATOM      2  N   UNL     1       3.733   7.913  17.100  0.00  0.00    +0.000 NA
ATOM      3  C   UNL     1       2.909   8.408  17.977  0.00  0.00    +0.000 A 
ATOM      4  S   UNL     1       1.883   9.808  17.943  0.00  0.00    +0.000 S 
ATOM      5  C   UNL     1       1.154   9.273  19.450  0.00  0.00    +0.000 A 
ATOM      6  C   UNL     1       1.625   8.075  19.876  0.00  0.00    +0.000 A 
ATOM      7  C   UNL     1       1.027   7.252  20.965  0.00  0.00    +0.000 C 
ATOM      8  N   UNL     1       2.682   7.617  19.071  0.00  0.00    +0.000 N 
ATOM      9  C   UNL     1       3.576   6.544  18.962  0.00  0.00    +0.000 A 
ENDROOT
BRANCH   5  10
ATOM     10  C   UNL     1      -0.014   9.984  20.067  0.00  0.00    +0.000 C 
ATOM     11  O   UNL     1       0.032  10.245  21.272  0.00  0.00    +0.000 OA
ATOM     12  N   UNL     1      -1.048  10.478  19.278  0.00  0.00    +0.000 N 
ATOM     13  C   UNL     1      -1.555   9.885  18.033  0.00  0.00    +0.000 C 
ATOM     14  C   UNL     1      -2.262  10.911  17.133  0.00  0.00    +0.000 C 
ATOM     15  O   UNL     1      -3.210  11.716  17.845  0.00  0.00    +0.000 OA
ATOM     16  C   UNL     1      -2.574  12.384  18.942  0.00  0.00    +0.000 C 
ATOM     17  C   UNL     1      -2.025  11.360  19.935  0.00  0.00    +0.000 C 
ENDBRANCH   5  10
BRANCH   1  22
ATOM     18  C   UNL     1       5.585   4.440  15.023  0.00  0.00    +0.000 A 
ATOM     19  C   UNL     1       6.787   4.070  15.627  0.00  0.00    +0.000 A 
ATOM     20  C   UNL     1       7.116   4.539  16.899  0.00  0.00    +0.000 A 
ATOM     21  C   UNL     1       6.252   5.406  17.558  0.00  0.00    +0.000 A 
ATOM     22  C   UNL     1       5.042   5.815  16.966  0.00  0.00    +0.000 A 
ATOM     23  C   UNL     1       4.715   5.299  15.701  0.00  0.00    +0.000 A 
BRANCH  18  25
ATOM     24  C   UNL     1       6.493   3.787  12.926  0.00  0.00    +0.000 C 
ATOM     25  O   UNL     1       5.366   3.897  13.785  0.00  0.00    +0.000 OA
ENDBRANCH  18  25
ENDBRANCH   1  22
BRANCH   9  26
ATOM     26  N   UNL     1       3.680   5.469  19.809  0.00  0.00    +0.000 N 
ATOM     27  H   UNL     1       3.865   5.726  20.782  0.00  0.00    +0.000 HD
BRANCH  26  28
ATOM     28  C   UNL     1       2.997   4.158  19.749  0.00  0.00    +0.000 C 
ATOM     29  C   UNL     1       4.108   3.104  19.568  0.00  0.00    +0.000 C 
ATOM     30  C   UNL     1       2.341   3.849  21.122  0.00  0.00    +0.000 C 
ATOM     31  C   UNL     1       1.868   4.050  18.719  0.00  0.00    +0.000 C 
ENDBRANCH  26  28
ENDBRANCH   9  26
TORSDOF 5
ENDMDL
MODEL 3
REMARK VINA RESULT:      -7.4      1.335      1.779
REMARK  Name = 
REMARK  10 active torsions:
REMARK  status: ('A' for Active; 'I' for Inactive)
REMARK    1  A    between atoms: C_1  and  O_2
REMARK    2  A    between atoms: O_2  and  C_3
REMARK    3  A    between atoms: C_7  and  C_8
REMARK    4  A    between atoms: C_12  and  C_13
REMARK    5  A    between atoms: C_21  and  C_22
REMARK    6  A    between atoms: C_24  and  N_25
REMARK    7  A    between atoms: N_25  and  C_26
REMARK    8  A    between atoms: C_26  and  C_27
REMARK    9  A    between atoms: C_26  and  C_28
REMARK   10  A    between atoms: C_26  and  C_29
REMARK                            x       y       z     vdW  Elec       q    Type
REMARK                         _______ _______ _______ _____ _____    ______ ____
ROOT
ATOM      1  C   UNL     1       3.800   6.703  17.625  0.00  0.00    +0.000 A 
ATOM      2  N   UNL     1       3.347   7.861  17.023  0.00  0.00    +0.000 NA
ATOM      3  C   UNL     1       2.630   8.422  17.952  0.00  0.00    +0.000 A 
ATOM      4  S   UNL     1       1.629   9.841  17.947  0.00  0.00    +0.000 S 
ATOM      5  C   UNL     1       1.059   9.408  19.552  0.00  0.00    +0.000 A 
ATOM      6  C   UNL     1       1.553   8.225  19.994  0.00  0.00    +0.000 A 
ATOM      7  C   UNL     1       1.063   7.477  21.186  0.00  0.00    +0.000 C 
ATOM      8  N   UNL     1       2.510   7.699  19.109  0.00  0.00    +0.000 N 
ATOM      9  C   UNL     1       3.370   6.602  18.967  0.00  0.00    +0.000 A 
ENDROOT
BRANCH   5  10
ATOM     10  C   UNL     1      -0.024  10.178  20.248  0.00  0.00    +0.000 C 
ATOM     11  O   UNL     1      -1.005   9.557  20.664  0.00  0.00    +0.000 OA
ATOM     12  N   UNL     1       0.143  11.524  20.559  0.00  0.00    +0.000 N 
ATOM     13  C   UNL     1       0.895  12.513  19.776  0.00  0.00    +0.000 C 
ATOM     14  C   UNL     1       1.364  13.707  20.623  0.00  0.00    +0.000 C 
ATOM     15  O   UNL     1       0.322  14.253  21.440  0.00  0.00    +0.000 OA
ATOM     16  C   UNL     1      -0.232  13.239  22.289  0.00  0.00    +0.000 C 
ATOM     17  C   UNL     1      -0.862  12.133  21.443  0.00  0.00    +0.000 C 
ENDBRANCH   5  10
BRANCH   1  22
ATOM     18  C   UNL     1       6.524   5.165  15.479  0.00  0.00    +0.000 A 
ATOM     19  C   UNL     1       6.101   3.835  15.444  0.00  0.00    +0.000 A 
ATOM     20  C   UNL     1       4.928   3.446  16.090  0.00  0.00    +0.000 A 
ATOM     21  C   UNL     1       4.189   4.385  16.799  0.00  0.00    +0.000 A 
ATOM     22  C   UNL     1       4.599   5.730  16.872  0.00  0.00    +0.000 A 
ATOM     23  C   UNL     1       5.763   6.105  16.181  0.00  0.00    +0.000 A 
BRANCH  18  25
ATOM     24  C   UNL     1       7.689   5.085  13.409  0.00  0.00    +0.000 C 
ATOM     25  O   UNL     1       7.677   5.426  14.789  0.00  0.00    +0.000 OA
ENDBRANCH  18  25
ENDBRANCH   1  22
BRANCH   9  26
ATOM     26  N   UNL     1       3.547   5.574  19.859  0.00  0.00    +0.000 N 
ATOM     27  H   UNL     1       3.919   5.872  20.765  0.00  0.00    +0.000 HD
BRANCH  26  28
ATOM     28  C   UNL     1       2.774   4.322  20.013  0.00  0.00    +0.000 C 
ATOM     29  C   UNL     1       3.781   3.170  19.816  0.00  0.00    +0.000 C 
ATOM     30  C   UNL     1       2.271   4.197  21.476  0.00  0.00    +0.000 C 
ATOM     31  C   UNL     1       1.523   4.207  19.135  0.00  0.00    +0.000 C 
ENDBRANCH  26  28
ENDBRANCH   9  26
TORSDOF 5
ENDMDL
MODEL 4
REMARK VINA RESULT:      -7.3      2.764      9.176
REMARK  Name = 
REMARK  10 active torsions:
REMARK  status: ('A' for Active; 'I' for Inactive)
REMARK    1  A    between atoms: C_1  and  O_2
REMARK    2  A    between atoms: O_2  and  C_3
REMARK    3  A    between atoms: C_7  and  C_8
REMARK    4  A    between atoms: C_12  and  C_13
REMARK    5  A    between atoms: C_21  and  C_22
REMARK    6  A    between atoms: C_24  and  N_25
REMARK    7  A    between atoms: N_25  and  C_26
REMARK    8  A    between atoms: C_26  and  C_27
REMARK    9  A    between atoms: C_26  and  C_28
REMARK   10  A    between atoms: C_26  and  C_29
REMARK                            x       y       z     vdW  Elec       q    Type
REMARK                         _______ _______ _______ _____ _____    ______ ____
ROOT
ATOM      1  C   UNL     1       0.049   9.953  20.950  0.00  0.00    +0.000 A 
ATOM      2  N   UNL     1       0.234   8.734  21.573  0.00  0.00    +0.000 NA
ATOM      3  C   UNL     1       1.125   8.148  20.828  0.00  0.00    +0.000 A 
ATOM      4  S   UNL     1       1.801   6.549  20.867  0.00  0.00    +0.000 S 
ATOM      5  C   UNL     1       2.598   6.881  19.336  0.00  0.00    +0.000 A 
ATOM      6  C   UNL     1       2.286   8.097  18.823  0.00  0.00    +0.000 A 
ATOM      7  C   UNL     1       2.594   8.553  17.438  0.00  0.00    +0.000 C 
ATOM      8  N   UNL     1       1.502   8.850  19.714  0.00  0.00    +0.000 N 
ATOM      9  C   UNL     1       0.889  10.105  19.825  0.00  0.00    +0.000 A 
ENDROOT
BRANCH   5  10
ATOM     10  C   UNL     1       3.368   5.829  18.594  0.00  0.00    +0.000 C 
ATOM     11  O   UNL     1       4.535   6.073  18.280  0.00  0.00    +0.000 OA
ATOM     12  N   UNL     1       2.839   4.556  18.405  0.00  0.00    +0.000 N 
ATOM     13  C   UNL     1       1.421   4.219  18.216  0.00  0.00    +0.000 C 
ATOM     14  C   UNL     1       1.100   2.765  18.598  0.00  0.00    +0.000 C 
ATOM     15  O   UNL     1       2.022   1.826  18.032  0.00  0.00    +0.000 OA
ATOM     16  C   UNL     1       3.365   2.148  18.416  0.00  0.00    +0.000 C 
ATOM     17  C   UNL     1       3.749   3.526  17.880  0.00  0.00    +0.000 C 
ENDBRANCH   5  10
BRANCH   1  22
ATOM     18  C   UNL     1      -2.764  12.496  21.060  0.00  0.00    +0.000 A 
ATOM     19  C   UNL     1      -2.863  12.709  22.436  0.00  0.00    +0.000 A 
ATOM     20  C   UNL     1      -2.005  12.053  23.319  0.00  0.00    +0.000 A 
ATOM     21  C   UNL     1      -1.064  11.156  22.826  0.00  0.00    +0.000 A 
ATOM     22  C   UNL     1      -0.954  10.903  21.446  0.00  0.00    +0.000 A 
ATOM     23  C   UNL     1      -1.803  11.605  20.573  0.00  0.00    +0.000 A 
BRANCH  18  25
ATOM     24  C   UNL     1      -4.989  13.274  20.755  0.00  0.00    +0.000 C 
ATOM     25  O   UNL     1      -3.645  13.214  20.297  0.00  0.00    +0.000 OA
ENDBRANCH  18  25
ENDBRANCH   1  22
BRANCH   9  26
ATOM     26  N   UNL     1       0.942  11.131  18.914  0.00  0.00    +0.000 N 
ATOM     27  H   UNL     1       0.152  11.148  18.264  0.00  0.00    +0.000 HD
BRANCH  26  28
ATOM     28  C   UNL     1       1.509  12.490  19.064  0.00  0.00    +0.000 C 
ATOM     29  C   UNL     1       2.666  12.586  18.049  0.00  0.00    +0.000 C 
ATOM     30  C   UNL     1       0.462  13.543  18.613  0.00  0.00    +0.000 C 
ATOM     31  C   UNL     1       1.904  12.885  20.491  0.00  0.00    +0.000 C 
ENDBRANCH  26  28
ENDBRANCH   9  26
TORSDOF 5
ENDMDL
MODEL 5
REMARK VINA RESULT:      -7.2      1.518      2.204
REMARK  Name = 
REMARK  10 active torsions:
REMARK  status: ('A' for Active; 'I' for Inactive)
REMARK    1  A    between atoms: C_1  and  O_2
REMARK    2  A    between atoms: O_2  and  C_3
REMARK    3  A    between atoms: C_7  and  C_8
REMARK    4  A    between atoms: C_12  and  C_13
REMARK    5  A    between atoms: C_21  and  C_22
REMARK    6  A    between atoms: C_24  and  N_25
REMARK    7  A    between atoms: N_25  and  C_26
REMARK    8  A    between atoms: C_26  and  C_27
REMARK    9  A    between atoms: C_26  and  C_28
REMARK   10  A    between atoms: C_26  and  C_29
REMARK                            x       y       z     vdW  Elec       q    Type
REMARK                         _______ _______ _______ _____ _____    ______ ____
ROOT
ATOM      1  C   UNL     1       4.073   6.815  17.731  0.00  0.00    +0.000 A 
ATOM      2  N   UNL     1       3.651   7.966  17.093  0.00  0.00    +0.000 NA
ATOM      3  C   UNL     1       2.818   8.492  17.943  0.00  0.00    +0.000 A 
ATOM      4  S   UNL     1       1.778   9.878  17.842  0.00  0.00    +0.000 S 
ATOM      5  C   UNL     1       1.049   9.405  19.370  0.00  0.00    +0.000 A 
ATOM      6  C   UNL     1       1.530   8.232  19.851  0.00  0.00    +0.000 A 
ATOM      7  C   UNL     1       0.936   7.454  20.975  0.00  0.00    +0.000 C 
ATOM      8  N   UNL     1       2.595   7.749  19.072  0.00  0.00    +0.000 N 
ATOM      9  C   UNL     1       3.501   6.682  19.015  0.00  0.00    +0.000 A 
ENDROOT
BRANCH   5  10
ATOM     10  C   UNL     1      -0.128  10.131  19.949  0.00  0.00    +0.000 C 
ATOM     11  O   UNL     1      -1.203   9.530  20.029  0.00  0.00    +0.000 OA
ATOM     12  N   UNL     1       0.020  11.388  20.528  0.00  0.00    +0.000 N 
ATOM     13  C   UNL     1       0.967  12.432  20.114  0.00  0.00    +0.000 C 
ATOM     14  C   UNL     1       1.286  13.425  21.244  0.00  0.00    +0.000 C 
ATOM     15  O   UNL     1       0.112  13.907  21.908  0.00  0.00    +0.000 OA
ATOM     16  C   UNL     1      -0.658  12.812  22.422  0.00  0.00    +0.000 C 
ATOM     17  C   UNL     1      -1.130  11.918  21.276  0.00  0.00    +0.000 C 
ENDBRANCH   5  10
BRANCH   1  22
ATOM     18  C   UNL     1       5.555   4.436  15.175  0.00  0.00    +0.000 A 
ATOM     19  C   UNL     1       6.749   4.090  15.809  0.00  0.00    +0.000 A 
ATOM     20  C   UNL     1       7.059   4.605  17.067  0.00  0.00    +0.000 A 
ATOM     21  C   UNL     1       6.184   5.493  17.683  0.00  0.00    +0.000 A 
ATOM     22  C   UNL     1       4.982   5.877  17.060  0.00  0.00    +0.000 A 
ATOM     23  C   UNL     1       4.673   5.316  15.810  0.00  0.00    +0.000 A 
BRANCH  18  25
ATOM     24  C   UNL     1       6.469   3.809  13.072  0.00  0.00    +0.000 C 
ATOM     25  O   UNL     1       5.355   3.848  13.954  0.00  0.00    +0.000 OA
ENDBRANCH  18  25
ENDBRANCH   1  22
BRANCH   9  26
ATOM     26  N   UNL     1       3.612   5.648  19.911  0.00  0.00    +0.000 N 
ATOM     27  H   UNL     1       3.726   5.952  20.881  0.00  0.00    +0.000 HD
BRANCH  26  28
ATOM     28  C   UNL     1       3.004   4.299  19.868  0.00  0.00    +0.000 C 
ATOM     29  C   UNL     1       2.312   4.098  21.231  0.00  0.00    +0.000 C 
ATOM     30  C   UNL     1       1.868   4.274  18.811  0.00  0.00    +0.000 C 
ATOM     31  C   UNL     1       3.954   3.160  19.482  0.00  0.00    +0.000 C 
ENDBRANCH  26  28
ENDBRANCH   9  26
TORSDOF 5
ENDMDL
MODEL 6
REMARK VINA RESULT:      -7.2      3.416     10.223
REMARK  Name = 
REMARK  10 active torsions:
REMARK  status: ('A' for Active; 'I' for Inactive)
REMARK    1  A    between atoms: C_1  and  O_2
REMARK    2  A    between atoms: O_2  and  C_3
REMARK    3  A    between atoms: C_7  and  C_8
REMARK    4  A    between atoms: C_12  and  C_13
REMARK    5  A    between atoms: C_21  and  C_22
REMARK    6  A    between atoms: C_24  and  N_25
REMARK    7  A    between atoms: N_25  and  C_26
REMARK    8  A    between atoms: C_26  and  C_27
REMARK    9  A    between atoms: C_26  and  C_28
REMARK   10  A    between atoms: C_26  and  C_29
REMARK                            x       y       z     vdW  Elec       q    Type
REMARK                         _______ _______ _______ _____ _____    ______ ____
ROOT
ATOM      1  C   UNL     1      -0.813  11.498  22.351  0.00  0.00    +0.000 A 
ATOM      2  N   UNL     1      -0.148  10.439  22.938  0.00  0.00    +0.000 NA
ATOM      3  C   UNL     1       0.507   9.908  21.947  0.00  0.00    +0.000 A 
ATOM      4  S   UNL     1       1.480   8.475  21.835  0.00  0.00    +0.000 S 
ATOM      5  C   UNL     1       1.557   8.700  20.093  0.00  0.00    +0.000 A 
ATOM      6  C   UNL     1       0.819   9.750  19.657  0.00  0.00    +0.000 A 
ATOM      7  C   UNL     1       0.482  10.035  18.234  0.00  0.00    +0.000 C 
ATOM      8  N   UNL     1       0.279  10.485  20.726  0.00  0.00    +0.000 N 
ATOM      9  C   UNL     1      -0.507  11.618  20.978  0.00  0.00    +0.000 A 
ENDROOT
BRANCH   5  10
ATOM     10  C   UNL     1       2.205   7.695  19.188  0.00  0.00    +0.000 C 
ATOM     11  O   UNL     1       2.708   8.097  18.135  0.00  0.00    +0.000 OA
ATOM     12  N   UNL     1       2.378   6.375  19.592  0.00  0.00    +0.000 N 
ATOM     13  C   UNL     1       1.480   5.605  20.463  0.00  0.00    +0.000 C 
ATOM     14  C   UNL     1       2.192   4.437  21.165  0.00  0.00    +0.000 C 
ATOM     15  O   UNL     1       2.981   3.647  20.267  0.00  0.00    +0.000 OA
ATOM     16  C   UNL     1       3.941   4.469  19.589  0.00  0.00    +0.000 C 
ATOM     17  C   UNL     1       3.227   5.523  18.744  0.00  0.00    +0.000 C 
ENDBRANCH   5  10
BRANCH   1  22
ATOM     18  C   UNL     1      -3.882  12.654  24.257  0.00  0.00    +0.000 A 
ATOM     19  C   UNL     1      -3.484  13.939  24.628  0.00  0.00    +0.000 A 
ATOM     20  C   UNL     1      -2.240  14.436  24.240  0.00  0.00    +0.000 A 
ATOM     21  C   UNL     1      -1.377  13.634  23.502  0.00  0.00    +0.000 A 
ATOM     22  C   UNL     1      -1.741  12.325  23.131  0.00  0.00    +0.000 A 
ATOM     23  C   UNL     1      -3.014  11.860  23.501  0.00  0.00    +0.000 A 
BRANCH  18  25
ATOM     24  C   UNL     1      -6.234  12.853  23.981  0.00  0.00    +0.000 C 
ATOM     25  O   UNL     1      -5.132  12.289  24.679  0.00  0.00    +0.000 OA
ENDBRANCH  18  25
ENDBRANCH   1  22
BRANCH   9  26
ATOM     26  N   UNL     1      -1.022  12.485  20.047  0.00  0.00    +0.000 N 
ATOM     27  H   UNL     1      -2.044  12.484  20.001  0.00  0.00    +0.000 HD
BRANCH  26  28
ATOM     28  C   UNL     1      -0.494  13.788  19.585  0.00  0.00    +0.000 C 
ATOM     29  C   UNL     1      -1.469  14.858  20.117  0.00  0.00    +0.000 C 
ATOM     30  C   UNL     1       0.865  14.074  20.278  0.00  0.00    +0.000 C 
ATOM     31  C   UNL     1      -0.221  13.893  18.081  0.00  0.00    +0.000 C 
ENDBRANCH  26  28
ENDBRANCH   9  26
TORSDOF 5
ENDMDL
MODEL 7
REMARK VINA RESULT:      -7.1      3.119      7.994
REMARK  Name = 
REMARK  10 active torsions:
REMARK  status: ('A' for Active; 'I' for Inactive)
REMARK    1  A    between atoms: C_1  and  O_2
REMARK    2  A    between atoms: O_2  and  C_3
REMARK    3  A    between atoms: C_7  and  C_8
REMARK    4  A    between atoms: C_12  and  C_13
REMARK    5  A    between atoms: C_21  and  C_22
REMARK    6  A    between atoms: C_24  and  N_25
REMARK    7  A    between atoms: N_25  and  C_26
REMARK    8  A    between atoms: C_26  and  C_27
REMARK    9  A    between atoms: C_26  and  C_28
REMARK   10  A    between atoms: C_26  and  C_29
REMARK                            x       y       z     vdW  Elec       q    Type
REMARK                         _______ _______ _______ _____ _____    ______ ____
ROOT
ATOM      1  C   UNL     1       1.335  10.519  18.611  0.00  0.00    +0.000 A 
ATOM      2  N   UNL     1       2.295  10.116  17.703  0.00  0.00    +0.000 NA
ATOM      3  C   UNL     1       2.478   8.862  17.996  0.00  0.00    +0.000 A 
ATOM      4  S   UNL     1       3.601   7.682  17.396  0.00  0.00    +0.000 S 
ATOM      5  C   UNL     1       3.066   6.577  18.653  0.00  0.00    +0.000 A 
ATOM      6  C   UNL     1       2.157   7.126  19.496  0.00  0.00    +0.000 A 
ATOM      7  C   UNL     1       1.716   6.535  20.791  0.00  0.00    +0.000 C 
ATOM      8  N   UNL     1       1.766   8.408  19.074  0.00  0.00    +0.000 N 
ATOM      9  C   UNL     1       0.910   9.456  19.438  0.00  0.00    +0.000 A 
ENDROOT
BRANCH   5  10
ATOM     10  C   UNL     1       3.718   5.244  18.873  0.00  0.00    +0.000 C 
ATOM     11  O   UNL     1       4.907   5.224  19.202  0.00  0.00    +0.000 OA
ATOM     12  N   UNL     1       2.970   4.071  18.865  0.00  0.00    +0.000 N 
ATOM     13  C   UNL     1       1.780   3.801  18.046  0.00  0.00    +0.000 C 
ATOM     14  C   UNL     1       0.880   2.710  18.649  0.00  0.00    +0.000 C 
ATOM     15  O   UNL     1       1.611   1.545  19.049  0.00  0.00    +0.000 OA
ATOM     16  C   UNL     1       2.643   1.897  19.980  0.00  0.00    +0.000 C 
ATOM     17  C   UNL     1       3.644   2.846  19.321  0.00  0.00    +0.000 C 
ENDBRANCH   5  10
BRANCH   1  22
ATOM     18  C   UNL     1       1.377  14.303  18.883  0.00  0.00    +0.000 A 
ATOM     19  C   UNL     1       0.015  14.583  18.760  0.00  0.00    +0.000 A 
ATOM     20  C   UNL     1      -0.912  13.551  18.616  0.00  0.00    +0.000 A 
ATOM     21  C   UNL     1      -0.472  12.233  18.565  0.00  0.00    +0.000 A 
ATOM     22  C   UNL     1       0.896  11.919  18.665  0.00  0.00    +0.000 A 
ATOM     23  C   UNL     1       1.807  12.973  18.849  0.00  0.00    +0.000 A 
BRANCH  18  25
ATOM     24  C   UNL     1       3.226  15.569  18.091  0.00  0.00    +0.000 C 
ATOM     25  O   UNL     1       2.183  15.398  19.041  0.00  0.00    +0.000 OA
ENDBRANCH  18  25
ENDBRANCH   1  22
BRANCH   9  26
ATOM     26  N   UNL     1       0.039   9.477  20.498  0.00  0.00    +0.000 N 
ATOM     27  H   UNL     1      -0.689   8.760  20.450  0.00  0.00    +0.000 HD
BRANCH  26  28
ATOM     28  C   UNL     1       0.285   9.859  21.907  0.00  0.00    +0.000 C 
ATOM     29  C   UNL     1      -0.166  11.329  22.036  0.00  0.00    +0.000 C 
ATOM     30  C   UNL     1      -0.653   9.046  22.839  0.00  0.00    +0.000 C 
ATOM     31  C   UNL     1       1.705   9.600  22.421  0.00  0.00    +0.000 C 
ENDBRANCH  26  28
ENDBRANCH   9  26
TORSDOF 5
ENDMDL
MODEL 8
REMARK VINA RESULT:      -7.1      2.957      9.271
REMARK  Name = 
REMARK  10 active torsions:
REMARK  status: ('A' for Active; 'I' for Inactive)
REMARK    1  A    between atoms: C_1  and  O_2
REMARK    2  A    between atoms: O_2  and  C_3
REMARK    3  A    between atoms: C_7  and  C_8
REMARK    4  A    between atoms: C_12  and  C_13
REMARK    5  A    between atoms: C_21  and  C_22
REMARK    6  A    between atoms: C_24  and  N_25
REMARK    7  A    between atoms: N_25  and  C_26
REMARK    8  A    between atoms: C_26  and  C_27
REMARK    9  A    between atoms: C_26  and  C_28
REMARK   10  A    between atoms: C_26  and  C_29
REMARK                            x       y       z     vdW  Elec       q    Type
REMARK                         _______ _______ _______ _____ _____    ______ ____
ROOT
ATOM      1  C   UNL     1      -0.108  10.054  20.698  0.00  0.00    +0.000 A 
ATOM      2  N   UNL     1      -0.017   8.865  21.397  0.00  0.00    +0.000 NA
ATOM      3  C   UNL     1       0.939   8.230  20.784  0.00  0.00    +0.000 A 
ATOM      4  S   UNL     1       1.574   6.625  20.976  0.00  0.00    +0.000 S 
ATOM      5  C   UNL     1       2.540   6.867  19.528  0.00  0.00    +0.000 A 
ATOM      6  C   UNL     1       2.311   8.059  18.925  0.00  0.00    +0.000 A 
ATOM      7  C   UNL     1       2.778   8.440  17.562  0.00  0.00    +0.000 C 
ATOM      8  N   UNL     1       1.450   8.868  19.686  0.00  0.00    +0.000 N 
ATOM      9  C   UNL     1       0.853  10.136  19.667  0.00  0.00    +0.000 A 
ENDROOT
BRANCH   5  10
ATOM     10  C   UNL     1       3.365   5.767  18.928  0.00  0.00    +0.000 C 
ATOM     11  O   UNL     1       4.579   5.952  18.801  0.00  0.00    +0.000 OA
ATOM     12  N   UNL     1       2.812   4.517  18.671  0.00  0.00    +0.000 N 
ATOM     13  C   UNL     1       1.427   4.243  18.264  0.00  0.00    +0.000 C 
ATOM     14  C   UNL     1       0.980   2.813  18.605  0.00  0.00    +0.000 C 
ATOM     15  O   UNL     1       1.933   1.821  18.201  0.00  0.00    +0.000 OA
ATOM     16  C   UNL     1       3.212   2.088  18.790  0.00  0.00    +0.000 C 
ATOM     17  C   UNL     1       3.743   3.437  18.307  0.00  0.00    +0.000 C 
ENDBRANCH   5  10
BRANCH   1  22
ATOM     18  C   UNL     1      -2.387  12.361  22.667  0.00  0.00    +0.000 A 
ATOM     19  C   UNL     1      -3.121  12.940  21.631  0.00  0.00    +0.000 A 
ATOM     20  C   UNL     1      -2.896  12.566  20.306  0.00  0.00    +0.000 A 
ATOM     21  C   UNL     1      -1.912  11.629  20.013  0.00  0.00    +0.000 A 
ATOM     22  C   UNL     1      -1.140  11.042  21.033  0.00  0.00    +0.000 A 
ATOM     23  C   UNL     1      -1.411  11.407  22.362  0.00  0.00    +0.000 A 
BRANCH  18  25
ATOM     24  C   UNL     1      -4.062  12.607  24.334  0.00  0.00    +0.000 C 
ATOM     25  O   UNL     1      -2.714  12.794  23.923  0.00  0.00    +0.000 OA
ENDBRANCH  18  25
ENDBRANCH   1  22
BRANCH   9  26
ATOM     26  N   UNL     1       1.026  11.113  18.718  0.00  0.00    +0.000 N 
ATOM     27  H   UNL     1       0.321  11.100  17.977  0.00  0.00    +0.000 HD
BRANCH  26  28
ATOM     28  C   UNL     1       1.584  12.476  18.866  0.00  0.00    +0.000 C 
ATOM     29  C   UNL     1       2.774  12.560  17.888  0.00  0.00    +0.000 C 
ATOM     30  C   UNL     1       0.551  13.519  18.365  0.00  0.00    +0.000 C 
ATOM     31  C   UNL     1       1.931  12.894  20.299  0.00  0.00    +0.000 C 
ENDBRANCH  26  28
ENDBRANCH   9  26
TORSDOF 5
ENDMDL
MODEL 9
REMARK VINA RESULT:      -7.1      1.025      1.236
REMARK  Name = 
REMARK  10 active torsions:
REMARK  status: ('A' for Active; 'I' for Inactive)
REMARK    1  A    between atoms: C_1  and  O_2
REMARK    2  A    between atoms: O_2  and  C_3
REMARK    3  A    between atoms: C_7  and  C_8
REMARK    4  A    between atoms: C_12  and  C_13
REMARK    5  A    between atoms: C_21  and  C_22
REMARK    6  A    between atoms: C_24  and  N_25
REMARK    7  A    between atoms: N_25  and  C_26
REMARK    8  A    between atoms: C_26  and  C_27
REMARK    9  A    between atoms: C_26  and  C_28
REMARK   10  A    between atoms: C_26  and  C_29
REMARK                            x       y       z     vdW  Elec       q    Type
REMARK                         _______ _______ _______ _____ _____    ______ ____
ROOT
ATOM      1  C   UNL     1       3.813   6.662  17.929  0.00  0.00    +0.000 A 
ATOM      2  N   UNL     1       3.460   7.836  17.291  0.00  0.00    +0.000 NA
ATOM      3  C   UNL     1       2.675   8.420  18.149  0.00  0.00    +0.000 A 
ATOM      4  S   UNL     1       1.728   9.871  18.054  0.00  0.00    +0.000 S 
ATOM      5  C   UNL     1       0.989   9.455  19.593  0.00  0.00    +0.000 A 
ATOM      6  C   UNL     1       1.398   8.255  20.075  0.00  0.00    +0.000 A 
ATOM      7  C   UNL     1       0.769   7.522  21.210  0.00  0.00    +0.000 C 
ATOM      8  N   UNL     1       2.418   7.699  19.285  0.00  0.00    +0.000 N 
ATOM      9  C   UNL     1       3.250   6.573  19.222  0.00  0.00    +0.000 A 
ENDROOT
BRANCH   5  10
ATOM     10  C   UNL     1      -0.130  10.260  20.184  0.00  0.00    +0.000 C 
ATOM     11  O   UNL     1      -0.007  10.668  21.342  0.00  0.00    +0.000 OA
ATOM     12  N   UNL     1      -1.204  10.673  19.402  0.00  0.00    +0.000 N 
ATOM     13  C   UNL     1      -1.793   9.940  18.273  0.00  0.00    +0.000 C 
ATOM     14  C   UNL     1      -2.541  10.860  17.294  0.00  0.00    +0.000 C 
ATOM     15  O   UNL     1      -3.433  11.766  17.954  0.00  0.00    +0.000 OA
ATOM     16  C   UNL     1      -2.723  12.553  18.920  0.00  0.00    +0.000 C 
ATOM     17  C   UNL     1      -2.128  11.649  19.999  0.00  0.00    +0.000 C 
ENDBRANCH   5  10
BRANCH   1  22
ATOM     18  C   UNL     1       6.779   4.510  16.950  0.00  0.00    +0.000 A 
ATOM     19  C   UNL     1       6.212   3.739  15.934  0.00  0.00    +0.000 A 
ATOM     20  C   UNL     1       4.885   3.935  15.552  0.00  0.00    +0.000 A 
ATOM     21  C   UNL     1       4.112   4.885  16.209  0.00  0.00    +0.000 A 
ATOM     22  C   UNL     1       4.648   5.663  17.252  0.00  0.00    +0.000 A 
ATOM     23  C   UNL     1       5.998   5.475  17.593  0.00  0.00    +0.000 A 
BRANCH  18  25
ATOM     24  C   UNL     1       8.551   4.522  18.534  0.00  0.00    +0.000 C 
ATOM     25  O   UNL     1       8.094   4.239  17.218  0.00  0.00    +0.000 OA
ENDBRANCH  18  25
ENDBRANCH   1  22
BRANCH   9  26
ATOM     26  N   UNL     1       3.305   5.538  20.122  0.00  0.00    +0.000 N 
ATOM     27  H   UNL     1       3.403   5.840  21.094  0.00  0.00    +0.000 HD
BRANCH  26  28
ATOM     28  C   UNL     1       2.654   4.210  20.065  0.00  0.00    +0.000 C 
ATOM     29  C   UNL     1       3.780   3.194  19.783  0.00  0.00    +0.000 C 
ATOM     30  C   UNL     1       2.094   3.843  21.465  0.00  0.00    +0.000 C 
ATOM     31  C   UNL     1       1.467   4.099  19.102  0.00  0.00    +0.000 C 
ENDBRANCH  26  28
ENDBRANCH   9  26
TORSDOF 5
ENDMDL
