MODEL 1
REMARK VINA RESULT:      -7.7      0.000      0.000
REMARK  Name = 
REMARK  4 active torsions:
REMARK  status: ('A' for Active; 'I' for Inactive)
REMARK    1  A    between atoms: C_4  and  C_5
REMARK    2  A    between atoms: N_13  and  C_14
REMARK    3  A    between atoms: C_14  and  C_15
REMARK    4  A    between atoms: C_18  and  C_19
REMARK                            x       y       z     vdW  Elec       q    Type
REMARK                         _______ _______ _______ _____ _____    ______ ____
ROOT
ATOM      1  O   UNL     1       6.340   5.360  20.161  0.00  0.00    +0.000 OA
ATOM      2  S   UNL     1       5.688   5.010  18.922  0.00  0.00    +0.000 S 
ATOM      3  O   UNL     1       5.651   3.651  18.421  0.00  0.00    +0.000 OA
ATOM      4  C   UNL     1       4.049   5.780  18.796  0.00  0.00    +0.000 C 
ATOM      5  C   UNL     1       3.988   6.132  17.306  0.00  0.00    +0.000 C 
ATOM      6  C   UNL     1       5.361   6.671  16.893  0.00  0.00    +0.000 C 
ATOM      7  N   UNL     1       6.405   5.965  17.686  0.00  0.00    +0.000 NA
ENDROOT
BRANCH   4   8
ATOM      8  C   UNL     1       3.035   4.797  19.343  0.00  0.00    +0.000 A 
ATOM      9  C   UNL     1       2.223   4.078  18.444  0.00  0.00    +0.000 A 
ATOM     10  C   UNL     1       1.150   3.311  18.901  0.00  0.00    +0.000 A 
ATOM     11  C   UNL     1       0.893   3.215  20.264  0.00  0.00    +0.000 A 
ATOM     12  C   UNL     1       1.735   3.851  21.172  0.00  0.00    +0.000 A 
ATOM     13  C   UNL     1       2.805   4.626  20.717  0.00  0.00    +0.000 A 
ENDBRANCH   4   8
BRANCH   7  14
ATOM     14  C   UNL     1       7.430   5.219  16.920  0.00  0.00    +0.000 C 
BRANCH  14  15
ATOM     15  C   UNL     1       6.939   4.690  15.609  0.00  0.00    +0.000 A 
ATOM     16  C   UNL     1       7.422   5.134  14.399  0.00  0.00    +0.000 A 
ATOM     17  N   UNL     1       6.977   4.682  13.208  0.00  0.00    +0.000 NA
ATOM     18  C   UNL     1       6.009   3.732  13.227  0.00  0.00    +0.000 A 
ATOM     19  N   UNL     1       5.503   3.214  14.375  0.00  0.00    +0.000 NA
ATOM     20  C   UNL     1       5.985   3.701  15.533  0.00  0.00    +0.000 A 
BRANCH  18  21
ATOM     21  C   UNL     1       5.426   3.237  11.897  0.00  0.00    +0.000 C 
ATOM     22  F   UNL     1       5.802   1.966  11.561  0.00  0.00    +0.000 F 
ATOM     23  F   UNL     1       4.059   3.226  11.880  0.00  0.00    +0.000 F 
ATOM     24  F   UNL     1       5.800   4.014  10.834  0.00  0.00    +0.000 F 
ENDBRANCH  18  21
ENDBRANCH  14  15
ENDBRANCH   7  14
TORSDOF 4
ENDMDL
MODEL 2
REMARK VINA RESULT:      -7.7      0.326      1.568
REMARK  Name = 
REMARK  4 active torsions:
REMARK  status: ('A' for Active; 'I' for Inactive)
REMARK    1  A    between atoms: C_4  and  C_5
REMARK    2  A    between atoms: N_13  and  C_14
REMARK    3  A    between atoms: C_14  and  C_15
REMARK    4  A    between atoms: C_18  and  C_19
REMARK                            x       y       z     vdW  Elec       q    Type
REMARK                         _______ _______ _______ _____ _____    ______ ____
ROOT
ATOM      1  O   UNL     1       6.039   5.027  20.285  0.00  0.00    +0.000 OA
ATOM      2  S   UNL     1       5.461   4.892  18.970  0.00  0.00    +0.000 S 
ATOM      3  O   UNL     1       5.281   3.604  18.329  0.00  0.00    +0.000 OA
ATOM      4  C   UNL     1       3.963   5.904  18.798  0.00  0.00    +0.000 C 
ATOM      5  C   UNL     1       4.089   6.394  17.352  0.00  0.00    +0.000 C 
ATOM      6  C   UNL     1       5.554   6.761  17.105  0.00  0.00    +0.000 C 
ATOM      7  N   UNL     1       6.414   5.839  17.898  0.00  0.00    +0.000 NA
ENDROOT
BRANCH   4   8
ATOM      8  C   UNL     1       2.776   5.034  19.161  0.00  0.00    +0.000 A 
ATOM      9  C   UNL     1       2.454   4.846  20.519  0.00  0.00    +0.000 A 
ATOM     10  C   UNL     1       1.497   3.906  20.906  0.00  0.00    +0.000 A 
ATOM     11  C   UNL     1       0.816   3.169  19.944  0.00  0.00    +0.000 A 
ATOM     12  C   UNL     1       1.062   3.401  18.594  0.00  0.00    +0.000 A 
ATOM     13  C   UNL     1       2.025   4.335  18.204  0.00  0.00    +0.000 A 
ENDBRANCH   4   8
BRANCH   7  14
ATOM     14  C   UNL     1       7.390   5.024  17.141  0.00  0.00    +0.000 C 
BRANCH  14  15
ATOM     15  C   UNL     1       6.904   4.597  15.792  0.00  0.00    +0.000 A 
ATOM     16  C   UNL     1       5.891   3.681  15.620  0.00  0.00    +0.000 A 
ATOM     17  N   UNL     1       5.455   3.271  14.411  0.00  0.00    +0.000 NA
ATOM     18  C   UNL     1       6.054   3.809  13.320  0.00  0.00    +0.000 A 
ATOM     19  N   UNL     1       7.036   4.743  13.399  0.00  0.00    +0.000 NA
ATOM     20  C   UNL     1       7.429   5.117  14.630  0.00  0.00    +0.000 A 
BRANCH  18  21
ATOM     21  C   UNL     1       5.636   3.323  11.926  0.00  0.00    +0.000 C 
ATOM     22  F   UNL     1       6.357   3.874  10.903  0.00  0.00    +0.000 F 
ATOM     23  F   UNL     1       5.760   1.970  11.768  0.00  0.00    +0.000 F 
ATOM     24  F   UNL     1       4.329   3.607  11.636  0.00  0.00    +0.000 F 
ENDBRANCH  18  21
ENDBRANCH  14  15
ENDBRANCH   7  14
TORSDOF 4
ENDMDL
MODEL 3
REMARK VINA RESULT:      -7.6      0.354      1.161
REMARK  Name = 
REMARK  4 active torsions:
REMARK  status: ('A' for Active; 'I' for Inactive)
REMARK    1  A    between atoms: C_4  and  C_5
REMARK    2  A    between atoms: N_13  and  C_14
REMARK    3  A    between atoms: C_14  and  C_15
REMARK    4  A    between atoms: C_18  and  C_19
REMARK                            x       y       z     vdW  Elec       q    Type
REMARK                         _______ _______ _______ _____ _____    ______ ____
ROOT
ATOM      1  O   UNL     1       6.215   5.441  20.191  0.00  0.00    +0.000 OA
ATOM      2  S   UNL     1       5.608   5.042  18.944  0.00  0.00    +0.000 S 
ATOM      3  O   UNL     1       5.633   3.673  18.470  0.00  0.00    +0.000 OA
ATOM      4  C   UNL     1       3.945   5.749  18.761  0.00  0.00    +0.000 C 
ATOM      5  C   UNL     1       3.910   6.068  17.263  0.00  0.00    +0.000 C 
ATOM      6  C   UNL     1       5.271   6.649  16.873  0.00  0.00    +0.000 C 
ATOM      7  N   UNL     1       6.320   5.999  17.706  0.00  0.00    +0.000 NA
ENDROOT
BRANCH   4   8
ATOM      8  C   UNL     1       2.954   4.739  19.304  0.00  0.00    +0.000 A 
ATOM      9  C   UNL     1       2.182   3.984  18.400  0.00  0.00    +0.000 A 
ATOM     10  C   UNL     1       1.126   3.188  18.848  0.00  0.00    +0.000 A 
ATOM     11  C   UNL     1       0.850   3.099  20.209  0.00  0.00    +0.000 A 
ATOM     12  C   UNL     1       1.655   3.772  21.122  0.00  0.00    +0.000 A 
ATOM     13  C   UNL     1       2.708   4.576  20.675  0.00  0.00    +0.000 A 
ENDBRANCH   4   8
BRANCH   7  14
ATOM     14  C   UNL     1       7.391   5.277  16.981  0.00  0.00    +0.000 C 
BRANCH  14  15
ATOM     15  C   UNL     1       6.964   4.735  15.653  0.00  0.00    +0.000 A 
ATOM     16  C   UNL     1       6.034   3.729  15.523  0.00  0.00    +0.000 A 
ATOM     17  N   UNL     1       5.652   3.217  14.334  0.00  0.00    +0.000 NA
ATOM     18  C   UNL     1       6.220   3.742  13.220  0.00  0.00    +0.000 A 
ATOM     19  N   UNL     1       7.119   4.759  13.257  0.00  0.00    +0.000 NA
ATOM     20  C   UNL     1       7.461   5.233  14.470  0.00  0.00    +0.000 A 
BRANCH  18  21
ATOM     21  C   UNL     1       5.867   3.145  11.852  0.00  0.00    +0.000 C 
ATOM     22  F   UNL     1       6.813   3.360  10.888  0.00  0.00    +0.000 F 
ATOM     23  F   UNL     1       5.686   1.790  11.886  0.00  0.00    +0.000 F 
ATOM     24  F   UNL     1       4.707   3.657  11.336  0.00  0.00    +0.000 F 
ENDBRANCH  18  21
ENDBRANCH  14  15
ENDBRANCH   7  14
TORSDOF 4
ENDMDL
MODEL 4
REMARK VINA RESULT:      -7.6      0.240      1.010
REMARK  Name = 
REMARK  4 active torsions:
REMARK  status: ('A' for Active; 'I' for Inactive)
REMARK    1  A    between atoms: C_4  and  C_5
REMARK    2  A    between atoms: N_13  and  C_14
REMARK    3  A    between atoms: C_14  and  C_15
REMARK    4  A    between atoms: C_18  and  C_19
REMARK                            x       y       z     vdW  Elec       q    Type
REMARK                         _______ _______ _______ _____ _____    ______ ____
ROOT
ATOM      1  O   UNL     1       6.141   5.478  20.102  0.00  0.00    +0.000 OA
ATOM      2  S   UNL     1       5.511   5.141  18.848  0.00  0.00    +0.000 S 
ATOM      3  O   UNL     1       5.376   3.773  18.389  0.00  0.00    +0.000 OA
ATOM      4  C   UNL     1       3.951   6.043  18.627  0.00  0.00    +0.000 C 
ATOM      5  C   UNL     1       3.981   6.345  17.125  0.00  0.00    +0.000 C 
ATOM      6  C   UNL     1       5.411   6.750  16.754  0.00  0.00    +0.000 C 
ATOM      7  N   UNL     1       6.357   5.986  17.613  0.00  0.00    +0.000 NA
ENDROOT
BRANCH   4   8
ATOM      8  C   UNL     1       2.834   5.170  19.161  0.00  0.00    +0.000 A 
ATOM      9  C   UNL     1       2.719   4.981  20.552  0.00  0.00    +0.000 A 
ATOM     10  C   UNL     1       1.833   4.037  21.077  0.00  0.00    +0.000 A 
ATOM     11  C   UNL     1       1.018   3.298  20.226  0.00  0.00    +0.000 A 
ATOM     12  C   UNL     1       1.059   3.532  18.855  0.00  0.00    +0.000 A 
ATOM     13  C   UNL     1       1.951   4.470  18.326  0.00  0.00    +0.000 A 
ENDBRANCH   4   8
BRANCH   7  14
ATOM     14  C   UNL     1       7.343   5.128  16.917  0.00  0.00    +0.000 C 
BRANCH  14  15
ATOM     15  C   UNL     1       6.871   4.617  15.592  0.00  0.00    +0.000 A 
ATOM     16  C   UNL     1       7.437   5.005  14.399  0.00  0.00    +0.000 A 
ATOM     17  N   UNL     1       7.011   4.568  13.196  0.00  0.00    +0.000 NA
ATOM     18  C   UNL     1       5.974   3.694  13.184  0.00  0.00    +0.000 A 
ATOM     19  N   UNL     1       5.381   3.233  14.315  0.00  0.00    +0.000 NA
ATOM     20  C   UNL     1       5.849   3.700  15.487  0.00  0.00    +0.000 A 
BRANCH  18  21
ATOM     21  C   UNL     1       5.413   3.222  11.836  0.00  0.00    +0.000 C 
ATOM     22  F   UNL     1       5.927   2.031  11.403  0.00  0.00    +0.000 F 
ATOM     23  F   UNL     1       4.057   3.047  11.849  0.00  0.00    +0.000 F 
ATOM     24  F   UNL     1       5.658   4.109  10.822  0.00  0.00    +0.000 F 
ENDBRANCH  18  21
ENDBRANCH  14  15
ENDBRANCH   7  14
TORSDOF 4
ENDMDL
MODEL 5
REMARK VINA RESULT:      -7.6      4.522      5.688
REMARK  Name = 
REMARK  4 active torsions:
REMARK  status: ('A' for Active; 'I' for Inactive)
REMARK    1  A    between atoms: C_4  and  C_5
REMARK    2  A    between atoms: N_13  and  C_14
REMARK    3  A    between atoms: C_14  and  C_15
REMARK    4  A    between atoms: C_18  and  C_19
REMARK                            x       y       z     vdW  Elec       q    Type
REMARK                         _______ _______ _______ _____ _____    ______ ____
ROOT
ATOM      1  O   UNL     1       4.165   6.780  18.036  0.00  0.00    +0.000 OA
ATOM      2  S   UNL     1       4.591   5.407  18.154  0.00  0.00    +0.000 S 
ATOM      3  O   UNL     1       5.122   4.861  19.387  0.00  0.00    +0.000 OA
ATOM      4  C   UNL     1       3.375   4.272  17.426  0.00  0.00    +0.000 C 
ATOM      5  C   UNL     1       4.284   3.216  16.789  0.00  0.00    +0.000 C 
ATOM      6  C   UNL     1       5.463   3.941  16.135  0.00  0.00    +0.000 C 
ATOM      7  N   UNL     1       5.790   5.144  16.950  0.00  0.00    +0.000 NA
ENDROOT
BRANCH   4   8
ATOM      8  C   UNL     1       2.434   3.836  18.531  0.00  0.00    +0.000 A 
ATOM      9  C   UNL     1       1.802   4.817  19.319  0.00  0.00    +0.000 A 
ATOM     10  C   UNL     1       1.085   4.466  20.464  0.00  0.00    +0.000 A 
ATOM     11  C   UNL     1       0.949   3.127  20.818  0.00  0.00    +0.000 A 
ATOM     12  C   UNL     1       1.496   2.139  20.004  0.00  0.00    +0.000 A 
ATOM     13  C   UNL     1       2.222   2.489  18.862  0.00  0.00    +0.000 A 
ENDBRANCH   4   8
BRANCH   7  14
ATOM     14  C   UNL     1       7.164   5.223  17.496  0.00  0.00    +0.000 C 
BRANCH  14  15
ATOM     15  C   UNL     1       7.631   6.620  17.760  0.00  0.00    +0.000 A 
ATOM     16  C   UNL     1       7.362   7.668  16.909  0.00  0.00    +0.000 A 
ATOM     17  N   UNL     1       7.792   8.929  17.122  0.00  0.00    +0.000 NA
ATOM     18  C   UNL     1       8.518   9.156  18.244  0.00  0.00    +0.000 A 
ATOM     19  N   UNL     1       8.798   8.188  19.154  0.00  0.00    +0.000 NA
ATOM     20  C   UNL     1       8.342   6.949  18.891  0.00  0.00    +0.000 A 
BRANCH  18  21
ATOM     21  C   UNL     1       9.084  10.560  18.494  0.00  0.00    +0.000 C 
ATOM     22  F   UNL     1       8.247  11.575  18.118  0.00  0.00    +0.000 F 
ATOM     23  F   UNL     1       9.375  10.798  19.808  0.00  0.00    +0.000 F 
ATOM     24  F   UNL     1      10.250  10.788  17.814  0.00  0.00    +0.000 F 
ENDBRANCH  18  21
ENDBRANCH  14  15
ENDBRANCH   7  14
TORSDOF 4
ENDMDL
MODEL 6
REMARK VINA RESULT:      -7.4      5.589      8.391
REMARK  Name = 
REMARK  4 active torsions:
REMARK  status: ('A' for Active; 'I' for Inactive)
REMARK    1  A    between atoms: C_4  and  C_5
REMARK    2  A    between atoms: N_13  and  C_14
REMARK    3  A    between atoms: C_14  and  C_15
REMARK    4  A    between atoms: C_18  and  C_19
REMARK                            x       y       z     vdW  Elec       q    Type
REMARK                         _______ _______ _______ _____ _____    ______ ____
ROOT
ATOM      1  O   UNL     1       6.404   7.306  16.962  0.00  0.00    +0.000 OA
ATOM      2  S   UNL     1       5.261   6.680  16.342  0.00  0.00    +0.000 S 
ATOM      3  O   UNL     1       4.677   7.174  15.111  0.00  0.00    +0.000 OA
ATOM      4  C   UNL     1       5.448   4.875  16.279  0.00  0.00    +0.000 C 
ATOM      5  C   UNL     1       4.014   4.408  16.551  0.00  0.00    +0.000 C 
ATOM      6  C   UNL     1       3.430   5.297  17.653  0.00  0.00    +0.000 C 
ATOM      7  N   UNL     1       3.998   6.666  17.508  0.00  0.00    +0.000 NA
ENDROOT
BRANCH   4   8
ATOM      8  C   UNL     1       6.076   4.523  14.946  0.00  0.00    +0.000 A 
ATOM      9  C   UNL     1       7.291   5.135  14.579  0.00  0.00    +0.000 A 
ATOM     10  C   UNL     1       7.805   4.993  13.289  0.00  0.00    +0.000 A 
ATOM     11  C   UNL     1       7.138   4.204  12.357  0.00  0.00    +0.000 A 
ATOM     12  C   UNL     1       5.982   3.525  12.728  0.00  0.00    +0.000 A 
ATOM     13  C   UNL     1       5.461   3.672  14.016  0.00  0.00    +0.000 A 
ENDBRANCH   4   8
BRANCH   7  14
ATOM     14  C   UNL     1       3.031   7.768  17.305  0.00  0.00    +0.000 C 
BRANCH  14  15
ATOM     15  C   UNL     1       2.269   8.140  18.538  0.00  0.00    +0.000 A 
ATOM     16  C   UNL     1       1.500   9.278  18.624  0.00  0.00    +0.000 A 
ATOM     17  N   UNL     1       0.823   9.638  19.734  0.00  0.00    +0.000 NA
ATOM     18  C   UNL     1       0.912   8.815  20.809  0.00  0.00    +0.000 A 
ATOM     19  N   UNL     1       1.619   7.657  20.798  0.00  0.00    +0.000 NA
ATOM     20  C   UNL     1       2.272   7.347  19.663  0.00  0.00    +0.000 A 
BRANCH  18  21
ATOM     21  C   UNL     1       0.213   9.218  22.114  0.00  0.00    +0.000 C 
ATOM     22  F   UNL     1      -0.821   8.397  22.471  0.00  0.00    +0.000 F 
ATOM     23  F   UNL     1       1.054   9.230  23.193  0.00  0.00    +0.000 F 
ATOM     24  F   UNL     1      -0.329  10.474  22.058  0.00  0.00    +0.000 F 
ENDBRANCH  18  21
ENDBRANCH  14  15
ENDBRANCH   7  14
TORSDOF 4
ENDMDL
MODEL 7
REMARK VINA RESULT:      -7.3      4.932      7.946
REMARK  Name = 
REMARK  4 active torsions:
REMARK  status: ('A' for Active; 'I' for Inactive)
REMARK    1  A    between atoms: C_4  and  C_5
REMARK    2  A    between atoms: N_13  and  C_14
REMARK    3  A    between atoms: C_14  and  C_15
REMARK    4  A    between atoms: C_18  and  C_19
REMARK                            x       y       z     vdW  Elec       q    Type
REMARK                         _______ _______ _______ _____ _____    ______ ____
ROOT
ATOM      1  O   UNL     1       4.593   6.904  16.095  0.00  0.00    +0.000 OA
ATOM      2  S   UNL     1       5.058   5.575  16.414  0.00  0.00    +0.000 S 
ATOM      3  O   UNL     1       4.331   4.383  16.025  0.00  0.00    +0.000 OA
ATOM      4  C   UNL     1       6.827   5.389  16.052  0.00  0.00    +0.000 C 
ATOM      5  C   UNL     1       7.287   4.501  17.213  0.00  0.00    +0.000 C 
ATOM      6  C   UNL     1       6.592   4.993  18.485  0.00  0.00    +0.000 C 
ATOM      7  N   UNL     1       5.239   5.498  18.121  0.00  0.00    +0.000 NA
ENDROOT
BRANCH   4   8
ATOM      8  C   UNL     1       6.954   4.848  14.642  0.00  0.00    +0.000 A 
ATOM      9  C   UNL     1       7.812   5.498  13.733  0.00  0.00    +0.000 A 
ATOM     10  C   UNL     1       7.815   5.159  12.380  0.00  0.00    +0.000 A 
ATOM     11  C   UNL     1       6.993   4.136  11.916  0.00  0.00    +0.000 A 
ATOM     12  C   UNL     1       6.201   3.427  12.814  0.00  0.00    +0.000 A 
ATOM     13  C   UNL     1       6.190   3.770  14.169  0.00  0.00    +0.000 A 
ENDBRANCH   4   8
BRANCH   7  14
ATOM     14  C   UNL     1       4.086   4.846  18.782  0.00  0.00    +0.000 C 
BRANCH  14  15
ATOM     15  C   UNL     1       3.121   5.806  19.403  0.00  0.00    +0.000 A 
ATOM     16  C   UNL     1       2.959   7.096  18.951  0.00  0.00    +0.000 A 
ATOM     17  N   UNL     1       2.108   7.980  19.512  0.00  0.00    +0.000 NA
ATOM     18  C   UNL     1       1.376   7.552  20.570  0.00  0.00    +0.000 A 
ATOM     19  N   UNL     1       1.449   6.287  21.058  0.00  0.00    +0.000 NA
ATOM     20  C   UNL     1       2.313   5.447  20.458  0.00  0.00    +0.000 A 
BRANCH  18  21
ATOM     21  C   UNL     1       0.445   8.543  21.281  0.00  0.00    +0.000 C 
ATOM     22  F   UNL     1       0.987   9.114  22.400  0.00  0.00    +0.000 F 
ATOM     23  F   UNL     1       0.066   9.590  20.488  0.00  0.00    +0.000 F 
ATOM     24  F   UNL     1      -0.720   7.963  21.704  0.00  0.00    +0.000 F 
ENDBRANCH  18  21
ENDBRANCH  14  15
ENDBRANCH   7  14
TORSDOF 4
ENDMDL
MODEL 8
REMARK VINA RESULT:      -7.2      4.586      5.823
REMARK  Name = 
REMARK  4 active torsions:
REMARK  status: ('A' for Active; 'I' for Inactive)
REMARK    1  A    between atoms: C_4  and  C_5
REMARK    2  A    between atoms: N_13  and  C_14
REMARK    3  A    between atoms: C_14  and  C_15
REMARK    4  A    between atoms: C_18  and  C_19
REMARK                            x       y       z     vdW  Elec       q    Type
REMARK                         _______ _______ _______ _____ _____    ______ ____
ROOT
ATOM      1  O   UNL     1       4.000   6.932  18.077  0.00  0.00    +0.000 OA
ATOM      2  S   UNL     1       4.448   5.571  18.242  0.00  0.00    +0.000 S 
ATOM      3  O   UNL     1       4.811   5.023  19.534  0.00  0.00    +0.000 OA
ATOM      4  C   UNL     1       3.386   4.410  17.335  0.00  0.00    +0.000 C 
ATOM      5  C   UNL     1       4.410   3.390  16.826  0.00  0.00    +0.000 C 
ATOM      6  C   UNL     1       5.648   4.160  16.357  0.00  0.00    +0.000 C 
ATOM      7  N   UNL     1       5.816   5.359  17.223  0.00  0.00    +0.000 NA
ENDROOT
BRANCH   4   8
ATOM      8  C   UNL     1       2.309   3.931  18.287  0.00  0.00    +0.000 A 
ATOM      9  C   UNL     1       1.834   4.808  19.282  0.00  0.00    +0.000 A 
ATOM     10  C   UNL     1       0.990   4.354  20.297  0.00  0.00    +0.000 A 
ATOM     11  C   UNL     1       0.571   3.027  20.312  0.00  0.00    +0.000 A 
ATOM     12  C   UNL     1       0.963   2.167  19.291  0.00  0.00    +0.000 A 
ATOM     13  C   UNL     1       1.815   2.618  18.278  0.00  0.00    +0.000 A 
ENDBRANCH   4   8
BRANCH   7  14
ATOM     14  C   UNL     1       7.093   5.472  17.963  0.00  0.00    +0.000 C 
BRANCH  14  15
ATOM     15  C   UNL     1       7.621   6.869  18.050  0.00  0.00    +0.000 A 
ATOM     16  C   UNL     1       8.468   7.284  19.053  0.00  0.00    +0.000 A 
ATOM     17  N   UNL     1       8.938   8.545  19.156  0.00  0.00    +0.000 NA
ATOM     18  C   UNL     1       8.550   9.432  18.206  0.00  0.00    +0.000 A 
ATOM     19  N   UNL     1       7.746   9.097  17.165  0.00  0.00    +0.000 NA
ATOM     20  C   UNL     1       7.310   7.825  17.110  0.00  0.00    +0.000 A 
BRANCH  18  21
ATOM     21  C   UNL     1       9.005  10.892  18.322  0.00  0.00    +0.000 C 
ATOM     22  F   UNL     1       8.964  11.392  19.594  0.00  0.00    +0.000 F 
ATOM     23  F   UNL     1      10.290  11.091  17.896  0.00  0.00    +0.000 F 
ATOM     24  F   UNL     1       8.237  11.746  17.577  0.00  0.00    +0.000 F 
ENDBRANCH  18  21
ENDBRANCH  14  15
ENDBRANCH   7  14
TORSDOF 4
ENDMDL
MODEL 9
REMARK VINA RESULT:      -7.2      4.601      5.727
REMARK  Name = 
REMARK  4 active torsions:
REMARK  status: ('A' for Active; 'I' for Inactive)
REMARK    1  A    between atoms: C_4  and  C_5
REMARK    2  A    between atoms: N_13  and  C_14
REMARK    3  A    between atoms: C_14  and  C_15
REMARK    4  A    between atoms: C_18  and  C_19
REMARK                            x       y       z     vdW  Elec       q    Type
REMARK                         _______ _______ _______ _____ _____    ______ ____
ROOT
ATOM      1  O   UNL     1       4.220   6.890  18.134  0.00  0.00    +0.000 OA
ATOM      2  S   UNL     1       4.659   5.516  18.172  0.00  0.00    +0.000 S 
ATOM      3  O   UNL     1       5.270   4.927  19.347  0.00  0.00    +0.000 OA
ATOM      4  C   UNL     1       3.404   4.401  17.481  0.00  0.00    +0.000 C 
ATOM      5  C   UNL     1       4.275   3.376  16.746  0.00  0.00    +0.000 C 
ATOM      6  C   UNL     1       5.406   4.134  16.047  0.00  0.00    +0.000 C 
ATOM      7  N   UNL     1       5.779   5.306  16.885  0.00  0.00    +0.000 NA
ENDROOT
BRANCH   4   8
ATOM      8  C   UNL     1       2.537   3.917  18.625  0.00  0.00    +0.000 A 
ATOM      9  C   UNL     1       2.333   2.533  18.793  0.00  0.00    +0.000 A 
ATOM     10  C   UNL     1       1.394   2.052  19.707  0.00  0.00    +0.000 A 
ATOM     11  C   UNL     1       0.673   2.940  20.498  0.00  0.00    +0.000 A 
ATOM     12  C   UNL     1       0.922   4.306  20.405  0.00  0.00    +0.000 A 
ATOM     13  C   UNL     1       1.855   4.791  19.486  0.00  0.00    +0.000 A 
ENDBRANCH   4   8
BRANCH   7  14
ATOM     14  C   UNL     1       7.185   5.374  17.345  0.00  0.00    +0.000 C 
BRANCH  14  15
ATOM     15  C   UNL     1       7.639   6.755  17.701  0.00  0.00    +0.000 A 
ATOM     16  C   UNL     1       7.344   7.858  16.933  0.00  0.00    +0.000 A 
ATOM     17  N   UNL     1       7.762   9.106  17.230  0.00  0.00    +0.000 NA
ATOM     18  C   UNL     1       8.503   9.261  18.355  0.00  0.00    +0.000 A 
ATOM     19  N   UNL     1       8.810   8.234  19.187  0.00  0.00    +0.000 NA
ATOM     20  C   UNL     1       8.364   7.011  18.843  0.00  0.00    +0.000 A 
BRANCH  18  21
ATOM     21  C   UNL     1       9.056  10.651  18.696  0.00  0.00    +0.000 C 
ATOM     22  F   UNL     1      10.399  10.787  18.479  0.00  0.00    +0.000 F 
ATOM     23  F   UNL     1       8.470  11.655  17.977  0.00  0.00    +0.000 F 
ATOM     24  F   UNL     1       8.870  10.985  20.011  0.00  0.00    +0.000 F 
ENDBRANCH  18  21
ENDBRANCH  14  15
ENDBRANCH   7  14
TORSDOF 4
ENDMDL
