MODEL 1
REMARK VINA RESULT:      -7.3      0.000      0.000
REMARK  Name = 
REMARK  11 active torsions:
REMARK  status: ('A' for Active; 'I' for Inactive)
REMARK    1  A    between atoms: C_1  and  C_2
REMARK    2  A    between atoms: C_2  and  N_3
REMARK    3  A    between atoms: C_2  and  C_18
REMARK    4  A    between atoms: N_3  and  C_4
REMARK    5  A    between atoms: C_4  and  C_5
REMARK    6  A    between atoms: C_4  and  C_6
REMARK    7  A    between atoms: C_4  and  C_7
REMARK    8  A    between atoms: C_7  and  N_8
REMARK    9  A    between atoms: N_8  and  C_9
REMARK   10  A    between atoms: C_10  and  C_12
REMARK   11  A    between atoms: C_12  and  C_13
REMARK                            x       y       z     vdW  Elec       q    Type
REMARK                         _______ _______ _______ _____ _____    ______ ____
ROOT
ATOM      1  C   UNL     1       3.586   4.386  17.947  0.00  0.00    +0.000 C 
ATOM      2  C   UNL     1       4.113   2.962  18.254  0.00  0.00    +0.000 C 
ATOM      3  C   UNL     1       2.191   4.186  17.315  0.00  0.00    +0.000 C 
ENDROOT
BRANCH   1   4
ATOM      4  N   UNL     1       3.464   5.198  19.188  0.00  0.00    +0.000 NA
ATOM      5  H   UNL     1       4.151   5.944  19.178  0.00  0.00    +0.000 HD
BRANCH   4   7
ATOM      6  C   UNL     1       1.672   5.273  20.999  0.00  0.00    +0.000 C 
ATOM      7  C   UNL     1       2.164   5.792  19.640  0.00  0.00    +0.000 C 
BRANCH   7   8
ATOM      8  C   UNL     1       2.113   7.319  19.508  0.00  0.00    +0.000 A 
ATOM      9  C   UNL     1       1.519   8.082  20.529  0.00  0.00    +0.000 A 
ATOM     10  C   UNL     1       1.012   9.354  20.250  0.00  0.00    +0.000 A 
ATOM     11  C   UNL     1       1.085   9.866  18.955  0.00  0.00    +0.000 A 
ATOM     12  C   UNL     1       1.817   9.189  17.985  0.00  0.00    +0.000 A 
ATOM     13  C   UNL     1       2.399   7.957  18.285  0.00  0.00    +0.000 A 
ENDBRANCH   7   8
ENDBRANCH   4   7
ENDBRANCH   1   4
BRANCH   1  14
ATOM     14  C   UNL     1       4.494   4.941  16.828  0.00  0.00    +0.000 C 
BRANCH  14  15
ATOM     15  N   UNL     1       5.745   4.297  16.372  0.00  0.00    +0.000 N 
ATOM     16  C   UNL     1       5.805   3.483  15.168  0.00  0.00    +0.000 C 
ATOM     17  C   UNL     1       6.991   4.780  16.853  0.00  0.00    +0.000 C 
ATOM     18  O   UNL     1       8.080   4.393  16.448  0.00  0.00    +0.000 OA
BRANCH  17  19
ATOM     19  C   UNL     1       6.917   5.917  17.836  0.00  0.00    +0.000 C 
ATOM     20  C   UNL     1       7.414   7.227  17.197  0.00  0.00    +0.000 C 
ATOM     21  C   UNL     1       6.056   7.183  17.772  0.00  0.00    +0.000 C 
BRANCH  19  22
ATOM     22  C   UNL     1       7.092   5.483  19.286  0.00  0.00    +0.000 C 
ATOM     23  N   UNL     1       8.389   5.408  19.686  0.00  0.00    +0.000 N 
ATOM     24  O   UNL     1       6.149   5.232  19.988  0.00  0.00    +0.000 OA
ATOM     25  H   UNL     1       9.161   5.688  19.107  0.00  0.00    +0.000 HD
ATOM     26  H   UNL     1       8.562   5.224  20.668  0.00  0.00    +0.000 HD
ENDBRANCH  19  22
ENDBRANCH  17  19
ENDBRANCH  14  15
ENDBRANCH   1  14
TORSDOF 7
ENDMDL
MODEL 2
REMARK VINA RESULT:      -6.6      2.621      6.555
REMARK  Name = 
REMARK  11 active torsions:
REMARK  status: ('A' for Active; 'I' for Inactive)
REMARK    1  A    between atoms: C_1  and  C_2
REMARK    2  A    between atoms: C_2  and  N_3
REMARK    3  A    between atoms: C_2  and  C_18
REMARK    4  A    between atoms: N_3  and  C_4
REMARK    5  A    between atoms: C_4  and  C_5
REMARK    6  A    between atoms: C_4  and  C_6
REMARK    7  A    between atoms: C_4  and  C_7
REMARK    8  A    between atoms: C_7  and  N_8
REMARK    9  A    between atoms: N_8  and  C_9
REMARK   10  A    between atoms: C_10  and  C_12
REMARK   11  A    between atoms: C_12  and  C_13
REMARK                            x       y       z     vdW  Elec       q    Type
REMARK                         _______ _______ _______ _____ _____    ______ ____
ROOT
ATOM      1  C   UNL     1       4.331   5.680  17.803  0.00  0.00    +0.000 C 
ATOM      2  C   UNL     1       5.249   5.636  19.050  0.00  0.00    +0.000 C 
ATOM      3  C   UNL     1       4.278   7.164  17.378  0.00  0.00    +0.000 C 
ENDROOT
BRANCH   1   4
ATOM      4  N   UNL     1       4.884   4.859  16.692  0.00  0.00    +0.000 NA
ATOM      5  H   UNL     1       4.226   4.837  15.922  0.00  0.00    +0.000 HD
BRANCH   4   7
ATOM      6  C   UNL     1       7.383   4.386  16.863  0.00  0.00    +0.000 C 
ATOM      7  C   UNL     1       6.246   5.095  16.114  0.00  0.00    +0.000 C 
BRANCH   7   8
ATOM      8  C   UNL     1       6.301   4.911  14.592  0.00  0.00    +0.000 A 
ATOM      9  C   UNL     1       5.397   4.032  13.969  0.00  0.00    +0.000 A 
ATOM     10  C   UNL     1       5.711   3.465  12.730  0.00  0.00    +0.000 A 
ATOM     11  C   UNL     1       6.926   3.761  12.114  0.00  0.00    +0.000 A 
ATOM     12  C   UNL     1       7.745   4.753  12.644  0.00  0.00    +0.000 A 
ATOM     13  C   UNL     1       7.393   5.385  13.836  0.00  0.00    +0.000 A 
ENDBRANCH   7   8
ENDBRANCH   4   7
ENDBRANCH   1   4
BRANCH   1  14
ATOM     14  C   UNL     1       2.916   5.323  18.307  0.00  0.00    +0.000 C 
BRANCH  14  15
ATOM     15  N   UNL     1       2.559   5.139  19.730  0.00  0.00    +0.000 N 
ATOM     16  C   UNL     1       2.081   6.235  20.559  0.00  0.00    +0.000 C 
ATOM     17  C   UNL     1       2.281   3.832  20.215  0.00  0.00    +0.000 C 
ATOM     18  O   UNL     1       1.865   3.592  21.341  0.00  0.00    +0.000 OA
BRANCH  17  19
ATOM     19  C   UNL     1       2.410   2.721  19.209  0.00  0.00    +0.000 C 
ATOM     20  C   UNL     1       1.027   2.151  18.841  0.00  0.00    +0.000 C 
ATOM     21  C   UNL     1       1.896   2.670  17.766  0.00  0.00    +0.000 C 
BRANCH  19  22
ATOM     22  C   UNL     1       3.718   1.946  19.320  0.00  0.00    +0.000 C 
ATOM     23  N   UNL     1       4.515   2.353  20.343  0.00  0.00    +0.000 N 
ATOM     24  O   UNL     1       3.994   1.062  18.554  0.00  0.00    +0.000 OA
ATOM     25  H   UNL     1       4.238   3.046  21.015  0.00  0.00    +0.000 HD
ATOM     26  H   UNL     1       5.349   1.807  20.527  0.00  0.00    +0.000 HD
ENDBRANCH  19  22
ENDBRANCH  17  19
ENDBRANCH  14  15
ENDBRANCH   1  14
TORSDOF 7
ENDMDL
MODEL 3
REMARK VINA RESULT:      -6.6      1.537      2.545
REMARK  Name = 
REMARK  11 active torsions:
REMARK  status: ('A' for Active; 'I' for Inactive)
REMARK    1  A    between atoms: C_1  and  C_2
REMARK    2  A    between atoms: C_2  and  N_3
REMARK    3  A    between atoms: C_2  and  C_18
REMARK    4  A    between atoms: N_3  and  C_4
REMARK    5  A    between atoms: C_4  and  C_5
REMARK    6  A    between atoms: C_4  and  C_6
REMARK    7  A    between atoms: C_4  and  C_7
REMARK    8  A    between atoms: C_7  and  N_8
REMARK    9  A    between atoms: N_8  and  C_9
REMARK   10  A    between atoms: C_10  and  C_12
REMARK   11  A    between atoms: C_12  and  C_13
REMARK                            x       y       z     vdW  Elec       q    Type
REMARK                         _______ _______ _______ _____ _____    ______ ____
ROOT
ATOM      1  C   UNL     1       4.410   4.138  19.103  0.00  0.00    +0.000 C 
ATOM      2  C   UNL     1       4.679   2.961  20.074  0.00  0.00    +0.000 C 
ATOM      3  C   UNL     1       3.370   3.611  18.091  0.00  0.00    +0.000 C 
ENDROOT
BRANCH   1   4
ATOM      4  N   UNL     1       3.861   5.319  19.820  0.00  0.00    +0.000 NA
ATOM      5  H   UNL     1       4.431   6.134  19.625  0.00  0.00    +0.000 HD
BRANCH   4   7
ATOM      6  C   UNL     1       1.504   5.122  20.770  0.00  0.00    +0.000 C 
ATOM      7  C   UNL     1       2.426   5.737  19.708  0.00  0.00    +0.000 C 
BRANCH   7   8
ATOM      8  C   UNL     1       2.244   7.250  19.535  0.00  0.00    +0.000 A 
ATOM      9  C   UNL     1       1.601   7.989  20.545  0.00  0.00    +0.000 A 
ATOM     10  C   UNL     1       0.984   9.205  20.239  0.00  0.00    +0.000 A 
ATOM     11  C   UNL     1       0.997   9.685  18.930  0.00  0.00    +0.000 A 
ATOM     12  C   UNL     1       1.770   9.045  17.967  0.00  0.00    +0.000 A 
ATOM     13  C   UNL     1       2.459   7.875  18.291  0.00  0.00    +0.000 A 
ENDBRANCH   7   8
ENDBRANCH   4   7
ENDBRANCH   1   4
BRANCH   1  14
ATOM     14  C   UNL     1       5.721   4.340  18.312  0.00  0.00    +0.000 C 
BRANCH  14  15
ATOM     15  N   UNL     1       6.592   5.530  18.429  0.00  0.00    +0.000 N 
ATOM     16  C   UNL     1       7.578   5.668  19.489  0.00  0.00    +0.000 C 
ATOM     17  C   UNL     1       6.778   6.370  17.299  0.00  0.00    +0.000 C 
ATOM     18  O   UNL     1       7.567   7.306  17.262  0.00  0.00    +0.000 OA
BRANCH  17  19
ATOM     19  C   UNL     1       6.024   5.974  16.059  0.00  0.00    +0.000 C 
ATOM     20  C   UNL     1       4.507   6.148  16.262  0.00  0.00    +0.000 C 
ATOM     21  C   UNL     1       5.164   6.849  15.141  0.00  0.00    +0.000 C 
BRANCH  19  22
ATOM     22  C   UNL     1       6.719   4.893  15.240  0.00  0.00    +0.000 C 
ATOM     23  N   UNL     1       7.814   5.331  14.564  0.00  0.00    +0.000 N 
ATOM     24  O   UNL     1       6.310   3.763  15.211  0.00  0.00    +0.000 OA
ATOM     25  H   UNL     1       8.181   6.261  14.655  0.00  0.00    +0.000 HD
ATOM     26  H   UNL     1       8.373   4.634  14.085  0.00  0.00    +0.000 HD
ENDBRANCH  19  22
ENDBRANCH  17  19
ENDBRANCH  14  15
ENDBRANCH   1  14
TORSDOF 7
ENDMDL
MODEL 4
REMARK VINA RESULT:      -6.4      2.402      6.544
REMARK  Name = 
REMARK  11 active torsions:
REMARK  status: ('A' for Active; 'I' for Inactive)
REMARK    1  A    between atoms: C_1  and  C_2
REMARK    2  A    between atoms: C_2  and  N_3
REMARK    3  A    between atoms: C_2  and  C_18
REMARK    4  A    between atoms: N_3  and  C_4
REMARK    5  A    between atoms: C_4  and  C_5
REMARK    6  A    between atoms: C_4  and  C_6
REMARK    7  A    between atoms: C_4  and  C_7
REMARK    8  A    between atoms: C_7  and  N_8
REMARK    9  A    between atoms: N_8  and  C_9
REMARK   10  A    between atoms: C_10  and  C_12
REMARK   11  A    between atoms: C_12  and  C_13
REMARK                            x       y       z     vdW  Elec       q    Type
REMARK                         _______ _______ _______ _____ _____    ______ ____
ROOT
ATOM      1  C   UNL     1       4.204   5.858  17.792  0.00  0.00    +0.000 C 
ATOM      2  C   UNL     1       5.152   5.838  19.017  0.00  0.00    +0.000 C 
ATOM      3  C   UNL     1       4.029   7.348  17.426  0.00  0.00    +0.000 C 
ENDROOT
BRANCH   1   4
ATOM      4  N   UNL     1       4.791   5.122  16.639  0.00  0.00    +0.000 NA
ATOM      5  H   UNL     1       4.068   4.919  15.959  0.00  0.00    +0.000 HD
BRANCH   4   7
ATOM      6  C   UNL     1       7.184   5.988  16.776  0.00  0.00    +0.000 C 
ATOM      7  C   UNL     1       5.988   5.622  15.888  0.00  0.00    +0.000 C 
BRANCH   7   8
ATOM      8  C   UNL     1       6.359   4.747  14.684  0.00  0.00    +0.000 A 
ATOM      9  C   UNL     1       7.459   5.104  13.883  0.00  0.00    +0.000 A 
ATOM     10  C   UNL     1       7.533   4.666  12.558  0.00  0.00    +0.000 A 
ATOM     11  C   UNL     1       6.511   3.883  12.023  0.00  0.00    +0.000 A 
ATOM     12  C   UNL     1       5.510   3.392  12.854  0.00  0.00    +0.000 A 
ATOM     13  C   UNL     1       5.481   3.756  14.200  0.00  0.00    +0.000 A 
ENDBRANCH   7   8
ENDBRANCH   4   7
ENDBRANCH   1   4
BRANCH   1  14
ATOM     14  C   UNL     1       2.832   5.375  18.312  0.00  0.00    +0.000 C 
BRANCH  14  15
ATOM     15  N   UNL     1       2.472   5.270  19.742  0.00  0.00    +0.000 N 
ATOM     16  C   UNL     1       1.911   6.388  20.485  0.00  0.00    +0.000 C 
ATOM     17  C   UNL     1       2.276   3.986  20.318  0.00  0.00    +0.000 C 
ATOM     18  O   UNL     1       1.864   3.801  21.456  0.00  0.00    +0.000 OA
BRANCH  17  19
ATOM     19  C   UNL     1       2.492   2.817  19.397  0.00  0.00    +0.000 C 
ATOM     20  C   UNL     1       1.267   1.883  19.402  0.00  0.00    +0.000 C 
ATOM     21  C   UNL     1       1.729   2.450  18.120  0.00  0.00    +0.000 C 
BRANCH  19  22
ATOM     22  C   UNL     1       3.954   2.407  19.263  0.00  0.00    +0.000 C 
ATOM     23  N   UNL     1       4.364   2.238  17.978  0.00  0.00    +0.000 N 
ATOM     24  O   UNL     1       4.656   2.251  20.226  0.00  0.00    +0.000 OA
ATOM     25  H   UNL     1       3.782   2.440  17.184  0.00  0.00    +0.000 HD
ATOM     26  H   UNL     1       5.350   2.065  17.824  0.00  0.00    +0.000 HD
ENDBRANCH  19  22
ENDBRANCH  17  19
ENDBRANCH  14  15
ENDBRANCH   1  14
TORSDOF 7
ENDMDL
MODEL 5
REMARK VINA RESULT:      -6.3      1.114      1.469
REMARK  Name = 
REMARK  11 active torsions:
REMARK  status: ('A' for Active; 'I' for Inactive)
REMARK    1  A    between atoms: C_1  and  C_2
REMARK    2  A    between atoms: C_2  and  N_3
REMARK    3  A    between atoms: C_2  and  C_18
REMARK    4  A    between atoms: N_3  and  C_4
REMARK    5  A    between atoms: C_4  and  C_5
REMARK    6  A    between atoms: C_4  and  C_6
REMARK    7  A    between atoms: C_4  and  C_7
REMARK    8  A    between atoms: C_7  and  N_8
REMARK    9  A    between atoms: N_8  and  C_9
REMARK   10  A    between atoms: C_10  and  C_12
REMARK   11  A    between atoms: C_12  and  C_13
REMARK                            x       y       z     vdW  Elec       q    Type
REMARK                         _______ _______ _______ _____ _____    ______ ____
ROOT
ATOM      1  C   UNL     1       3.618   4.331  18.020  0.00  0.00    +0.000 C 
ATOM      2  C   UNL     1       4.112   2.893  18.316  0.00  0.00    +0.000 C 
ATOM      3  C   UNL     1       2.256   4.165  17.311  0.00  0.00    +0.000 C 
ENDROOT
BRANCH   1   4
ATOM      4  N   UNL     1       3.441   5.114  19.273  0.00  0.00    +0.000 NA
ATOM      5  H   UNL     1       4.137   5.849  19.318  0.00  0.00    +0.000 HD
BRANCH   4   7
ATOM      6  C   UNL     1       1.594   5.222  21.025  0.00  0.00    +0.000 C 
ATOM      7  C   UNL     1       2.127   5.713  19.672  0.00  0.00    +0.000 C 
BRANCH   7   8
ATOM      8  C   UNL     1       2.077   7.237  19.506  0.00  0.00    +0.000 A 
ATOM      9  C   UNL     1       1.528   8.026  20.533  0.00  0.00    +0.000 A 
ATOM     10  C   UNL     1       1.016   9.294  20.245  0.00  0.00    +0.000 A 
ATOM     11  C   UNL     1       1.039   9.776  18.937  0.00  0.00    +0.000 A 
ATOM     12  C   UNL     1       1.728   9.073  17.954  0.00  0.00    +0.000 A 
ATOM     13  C   UNL     1       2.316   7.846  18.258  0.00  0.00    +0.000 A 
ENDBRANCH   7   8
ENDBRANCH   4   7
ENDBRANCH   1   4
BRANCH   1  14
ATOM     14  C   UNL     1       4.590   4.902  16.964  0.00  0.00    +0.000 C 
BRANCH  14  15
ATOM     15  N   UNL     1       5.818   4.218  16.504  0.00  0.00    +0.000 N 
ATOM     16  C   UNL     1       5.852   3.419  15.288  0.00  0.00    +0.000 C 
ATOM     17  C   UNL     1       7.079   4.648  16.996  0.00  0.00    +0.000 C 
ATOM     18  O   UNL     1       8.154   4.225  16.589  0.00  0.00    +0.000 OA
BRANCH  17  19
ATOM     19  C   UNL     1       7.043   5.772  17.994  0.00  0.00    +0.000 C 
ATOM     20  C   UNL     1       6.633   5.255  19.386  0.00  0.00    +0.000 C 
ATOM     21  C   UNL     1       7.913   5.976  19.239  0.00  0.00    +0.000 C 
BRANCH  19  22
ATOM     22  C   UNL     1       6.692   7.122  17.381  0.00  0.00    +0.000 C 
ATOM     23  N   UNL     1       7.773   7.847  16.988  0.00  0.00    +0.000 N 
ATOM     24  O   UNL     1       5.552   7.488  17.271  0.00  0.00    +0.000 OA
ATOM     25  H   UNL     1       8.713   7.496  17.024  0.00  0.00    +0.000 HD
ATOM     26  H   UNL     1       7.596   8.707  16.482  0.00  0.00    +0.000 HD
ENDBRANCH  19  22
ENDBRANCH  17  19
ENDBRANCH  14  15
ENDBRANCH   1  14
TORSDOF 7
ENDMDL
MODEL 6
REMARK VINA RESULT:      -6.2      1.654      2.641
REMARK  Name = 
REMARK  11 active torsions:
REMARK  status: ('A' for Active; 'I' for Inactive)
REMARK    1  A    between atoms: C_1  and  C_2
REMARK    2  A    between atoms: C_2  and  N_3
REMARK    3  A    between atoms: C_2  and  C_18
REMARK    4  A    between atoms: N_3  and  C_4
REMARK    5  A    between atoms: C_4  and  C_5
REMARK    6  A    between atoms: C_4  and  C_6
REMARK    7  A    between atoms: C_4  and  C_7
REMARK    8  A    between atoms: C_7  and  N_8
REMARK    9  A    between atoms: N_8  and  C_9
REMARK   10  A    between atoms: C_10  and  C_12
REMARK   11  A    between atoms: C_12  and  C_13
REMARK                            x       y       z     vdW  Elec       q    Type
REMARK                         _______ _______ _______ _____ _____    ______ ____
ROOT
ATOM      1  C   UNL     1       4.267   4.172  19.054  0.00  0.00    +0.000 C 
ATOM      2  C   UNL     1       4.181   2.943  19.994  0.00  0.00    +0.000 C 
ATOM      3  C   UNL     1       3.369   3.833  17.844  0.00  0.00    +0.000 C 
ENDROOT
BRANCH   1   4
ATOM      4  N   UNL     1       3.765   5.403  19.724  0.00  0.00    +0.000 NA
ATOM      5  H   UNL     1       4.288   6.207  19.397  0.00  0.00    +0.000 HD
BRANCH   4   7
ATOM      6  C   UNL     1       1.458   4.978  20.720  0.00  0.00    +0.000 C 
ATOM      7  C   UNL     1       2.315   5.783  19.733  0.00  0.00    +0.000 C 
BRANCH   7   8
ATOM      8  C   UNL     1       2.084   7.297  19.808  0.00  0.00    +0.000 A 
ATOM      9  C   UNL     1       1.516   7.854  20.968  0.00  0.00    +0.000 A 
ATOM     10  C   UNL     1       0.847   9.079  20.904  0.00  0.00    +0.000 A 
ATOM     11  C   UNL     1       0.732   9.748  19.686  0.00  0.00    +0.000 A 
ATOM     12  C   UNL     1       1.431   9.287  18.576  0.00  0.00    +0.000 A 
ATOM     13  C   UNL     1       2.172   8.109  18.659  0.00  0.00    +0.000 A 
ENDBRANCH   7   8
ENDBRANCH   4   7
ENDBRANCH   1   4
BRANCH   1  14
ATOM     14  C   UNL     1       5.717   4.199  18.525  0.00  0.00    +0.000 C 
BRANCH  14  15
ATOM     15  N   UNL     1       6.640   5.344  18.677  0.00  0.00    +0.000 N 
ATOM     16  C   UNL     1       7.528   5.478  19.822  0.00  0.00    +0.000 C 
ATOM     17  C   UNL     1       6.983   6.118  17.536  0.00  0.00    +0.000 C 
ATOM     18  O   UNL     1       7.824   7.008  17.539  0.00  0.00    +0.000 OA
BRANCH  17  19
ATOM     19  C   UNL     1       6.329   5.706  16.246  0.00  0.00    +0.000 C 
ATOM     20  C   UNL     1       7.339   5.004  15.320  0.00  0.00    +0.000 C 
ATOM     21  C   UNL     1       6.101   4.294  15.697  0.00  0.00    +0.000 C 
BRANCH  19  22
ATOM     22  C   UNL     1       5.182   6.617  15.824  0.00  0.00    +0.000 C 
ATOM     23  N   UNL     1       4.418   7.057  16.859  0.00  0.00    +0.000 N 
ATOM     24  O   UNL     1       4.993   6.900  14.671  0.00  0.00    +0.000 OA
ATOM     25  H   UNL     1       4.632   6.866  17.821  0.00  0.00    +0.000 HD
ATOM     26  H   UNL     1       3.704   7.746  16.649  0.00  0.00    +0.000 HD
ENDBRANCH  19  22
ENDBRANCH  17  19
ENDBRANCH  14  15
ENDBRANCH   1  14
TORSDOF 7
ENDMDL
MODEL 7
REMARK VINA RESULT:      -6.2      2.434      5.864
REMARK  Name = 
REMARK  11 active torsions:
REMARK  status: ('A' for Active; 'I' for Inactive)
REMARK    1  A    between atoms: C_1  and  C_2
REMARK    2  A    between atoms: C_2  and  N_3
REMARK    3  A    between atoms: C_2  and  C_18
REMARK    4  A    between atoms: N_3  and  C_4
REMARK    5  A    between atoms: C_4  and  C_5
REMARK    6  A    between atoms: C_4  and  C_6
REMARK    7  A    between atoms: C_4  and  C_7
REMARK    8  A    between atoms: C_7  and  N_8
REMARK    9  A    between atoms: N_8  and  C_9
REMARK   10  A    between atoms: C_10  and  C_12
REMARK   11  A    between atoms: C_12  and  C_13
REMARK                            x       y       z     vdW  Elec       q    Type
REMARK                         _______ _______ _______ _____ _____    ______ ____
ROOT
ATOM      1  C   UNL     1       3.715   5.949  18.108  0.00  0.00    +0.000 C 
ATOM      2  C   UNL     1       4.643   5.757  19.334  0.00  0.00    +0.000 C 
ATOM      3  C   UNL     1       3.651   7.474  17.870  0.00  0.00    +0.000 C 
ENDROOT
BRANCH   1   4
ATOM      4  N   UNL     1       4.264   5.274  16.901  0.00  0.00    +0.000 NA
ATOM      5  H   UNL     1       4.277   5.923  16.122  0.00  0.00    +0.000 HD
BRANCH   4   7
ATOM      6  C   UNL     1       5.826   3.683  15.667  0.00  0.00    +0.000 C 
ATOM      7  C   UNL     1       5.577   4.552  16.907  0.00  0.00    +0.000 C 
BRANCH   7   8
ATOM      8  C   UNL     1       6.764   5.449  17.279  0.00  0.00    +0.000 A 
ATOM      9  C   UNL     1       7.533   5.141  18.416  0.00  0.00    +0.000 A 
ATOM     10  C   UNL     1       8.264   6.143  19.061  0.00  0.00    +0.000 A 
ATOM     11  C   UNL     1       8.223   7.453  18.586  0.00  0.00    +0.000 A 
ATOM     12  C   UNL     1       7.602   7.728  17.373  0.00  0.00    +0.000 A 
ATOM     13  C   UNL     1       6.944   6.712  16.680  0.00  0.00    +0.000 A 
ENDBRANCH   7   8
ENDBRANCH   4   7
ENDBRANCH   1   4
BRANCH   1  14
ATOM     14  C   UNL     1       2.305   5.524  18.574  0.00  0.00    +0.000 C 
BRANCH  14  15
ATOM     15  N   UNL     1       1.951   5.200  19.973  0.00  0.00    +0.000 N 
ATOM     16  C   UNL     1       1.367   6.183  20.873  0.00  0.00    +0.000 C 
ATOM     17  C   UNL     1       1.788   3.841  20.353  0.00  0.00    +0.000 C 
ATOM     18  O   UNL     1       1.384   3.480  21.451  0.00  0.00    +0.000 OA
BRANCH  17  19
ATOM     19  C   UNL     1       2.029   2.826  19.270  0.00  0.00    +0.000 C 
ATOM     20  C   UNL     1       0.713   2.137  18.863  0.00  0.00    +0.000 C 
ATOM     21  C   UNL     1       1.511   2.823  17.828  0.00  0.00    +0.000 C 
BRANCH  19  22
ATOM     22  C   UNL     1       3.414   2.193  19.323  0.00  0.00    +0.000 C 
ATOM     23  N   UNL     1       4.035   2.323  20.526  0.00  0.00    +0.000 N 
ATOM     24  O   UNL     1       3.891   1.638  18.369  0.00  0.00    +0.000 OA
ATOM     25  H   UNL     1       3.593   2.730  21.331  0.00  0.00    +0.000 HD
ATOM     26  H   UNL     1       4.914   1.834  20.650  0.00  0.00    +0.000 HD
ENDBRANCH  19  22
ENDBRANCH  17  19
ENDBRANCH  14  15
ENDBRANCH   1  14
TORSDOF 7
ENDMDL
MODEL 8
REMARK VINA RESULT:      -6.2      2.517      6.609
REMARK  Name = 
REMARK  11 active torsions:
REMARK  status: ('A' for Active; 'I' for Inactive)
REMARK    1  A    between atoms: C_1  and  C_2
REMARK    2  A    between atoms: C_2  and  N_3
REMARK    3  A    between atoms: C_2  and  C_18
REMARK    4  A    between atoms: N_3  and  C_4
REMARK    5  A    between atoms: C_4  and  C_5
REMARK    6  A    between atoms: C_4  and  C_6
REMARK    7  A    between atoms: C_4  and  C_7
REMARK    8  A    between atoms: C_7  and  N_8
REMARK    9  A    between atoms: N_8  and  C_9
REMARK   10  A    between atoms: C_10  and  C_12
REMARK   11  A    between atoms: C_12  and  C_13
REMARK                            x       y       z     vdW  Elec       q    Type
REMARK                         _______ _______ _______ _____ _____    ______ ____
ROOT
ATOM      1  C   UNL     1       4.922   4.554  17.948  0.00  0.00    +0.000 C 
ATOM      2  C   UNL     1       5.018   3.017  17.779  0.00  0.00    +0.000 C 
ATOM      3  C   UNL     1       5.460   4.850  19.365  0.00  0.00    +0.000 C 
ENDROOT
BRANCH   1   4
ATOM      4  N   UNL     1       5.751   5.264  16.937  0.00  0.00    +0.000 NA
ATOM      5  H   UNL     1       6.667   4.832  16.880  0.00  0.00    +0.000 HD
BRANCH   4   7
ATOM      6  C   UNL     1       5.018   6.983  15.204  0.00  0.00    +0.000 C 
ATOM      7  C   UNL     1       5.282   5.508  15.535  0.00  0.00    +0.000 C 
BRANCH   7   8
ATOM      8  C   UNL     1       6.119   4.779  14.476  0.00  0.00    +0.000 A 
ATOM      9  C   UNL     1       7.331   5.347  14.043  0.00  0.00    +0.000 A 
ATOM     10  C   UNL     1       7.854   5.014  12.791  0.00  0.00    +0.000 A 
ATOM     11  C   UNL     1       7.169   4.126  11.962  0.00  0.00    +0.000 A 
ATOM     12  C   UNL     1       6.064   3.438  12.451  0.00  0.00    +0.000 A 
ATOM     13  C   UNL     1       5.589   3.704  13.736  0.00  0.00    +0.000 A 
ENDBRANCH   7   8
ENDBRANCH   4   7
ENDBRANCH   1   4
BRANCH   1  14
ATOM     14  C   UNL     1       3.413   4.882  17.979  0.00  0.00    +0.000 C 
BRANCH  14  15
ATOM     15  N   UNL     1       2.763   5.723  19.006  0.00  0.00    +0.000 N 
ATOM     16  C   UNL     1       2.572   7.155  18.831  0.00  0.00    +0.000 C 
ATOM     17  C   UNL     1       1.948   5.109  19.995  0.00  0.00    +0.000 C 
ATOM     18  O   UNL     1       1.278   5.727  20.812  0.00  0.00    +0.000 OA
BRANCH  17  19
ATOM     19  C   UNL     1       1.847   3.610  19.919  0.00  0.00    +0.000 C 
ATOM     20  C   UNL     1       0.477   3.182  19.360  0.00  0.00    +0.000 C 
ATOM     21  C   UNL     1       1.704   2.722  18.679  0.00  0.00    +0.000 C 
BRANCH  19  22
ATOM     22  C   UNL     1       2.667   2.888  20.981  0.00  0.00    +0.000 C 
ATOM     23  N   UNL     1       2.179   3.025  22.243  0.00  0.00    +0.000 N 
ATOM     24  O   UNL     1       3.654   2.263  20.699  0.00  0.00    +0.000 OA
ATOM     25  H   UNL     1       1.315   3.493  22.451  0.00  0.00    +0.000 HD
ATOM     26  H   UNL     1       2.625   2.484  22.974  0.00  0.00    +0.000 HD
ENDBRANCH  19  22
ENDBRANCH  17  19
ENDBRANCH  14  15
ENDBRANCH   1  14
TORSDOF 7
ENDMDL
MODEL 9
REMARK VINA RESULT:      -6.1      2.500      4.713
REMARK  Name = 
REMARK  11 active torsions:
REMARK  status: ('A' for Active; 'I' for Inactive)
REMARK    1  A    between atoms: C_1  and  C_2
REMARK    2  A    between atoms: C_2  and  N_3
REMARK    3  A    between atoms: C_2  and  C_18
REMARK    4  A    between atoms: N_3  and  C_4
REMARK    5  A    between atoms: C_4  and  C_5
REMARK    6  A    between atoms: C_4  and  C_6
REMARK    7  A    between atoms: C_4  and  C_7
REMARK    8  A    between atoms: C_7  and  N_8
REMARK    9  A    between atoms: N_8  and  C_9
REMARK   10  A    between atoms: C_10  and  C_12
REMARK   11  A    between atoms: C_12  and  C_13
REMARK                            x       y       z     vdW  Elec       q    Type
REMARK                         _______ _______ _______ _____ _____    ______ ____
ROOT
ATOM      1  C   UNL     1       2.474   6.590  18.870  0.00  0.00    +0.000 C 
ATOM      2  C   UNL     1       1.901   5.640  17.789  0.00  0.00    +0.000 C 
ATOM      3  C   UNL     1       3.538   7.446  18.149  0.00  0.00    +0.000 C 
ENDROOT
BRANCH   1   4
ATOM      4  N   UNL     1       1.416   7.471  19.434  0.00  0.00    +0.000 NA
ATOM      5  H   UNL     1       1.247   7.226  20.403  0.00  0.00    +0.000 HD
BRANCH   4   7
ATOM      6  C   UNL     1       0.849   9.560  18.088  0.00  0.00    +0.000 C 
ATOM      7  C   UNL     1       1.483   8.967  19.354  0.00  0.00    +0.000 C 
BRANCH   7   8
ATOM      8  C   UNL     1       1.049   9.666  20.648  0.00  0.00    +0.000 A 
ATOM      9  C   UNL     1       1.011   8.935  21.849  0.00  0.00    +0.000 A 
ATOM     10  C   UNL     1       0.186   9.351  22.897  0.00  0.00    +0.000 A 
ATOM     11  C   UNL     1      -0.610  10.487  22.751  0.00  0.00    +0.000 A 
ATOM     12  C   UNL     1      -0.452  11.302  21.635  0.00  0.00    +0.000 A 
ATOM     13  C   UNL     1       0.436  10.935  20.624  0.00  0.00    +0.000 A 
ENDBRANCH   7   8
ENDBRANCH   4   7
ENDBRANCH   1   4
BRANCH   1  14
ATOM     14  C   UNL     1       3.242   5.688  19.861  0.00  0.00    +0.000 C 
BRANCH  14  15
ATOM     15  N   UNL     1       4.276   4.707  19.467  0.00  0.00    +0.000 N 
ATOM     16  C   UNL     1       5.678   5.069  19.332  0.00  0.00    +0.000 C 
ATOM     17  C   UNL     1       4.008   3.319  19.609  0.00  0.00    +0.000 C 
ATOM     18  O   UNL     1       4.837   2.437  19.422  0.00  0.00    +0.000 OA
BRANCH  17  19
ATOM     19  C   UNL     1       2.642   2.967  20.133  0.00  0.00    +0.000 C 
ATOM     20  C   UNL     1       2.714   2.563  21.618  0.00  0.00    +0.000 C 
ATOM     21  C   UNL     1       1.824   3.671  21.220  0.00  0.00    +0.000 C 
BRANCH  19  22
ATOM     22  C   UNL     1       1.710   2.393  19.074  0.00  0.00    +0.000 C 
ATOM     23  N   UNL     1       2.342   1.653  18.125  0.00  0.00    +0.000 N 
ATOM     24  O   UNL     1       0.525   2.597  19.098  0.00  0.00    +0.000 OA
ATOM     25  H   UNL     1       3.322   1.436  18.159  0.00  0.00    +0.000 HD
ATOM     26  H   UNL     1       1.761   1.163  17.454  0.00  0.00    +0.000 HD
ENDBRANCH  19  22
ENDBRANCH  17  19
ENDBRANCH  14  15
ENDBRANCH   1  14
TORSDOF 7
ENDMDL
