MODEL 1
REMARK VINA RESULT:      -7.7      0.000      0.000
REMARK  Name = 
REMARK  9 active torsions:
REMARK  status: ('A' for Active; 'I' for Inactive)
REMARK    1  A    between atoms: C_1  and  C_2
REMARK    2  A    between atoms: C_2  and  C_3
REMARK    3  A    between atoms: C_2  and  C_14
REMARK    4  A    between atoms: C_3  and  N_4
REMARK    5  A    between atoms: C_5  and  C_7
REMARK    6  A    between atoms: C_8  and  C_9
REMARK    7  A    between atoms: C_8  and  C_10
REMARK    8  A    between atoms: C_11  and  C_12
REMARK    9  A    between atoms: C_11  and  C_13
REMARK                            x       y       z     vdW  Elec       q    Type
REMARK                         _______ _______ _______ _____ _____    ______ ____
ROOT
ATOM      1  N   UNL     1       5.689   4.019  17.729  0.00  0.00    +0.000 N 
ATOM      2  C   UNL     1       5.407   4.325  19.041  0.00  0.00    +0.000 C 
ATOM      3  O   UNL     1       6.097   5.073  19.720  0.00  0.00    +0.000 OA
ATOM      4  H   UNL     1       5.061   3.412  17.220  0.00  0.00    +0.000 HD
ENDROOT
BRANCH   2   5
ATOM      5  C   UNL     1       4.185   3.641  19.566  0.00  0.00    +0.000 C 
ATOM      6  C   UNL     1       2.910   4.409  19.927  0.00  0.00    +0.000 C 
ATOM      7  C   UNL     1       2.174   4.043  21.198  0.00  0.00    +0.000 C 
ATOM      8  C   UNL     1       2.818   5.896  19.640  0.00  0.00    +0.000 C 
ATOM      9  C   UNL     1       2.910   3.411  18.755  0.00  0.00    +0.000 C 
ATOM     10  C   UNL     1       2.752   3.932  17.342  0.00  0.00    +0.000 C 
ATOM     11  C   UNL     1       2.255   2.052  18.910  0.00  0.00    +0.000 C 
ENDBRANCH   2   5
BRANCH   1  12
ATOM     12  C   UNL     1       6.895   4.490  17.064  0.00  0.00    +0.000 C 
BRANCH  12  14
ATOM     13  C   UNL     1       5.273   6.176  16.062  0.00  0.00    +0.000 C 
ATOM     14  C   UNL     1       6.638   5.492  15.915  0.00  0.00    +0.000 C 
BRANCH  14  15
ATOM     15  C   UNL     1       6.706   4.862  14.527  0.00  0.00    +0.000 A 
ATOM     16  C   UNL     1       7.656   5.332  13.604  0.00  0.00    +0.000 A 
ATOM     17  C   UNL     1       7.685   4.847  12.294  0.00  0.00    +0.000 A 
ATOM     18  C   UNL     1       6.768   3.882  11.886  0.00  0.00    +0.000 A 
ATOM     19  C   UNL     1       5.827   3.398  12.789  0.00  0.00    +0.000 A 
ATOM     20  C   UNL     1       5.793   3.886  14.097  0.00  0.00    +0.000 A 
ENDBRANCH  14  15
ENDBRANCH  12  14
ENDBRANCH   1  12
TORSDOF 4
ENDMDL
MODEL 2
REMARK VINA RESULT:      -7.6      1.641      2.707
REMARK  Name = 
REMARK  9 active torsions:
REMARK  status: ('A' for Active; 'I' for Inactive)
REMARK    1  A    between atoms: C_1  and  C_2
REMARK    2  A    between atoms: C_2  and  C_3
REMARK    3  A    between atoms: C_2  and  C_14
REMARK    4  A    between atoms: C_3  and  N_4
REMARK    5  A    between atoms: C_5  and  C_7
REMARK    6  A    between atoms: C_8  and  C_9
REMARK    7  A    between atoms: C_8  and  C_10
REMARK    8  A    between atoms: C_11  and  C_12
REMARK    9  A    between atoms: C_11  and  C_13
REMARK                            x       y       z     vdW  Elec       q    Type
REMARK                         _______ _______ _______ _____ _____    ______ ____
ROOT
ATOM      1  N   UNL     1       5.504   5.533  19.437  0.00  0.00    +0.000 N 
ATOM      2  C   UNL     1       4.765   4.374  19.511  0.00  0.00    +0.000 C 
ATOM      3  O   UNL     1       5.265   3.265  19.641  0.00  0.00    +0.000 OA
ATOM      4  H   UNL     1       5.022   6.418  19.353  0.00  0.00    +0.000 HD
ENDROOT
BRANCH   2   5
ATOM      5  C   UNL     1       3.290   4.596  19.400  0.00  0.00    +0.000 C 
ATOM      6  C   UNL     1       2.487   4.161  18.171  0.00  0.00    +0.000 C 
ATOM      7  C   UNL     1       1.438   5.099  17.616  0.00  0.00    +0.000 C 
ATOM      8  C   UNL     1       3.167   3.370  17.068  0.00  0.00    +0.000 C 
ATOM      9  C   UNL     1       2.240   3.493  19.536  0.00  0.00    +0.000 C 
ATOM     10  C   UNL     1       2.621   2.041  19.728  0.00  0.00    +0.000 C 
ATOM     11  C   UNL     1       1.004   3.843  20.343  0.00  0.00    +0.000 C 
ENDBRANCH   2   5
BRANCH   1  12
ATOM     12  C   UNL     1       6.959   5.525  19.411  0.00  0.00    +0.000 C 
BRANCH  12  14
ATOM     13  C   UNL     1       7.721   7.489  17.981  0.00  0.00    +0.000 C 
ATOM     14  C   UNL     1       7.572   5.964  18.061  0.00  0.00    +0.000 C 
BRANCH  14  15
ATOM     15  C   UNL     1       6.773   5.500  16.846  0.00  0.00    +0.000 A 
ATOM     16  C   UNL     1       7.087   4.267  16.247  0.00  0.00    +0.000 A 
ATOM     17  C   UNL     1       6.443   3.854  15.077  0.00  0.00    +0.000 A 
ATOM     18  C   UNL     1       5.474   4.663  14.491  0.00  0.00    +0.000 A 
ATOM     19  C   UNL     1       5.144   5.882  15.076  0.00  0.00    +0.000 A 
ATOM     20  C   UNL     1       5.791   6.299  16.241  0.00  0.00    +0.000 A 
ENDBRANCH  14  15
ENDBRANCH  12  14
ENDBRANCH   1  12
TORSDOF 4
ENDMDL
MODEL 3
REMARK VINA RESULT:      -7.6      0.221      1.121
REMARK  Name = 
REMARK  9 active torsions:
REMARK  status: ('A' for Active; 'I' for Inactive)
REMARK    1  A    between atoms: C_1  and  C_2
REMARK    2  A    between atoms: C_2  and  C_3
REMARK    3  A    between atoms: C_2  and  C_14
REMARK    4  A    between atoms: C_3  and  N_4
REMARK    5  A    between atoms: C_5  and  C_7
REMARK    6  A    between atoms: C_8  and  C_9
REMARK    7  A    between atoms: C_8  and  C_10
REMARK    8  A    between atoms: C_11  and  C_12
REMARK    9  A    between atoms: C_11  and  C_13
REMARK                            x       y       z     vdW  Elec       q    Type
REMARK                         _______ _______ _______ _____ _____    ______ ____
ROOT
ATOM      1  N   UNL     1       5.686   4.010  17.763  0.00  0.00    +0.000 N 
ATOM      2  C   UNL     1       5.288   4.420  19.015  0.00  0.00    +0.000 C 
ATOM      3  O   UNL     1       5.842   5.317  19.636  0.00  0.00    +0.000 OA
ATOM      4  H   UNL     1       5.166   3.277  17.298  0.00  0.00    +0.000 HD
ENDROOT
BRANCH   2   5
ATOM      5  C   UNL     1       4.124   3.653  19.555  0.00  0.00    +0.000 C 
ATOM      6  C   UNL     1       2.832   4.338  20.010  0.00  0.00    +0.000 C 
ATOM      7  C   UNL     1       2.172   3.874  21.291  0.00  0.00    +0.000 C 
ATOM      8  C   UNL     1       2.659   5.832  19.805  0.00  0.00    +0.000 C 
ATOM      9  C   UNL     1       2.825   3.402  18.789  0.00  0.00    +0.000 C 
ATOM     10  C   UNL     1       2.580   3.984  17.413  0.00  0.00    +0.000 C 
ATOM     11  C   UNL     1       2.242   2.006  18.901  0.00  0.00    +0.000 C 
ENDBRANCH   2   5
BRANCH   1  12
ATOM     12  C   UNL     1       6.867   4.550  17.107  0.00  0.00    +0.000 C 
BRANCH  12  14
ATOM     13  C   UNL     1       5.217   6.281  16.235  0.00  0.00    +0.000 C 
ATOM     14  C   UNL     1       6.563   5.583  15.998  0.00  0.00    +0.000 C 
BRANCH  14  15
ATOM     15  C   UNL     1       6.549   4.987  14.593  0.00  0.00    +0.000 A 
ATOM     16  C   UNL     1       5.527   4.090  14.237  0.00  0.00    +0.000 A 
ATOM     17  C   UNL     1       5.535   3.451  12.995  0.00  0.00    +0.000 A 
ATOM     18  C   UNL     1       6.561   3.699  12.088  0.00  0.00    +0.000 A 
ATOM     19  C   UNL     1       7.575   4.592  12.420  0.00  0.00    +0.000 A 
ATOM     20  C   UNL     1       7.572   5.227  13.664  0.00  0.00    +0.000 A 
ENDBRANCH  14  15
ENDBRANCH  12  14
ENDBRANCH   1  12
TORSDOF 4
ENDMDL
MODEL 4
REMARK VINA RESULT:      -7.6      1.630      2.287
REMARK  Name = 
REMARK  9 active torsions:
REMARK  status: ('A' for Active; 'I' for Inactive)
REMARK    1  A    between atoms: C_1  and  C_2
REMARK    2  A    between atoms: C_2  and  C_3
REMARK    3  A    between atoms: C_2  and  C_14
REMARK    4  A    between atoms: C_3  and  N_4
REMARK    5  A    between atoms: C_5  and  C_7
REMARK    6  A    between atoms: C_8  and  C_9
REMARK    7  A    between atoms: C_8  and  C_10
REMARK    8  A    between atoms: C_11  and  C_12
REMARK    9  A    between atoms: C_11  and  C_13
REMARK                            x       y       z     vdW  Elec       q    Type
REMARK                         _______ _______ _______ _____ _____    ______ ____
ROOT
ATOM      1  N   UNL     1       5.989   4.652  19.392  0.00  0.00    +0.000 N 
ATOM      2  C   UNL     1       4.647   4.940  19.490  0.00  0.00    +0.000 C 
ATOM      3  O   UNL     1       4.207   6.080  19.554  0.00  0.00    +0.000 OA
ATOM      4  H   UNL     1       6.280   3.686  19.318  0.00  0.00    +0.000 HD
ENDROOT
BRANCH   2   5
ATOM      5  C   UNL     1       3.774   3.727  19.528  0.00  0.00    +0.000 C 
ATOM      6  C   UNL     1       2.364   3.751  20.125  0.00  0.00    +0.000 C 
ATOM      7  C   UNL     1       1.924   2.598  21.001  0.00  0.00    +0.000 C 
ATOM      8  C   UNL     1       1.765   5.065  20.592  0.00  0.00    +0.000 C 
ATOM      9  C   UNL     1       2.565   3.505  18.619  0.00  0.00    +0.000 C 
ATOM     10  C   UNL     1       2.100   4.553  17.631  0.00  0.00    +0.000 C 
ATOM     11  C   UNL     1       2.407   2.109  18.046  0.00  0.00    +0.000 C 
ENDBRANCH   2   5
BRANCH   1  12
ATOM     12  C   UNL     1       7.012   5.685  19.454  0.00  0.00    +0.000 C 
BRANCH  12  14
ATOM     13  C   UNL     1       7.805   7.572  17.940  0.00  0.00    +0.000 C 
ATOM     14  C   UNL     1       7.625   6.055  18.083  0.00  0.00    +0.000 C 
BRANCH  14  15
ATOM     15  C   UNL     1       6.807   5.560  16.893  0.00  0.00    +0.000 A 
ATOM     16  C   UNL     1       7.153   4.343  16.280  0.00  0.00    +0.000 A 
ATOM     17  C   UNL     1       6.490   3.905  15.131  0.00  0.00    +0.000 A 
ATOM     18  C   UNL     1       5.468   4.673  14.578  0.00  0.00    +0.000 A 
ATOM     19  C   UNL     1       5.106   5.875  15.179  0.00  0.00    +0.000 A 
ATOM     20  C   UNL     1       5.772   6.317  16.324  0.00  0.00    +0.000 A 
ENDBRANCH  14  15
ENDBRANCH  12  14
ENDBRANCH   1  12
TORSDOF 4
ENDMDL
MODEL 5
REMARK VINA RESULT:      -7.6      1.422      2.015
REMARK  Name = 
REMARK  9 active torsions:
REMARK  status: ('A' for Active; 'I' for Inactive)
REMARK    1  A    between atoms: C_1  and  C_2
REMARK    2  A    between atoms: C_2  and  C_3
REMARK    3  A    between atoms: C_2  and  C_14
REMARK    4  A    between atoms: C_3  and  N_4
REMARK    5  A    between atoms: C_5  and  C_7
REMARK    6  A    between atoms: C_8  and  C_9
REMARK    7  A    between atoms: C_8  and  C_10
REMARK    8  A    between atoms: C_11  and  C_12
REMARK    9  A    between atoms: C_11  and  C_13
REMARK                            x       y       z     vdW  Elec       q    Type
REMARK                         _______ _______ _______ _____ _____    ______ ____
ROOT
ATOM      1  N   UNL     1       4.958   3.871  17.937  0.00  0.00    +0.000 N 
ATOM      2  C   UNL     1       3.954   3.011  18.319  0.00  0.00    +0.000 C 
ATOM      3  O   UNL     1       3.722   1.954  17.749  0.00  0.00    +0.000 OA
ATOM      4  H   UNL     1       5.109   4.718  18.471  0.00  0.00    +0.000 HD
ENDROOT
BRANCH   2   5
ATOM      5  C   UNL     1       3.159   3.498  19.489  0.00  0.00    +0.000 C 
ATOM      6  C   UNL     1       2.097   4.592  19.358  0.00  0.00    +0.000 C 
ATOM      7  C   UNL     1       2.029   5.673  20.415  0.00  0.00    +0.000 C 
ATOM      8  C   UNL     1       1.736   5.133  17.986  0.00  0.00    +0.000 C 
ATOM      9  C   UNL     1       1.690   3.157  19.735  0.00  0.00    +0.000 C 
ATOM     10  C   UNL     1       0.881   2.336  18.754  0.00  0.00    +0.000 C 
ATOM     11  C   UNL     1       1.313   2.822  21.166  0.00  0.00    +0.000 C 
ENDBRANCH   2   5
BRANCH   1  12
ATOM     12  C   UNL     1       5.772   3.639  16.754  0.00  0.00    +0.000 C 
BRANCH  12  14
ATOM     13  C   UNL     1       5.074   5.998  16.103  0.00  0.00    +0.000 C 
ATOM     14  C   UNL     1       6.163   4.924  15.988  0.00  0.00    +0.000 C 
BRANCH  14  15
ATOM     15  C   UNL     1       6.445   4.690  14.506  0.00  0.00    +0.000 A 
ATOM     16  C   UNL     1       5.696   3.729  13.807  0.00  0.00    +0.000 A 
ATOM     17  C   UNL     1       5.991   3.419  12.476  0.00  0.00    +0.000 A 
ATOM     18  C   UNL     1       7.035   4.068  11.823  0.00  0.00    +0.000 A 
ATOM     19  C   UNL     1       7.781   5.030  12.498  0.00  0.00    +0.000 A 
ATOM     20  C   UNL     1       7.491   5.336  13.829  0.00  0.00    +0.000 A 
ENDBRANCH  14  15
ENDBRANCH  12  14
ENDBRANCH   1  12
TORSDOF 4
ENDMDL
MODEL 6
REMARK VINA RESULT:      -7.6      1.717      2.320
REMARK  Name = 
REMARK  9 active torsions:
REMARK  status: ('A' for Active; 'I' for Inactive)
REMARK    1  A    between atoms: C_1  and  C_2
REMARK    2  A    between atoms: C_2  and  C_3
REMARK    3  A    between atoms: C_2  and  C_14
REMARK    4  A    between atoms: C_3  and  N_4
REMARK    5  A    between atoms: C_5  and  C_7
REMARK    6  A    between atoms: C_8  and  C_9
REMARK    7  A    between atoms: C_8  and  C_10
REMARK    8  A    between atoms: C_11  and  C_12
REMARK    9  A    between atoms: C_11  and  C_13
REMARK                            x       y       z     vdW  Elec       q    Type
REMARK                         _______ _______ _______ _____ _____    ______ ____
ROOT
ATOM      1  N   UNL     1       6.084   4.646  19.353  0.00  0.00    +0.000 N 
ATOM      2  C   UNL     1       4.742   4.938  19.439  0.00  0.00    +0.000 C 
ATOM      3  O   UNL     1       4.306   6.077  19.526  0.00  0.00    +0.000 OA
ATOM      4  H   UNL     1       6.372   3.681  19.258  0.00  0.00    +0.000 HD
ENDROOT
BRANCH   2   5
ATOM      5  C   UNL     1       3.864   3.727  19.433  0.00  0.00    +0.000 C 
ATOM      6  C   UNL     1       2.460   3.731  20.045  0.00  0.00    +0.000 C 
ATOM      7  C   UNL     1       2.023   2.543  20.874  0.00  0.00    +0.000 C 
ATOM      8  C   UNL     1       1.872   5.026  20.574  0.00  0.00    +0.000 C 
ATOM      9  C   UNL     1       2.645   3.550  18.527  0.00  0.00    +0.000 C 
ATOM     10  C   UNL     1       2.176   4.642  17.590  0.00  0.00    +0.000 C 
ATOM     11  C   UNL     1       2.475   2.181  17.896  0.00  0.00    +0.000 C 
ENDBRANCH   2   5
BRANCH   1  12
ATOM     12  C   UNL     1       7.110   5.673  19.455  0.00  0.00    +0.000 C 
BRANCH  12  14
ATOM     13  C   UNL     1       7.870   7.616  17.997  0.00  0.00    +0.000 C 
ATOM     14  C   UNL     1       7.728   6.092  18.101  0.00  0.00    +0.000 C 
BRANCH  14  15
ATOM     15  C   UNL     1       6.937   5.604  16.891  0.00  0.00    +0.000 A 
ATOM     16  C   UNL     1       5.911   6.411  16.369  0.00  0.00    +0.000 A 
ATOM     17  C   UNL     1       5.103   5.957  15.324  0.00  0.00    +0.000 A 
ATOM     18  C   UNL     1       5.308   4.691  14.781  0.00  0.00    +0.000 A 
ATOM     19  C   UNL     1       6.325   3.883  15.279  0.00  0.00    +0.000 A 
ATOM     20  C   UNL     1       7.130   4.333  16.328  0.00  0.00    +0.000 A 
ENDBRANCH  14  15
ENDBRANCH  12  14
ENDBRANCH   1  12
TORSDOF 4
ENDMDL
MODEL 7
REMARK VINA RESULT:      -7.6      1.732      2.477
REMARK  Name = 
REMARK  9 active torsions:
REMARK  status: ('A' for Active; 'I' for Inactive)
REMARK    1  A    between atoms: C_1  and  C_2
REMARK    2  A    between atoms: C_2  and  C_3
REMARK    3  A    between atoms: C_2  and  C_14
REMARK    4  A    between atoms: C_3  and  N_4
REMARK    5  A    between atoms: C_5  and  C_7
REMARK    6  A    between atoms: C_8  and  C_9
REMARK    7  A    between atoms: C_8  and  C_10
REMARK    8  A    between atoms: C_11  and  C_12
REMARK    9  A    between atoms: C_11  and  C_13
REMARK                            x       y       z     vdW  Elec       q    Type
REMARK                         _______ _______ _______ _____ _____    ______ ____
ROOT
ATOM      1  N   UNL     1       5.736   4.610  19.409  0.00  0.00    +0.000 N 
ATOM      2  C   UNL     1       4.385   4.851  19.504  0.00  0.00    +0.000 C 
ATOM      3  O   UNL     1       3.909   5.972  19.626  0.00  0.00    +0.000 OA
ATOM      4  H   UNL     1       6.058   3.659  19.285  0.00  0.00    +0.000 HD
ENDROOT
BRANCH   2   5
ATOM      5  C   UNL     1       3.550   3.611  19.461  0.00  0.00    +0.000 C 
ATOM      6  C   UNL     1       2.216   3.549  18.711  0.00  0.00    +0.000 C 
ATOM      7  C   UNL     1       1.044   2.849  19.366  0.00  0.00    +0.000 C 
ATOM      8  C   UNL     1       1.762   4.734  17.879  0.00  0.00    +0.000 C 
ATOM      9  C   UNL     1       3.413   2.706  18.237  0.00  0.00    +0.000 C 
ATOM     10  C   UNL     1       4.073   3.038  16.915  0.00  0.00    +0.000 C 
ATOM     11  C   UNL     1       3.449   1.213  18.503  0.00  0.00    +0.000 C 
ENDBRANCH   2   5
BRANCH   1  12
ATOM     12  C   UNL     1       6.725   5.669  19.544  0.00  0.00    +0.000 C 
BRANCH  12  14
ATOM     13  C   UNL     1       8.065   7.365  18.200  0.00  0.00    +0.000 C 
ATOM     14  C   UNL     1       7.570   5.915  18.273  0.00  0.00    +0.000 C 
BRANCH  14  15
ATOM     15  C   UNL     1       6.830   5.599  16.976  0.00  0.00    +0.000 A 
ATOM     16  C   UNL     1       7.288   4.549  16.162  0.00  0.00    +0.000 A 
ATOM     17  C   UNL     1       6.696   4.292  14.922  0.00  0.00    +0.000 A 
ATOM     18  C   UNL     1       5.636   5.077  14.478  0.00  0.00    +0.000 A 
ATOM     19  C   UNL     1       5.164   6.115  15.276  0.00  0.00    +0.000 A 
ATOM     20  C   UNL     1       5.758   6.377  16.513  0.00  0.00    +0.000 A 
ENDBRANCH  14  15
ENDBRANCH  12  14
ENDBRANCH   1  12
TORSDOF 4
ENDMDL
MODEL 8
REMARK VINA RESULT:      -7.5      1.416      1.704
REMARK  Name = 
REMARK  9 active torsions:
REMARK  status: ('A' for Active; 'I' for Inactive)
REMARK    1  A    between atoms: C_1  and  C_2
REMARK    2  A    between atoms: C_2  and  C_3
REMARK    3  A    between atoms: C_2  and  C_14
REMARK    4  A    between atoms: C_3  and  N_4
REMARK    5  A    between atoms: C_5  and  C_7
REMARK    6  A    between atoms: C_8  and  C_9
REMARK    7  A    between atoms: C_8  and  C_10
REMARK    8  A    between atoms: C_11  and  C_12
REMARK    9  A    between atoms: C_11  and  C_13
REMARK                            x       y       z     vdW  Elec       q    Type
REMARK                         _______ _______ _______ _____ _____    ______ ____
ROOT
ATOM      1  N   UNL     1       4.982   3.866  18.004  0.00  0.00    +0.000 N 
ATOM      2  C   UNL     1       3.960   3.025  18.380  0.00  0.00    +0.000 C 
ATOM      3  O   UNL     1       3.723   1.963  17.820  0.00  0.00    +0.000 OA
ATOM      4  H   UNL     1       5.135   4.718  18.527  0.00  0.00    +0.000 HD
ENDROOT
BRANCH   2   5
ATOM      5  C   UNL     1       3.151   3.539  19.528  0.00  0.00    +0.000 C 
ATOM      6  C   UNL     1       2.094   4.634  19.359  0.00  0.00    +0.000 C 
ATOM      7  C   UNL     1       2.016   5.737  20.392  0.00  0.00    +0.000 C 
ATOM      8  C   UNL     1       1.753   5.145  17.971  0.00  0.00    +0.000 C 
ATOM      9  C   UNL     1       1.678   3.208  19.762  0.00  0.00    +0.000 C 
ATOM     10  C   UNL     1       0.879   2.368  18.788  0.00  0.00    +0.000 C 
ATOM     11  C   UNL     1       1.280   2.905  21.194  0.00  0.00    +0.000 C 
ENDBRANCH   2   5
BRANCH   1  12
ATOM     12  C   UNL     1       5.814   3.605  16.839  0.00  0.00    +0.000 C 
BRANCH  12  14
ATOM     13  C   UNL     1       5.069   5.912  16.062  0.00  0.00    +0.000 C 
ATOM     14  C   UNL     1       6.193   4.869  16.033  0.00  0.00    +0.000 C 
BRANCH  14  15
ATOM     15  C   UNL     1       6.538   4.582  14.573  0.00  0.00    +0.000 A 
ATOM     16  C   UNL     1       7.537   5.343  13.941  0.00  0.00    +0.000 A 
ATOM     17  C   UNL     1       7.813   5.175  12.582  0.00  0.00    +0.000 A 
ATOM     18  C   UNL     1       7.099   4.244  11.833  0.00  0.00    +0.000 A 
ATOM     19  C   UNL     1       6.113   3.475  12.446  0.00  0.00    +0.000 A 
ATOM     20  C   UNL     1       5.832   3.646  13.803  0.00  0.00    +0.000 A 
ENDBRANCH  14  15
ENDBRANCH  12  14
ENDBRANCH   1  12
TORSDOF 4
ENDMDL
MODEL 9
REMARK VINA RESULT:      -7.5      1.649      2.610
REMARK  Name = 
REMARK  9 active torsions:
REMARK  status: ('A' for Active; 'I' for Inactive)
REMARK    1  A    between atoms: C_1  and  C_2
REMARK    2  A    between atoms: C_2  and  C_3
REMARK    3  A    between atoms: C_2  and  C_14
REMARK    4  A    between atoms: C_3  and  N_4
REMARK    5  A    between atoms: C_5  and  C_7
REMARK    6  A    between atoms: C_8  and  C_9
REMARK    7  A    between atoms: C_8  and  C_10
REMARK    8  A    between atoms: C_11  and  C_12
REMARK    9  A    between atoms: C_11  and  C_13
REMARK                            x       y       z     vdW  Elec       q    Type
REMARK                         _______ _______ _______ _____ _____    ______ ____
ROOT
ATOM      1  N   UNL     1       5.241   4.930  19.129  0.00  0.00    +0.000 N 
ATOM      2  C   UNL     1       4.660   3.715  19.410  0.00  0.00    +0.000 C 
ATOM      3  O   UNL     1       5.223   2.830  20.040  0.00  0.00    +0.000 OA
ATOM      4  H   UNL     1       4.707   5.625  18.623  0.00  0.00    +0.000 HD
ENDROOT
BRANCH   2   5
ATOM      5  C   UNL     1       3.279   3.569  18.857  0.00  0.00    +0.000 C 
ATOM      6  C   UNL     1       2.038   3.527  19.753  0.00  0.00    +0.000 C 
ATOM      7  C   UNL     1       0.952   2.519  19.449  0.00  0.00    +0.000 C 
ATOM      8  C   UNL     1       2.179   3.760  21.247  0.00  0.00    +0.000 C 
ATOM      9  C   UNL     1       2.255   4.701  18.782  0.00  0.00    +0.000 C 
ATOM     10  C   UNL     1       2.540   6.079  19.340  0.00  0.00    +0.000 C 
ATOM     11  C   UNL     1       1.449   4.790  17.500  0.00  0.00    +0.000 C 
ENDBRANCH   2   5
BRANCH   1  12
ATOM     12  C   UNL     1       6.621   5.231  19.479  0.00  0.00    +0.000 C 
BRANCH  12  14
ATOM     13  C   UNL     1       7.914   7.106  18.343  0.00  0.00    +0.000 C 
ATOM     14  C   UNL     1       7.510   5.628  18.278  0.00  0.00    +0.000 C 
BRANCH  14  15
ATOM     15  C   UNL     1       6.856   5.373  16.923  0.00  0.00    +0.000 A 
ATOM     16  C   UNL     1       5.911   6.291  16.431  0.00  0.00    +0.000 A 
ATOM     17  C   UNL     1       5.221   6.043  15.242  0.00  0.00    +0.000 A 
ATOM     18  C   UNL     1       5.466   4.876  14.523  0.00  0.00    +0.000 A 
ATOM     19  C   UNL     1       6.405   3.961  14.990  0.00  0.00    +0.000 A 
ATOM     20  C   UNL     1       7.091   4.205  16.181  0.00  0.00    +0.000 A 
ENDBRANCH  14  15
ENDBRANCH  12  14
ENDBRANCH   1  12
TORSDOF 4
ENDMDL
