MODEL 1
REMARK VINA RESULT:      -8.1      0.000      0.000
REMARK  Name = 
REMARK  2 active torsions:
REMARK  status: ('A' for Active; 'I' for Inactive)
REMARK    1  A    between atoms: C_1  and  C_2
REMARK    2  A    between atoms: C_12  and  C_13
REMARK                            x       y       z     vdW  Elec       q    Type
REMARK                         _______ _______ _______ _____ _____    ______ ____
ROOT
ATOM      1  C   UNL     1       6.162   5.333  18.670  0.00  0.00    +0.000 C 
ATOM      2  C   UNL     1       5.038   4.508  19.155  0.00  0.00    +0.000 A 
ATOM      3  N   UNL     1       5.047   3.202  19.330  0.00  0.00    +0.000 NA
ATOM      4  N   UNL     1       3.829   2.828  19.843  0.00  0.00    +0.000 NA
ATOM      5  C   UNL     1       3.105   3.917  19.974  0.00  0.00    +0.000 A 
ATOM      6  C   UNL     1       1.810   4.131  20.467  0.00  0.00    +0.000 A 
ATOM      7  C   UNL     1       1.344   5.381  20.510  0.00  0.00    +0.000 A 
ATOM      8  C   UNL     1       2.205   6.513  20.018  0.00  0.00    +0.000 A 
ATOM      9  N   UNL     1       1.652   7.777  20.111  0.00  0.00    +0.000 N 
ATOM     10  C   UNL     1       1.281   8.316  21.422  0.00  0.00    +0.000 C 
ATOM     11  C   UNL     1      -0.081   8.992  21.292  0.00  0.00    +0.000 C 
ATOM     12  C   UNL     1      -0.075  10.074  20.197  0.00  0.00    +0.000 C 
ATOM     13  C   UNL     1       0.503   9.514  18.882  0.00  0.00    +0.000 C 
ATOM     14  C   UNL     1       1.847   8.799  19.088  0.00  0.00    +0.000 C 
ATOM     15  N   UNL     1       3.396   6.327  19.509  0.00  0.00    +0.000 NA
ATOM     16  N   UNL     1       3.812   5.016  19.531  0.00  0.00    +0.000 N 
ENDROOT
BRANCH  12  17
ATOM     17  C   UNL     1       0.681  11.319  20.670  0.00  0.00    +0.000 C 
ATOM     18  O   UNL     1       0.639  11.675  21.843  0.00  0.00    +0.000 OA
ATOM     19  N   UNL     1       1.328  11.978  19.649  0.00  0.00    +0.000 N 
ATOM     20  C   UNL     1       2.101  13.079  19.896  0.00  0.00    +0.000 A 
ATOM     21  N   UNL     1       2.531  13.543  21.040  0.00  0.00    +0.000 NA
ATOM     22  C   UNL     1       3.240  14.705  20.826  0.00  0.00    +0.000 A 
ATOM     23  C   UNL     1       3.340  15.102  19.509  0.00  0.00    +0.000 A 
ATOM     24  S   UNL     1       2.559  13.951  18.502  0.00  0.00    +0.000 S 
ATOM     25  H   UNL     1       1.149  11.754  18.683  0.00  0.00    +0.000 HD
ENDBRANCH  12  17
TORSDOF 1
ENDMDL
MODEL 2
REMARK VINA RESULT:      -8.1      2.756      4.207
REMARK  Name = 
REMARK  2 active torsions:
REMARK  status: ('A' for Active; 'I' for Inactive)
REMARK    1  A    between atoms: C_1  and  C_2
REMARK    2  A    between atoms: C_12  and  C_13
REMARK                            x       y       z     vdW  Elec       q    Type
REMARK                         _______ _______ _______ _____ _____    ______ ____
ROOT
ATOM      1  C   UNL     1       1.877   2.866  21.403  0.00  0.00    +0.000 C 
ATOM      2  C   UNL     1       3.029   3.217  20.550  0.00  0.00    +0.000 A 
ATOM      3  N   UNL     1       4.018   2.417  20.207  0.00  0.00    +0.000 NA
ATOM      4  N   UNL     1       4.856   3.107  19.364  0.00  0.00    +0.000 NA
ATOM      5  C   UNL     1       4.355   4.312  19.209  0.00  0.00    +0.000 A 
ATOM      6  C   UNL     1       4.773   5.412  18.447  0.00  0.00    +0.000 A 
ATOM      7  C   UNL     1       4.024   6.518  18.462  0.00  0.00    +0.000 A 
ATOM      8  C   UNL     1       2.774   6.558  19.300  0.00  0.00    +0.000 A 
ATOM      9  N   UNL     1       2.049   7.735  19.246  0.00  0.00    +0.000 N 
ATOM     10  C   UNL     1       1.493   8.191  17.971  0.00  0.00    +0.000 C 
ATOM     11  C   UNL     1       1.737   9.693  17.853  0.00  0.00    +0.000 C 
ATOM     12  C   UNL     1       1.150  10.458  19.053  0.00  0.00    +0.000 C 
ATOM     13  C   UNL     1       1.611   9.825  20.381  0.00  0.00    +0.000 C 
ATOM     14  C   UNL     1       1.388   8.305  20.415  0.00  0.00    +0.000 C 
ATOM     15  N   UNL     1       2.396   5.559  20.055  0.00  0.00    +0.000 NA
ATOM     16  N   UNL     1       3.203   4.450  19.957  0.00  0.00    +0.000 N 
ENDROOT
BRANCH  12  17
ATOM     17  C   UNL     1      -0.375  10.534  18.954  0.00  0.00    +0.000 C 
ATOM     18  O   UNL     1      -1.079  10.415  19.952  0.00  0.00    +0.000 OA
ATOM     19  N   UNL     1      -0.826  10.687  17.662  0.00  0.00    +0.000 N 
ATOM     20  C   UNL     1      -2.158  10.831  17.390  0.00  0.00    +0.000 A 
ATOM     21  N   UNL     1      -3.146  11.064  18.214  0.00  0.00    +0.000 NA
ATOM     22  C   UNL     1      -4.332  11.086  17.513  0.00  0.00    +0.000 A 
ATOM     23  C   UNL     1      -4.221  10.871  16.155  0.00  0.00    +0.000 A 
ATOM     24  S   UNL     1      -2.565  10.685  15.739  0.00  0.00    +0.000 S 
ATOM     25  H   UNL     1      -0.210  10.566  16.873  0.00  0.00    +0.000 HD
ENDBRANCH  12  17
TORSDOF 1
ENDMDL
MODEL 3
REMARK VINA RESULT:      -7.7      5.204      6.168
REMARK  Name = 
REMARK  2 active torsions:
REMARK  status: ('A' for Active; 'I' for Inactive)
REMARK    1  A    between atoms: C_1  and  C_2
REMARK    2  A    between atoms: C_12  and  C_13
REMARK                            x       y       z     vdW  Elec       q    Type
REMARK                         _______ _______ _______ _____ _____    ______ ____
ROOT
ATOM      1  C   UNL     1       2.284   2.828  21.994  0.00  0.00    +0.000 C 
ATOM      2  C   UNL     1       1.693   2.864  20.641  0.00  0.00    +0.000 A 
ATOM      3  N   UNL     1       0.510   2.399  20.293  0.00  0.00    +0.000 NA
ATOM      4  N   UNL     1       0.314   2.675  18.962  0.00  0.00    +0.000 NA
ATOM      5  C   UNL     1       1.381   3.308  18.529  0.00  0.00    +0.000 A 
ATOM      6  C   UNL     1       1.712   3.845  17.276  0.00  0.00    +0.000 A 
ATOM      7  C   UNL     1       2.881   4.476  17.144  0.00  0.00    +0.000 A 
ATOM      8  C   UNL     1       3.809   4.579  18.323  0.00  0.00    +0.000 A 
ATOM      9  N   UNL     1       4.991   5.262  18.103  0.00  0.00    +0.000 N 
ATOM     10  C   UNL     1       4.956   6.671  17.708  0.00  0.00    +0.000 C 
ATOM     11  C   UNL     1       5.979   6.879  16.594  0.00  0.00    +0.000 C 
ATOM     12  C   UNL     1       7.387   6.430  17.025  0.00  0.00    +0.000 C 
ATOM     13  C   UNL     1       7.346   5.006  17.613  0.00  0.00    +0.000 C 
ATOM     14  C   UNL     1       6.261   4.846  18.690  0.00  0.00    +0.000 C 
ATOM     15  N   UNL     1       3.540   4.041  19.485  0.00  0.00    +0.000 NA
ATOM     16  N   UNL     1       2.304   3.439  19.547  0.00  0.00    +0.000 N 
ENDROOT
BRANCH  12  17
ATOM     17  C   UNL     1       8.002   7.435  18.001  0.00  0.00    +0.000 C 
ATOM     18  O   UNL     1       8.403   7.080  19.104  0.00  0.00    +0.000 OA
ATOM     19  N   UNL     1       7.994   8.726  17.523  0.00  0.00    +0.000 N 
ATOM     20  C   UNL     1       8.556   9.748  18.237  0.00  0.00    +0.000 A 
ATOM     21  N   UNL     1       9.335   9.689  19.284  0.00  0.00    +0.000 NA
ATOM     22  C   UNL     1       9.629  10.967  19.709  0.00  0.00    +0.000 A 
ATOM     23  C   UNL     1       9.064  11.982  18.966  0.00  0.00    +0.000 A 
ATOM     24  S   UNL     1       8.176  11.309  17.660  0.00  0.00    +0.000 S 
ATOM     25  H   UNL     1       7.462   8.980  16.705  0.00  0.00    +0.000 HD
ENDBRANCH  12  17
TORSDOF 1
ENDMDL
MODEL 4
REMARK VINA RESULT:      -7.6      1.358      1.440
REMARK  Name = 
REMARK  2 active torsions:
REMARK  status: ('A' for Active; 'I' for Inactive)
REMARK    1  A    between atoms: C_1  and  C_2
REMARK    2  A    between atoms: C_12  and  C_13
REMARK                            x       y       z     vdW  Elec       q    Type
REMARK                         _______ _______ _______ _____ _____    ______ ____
ROOT
ATOM      1  C   UNL     1       6.092   4.577  18.414  0.00  0.00    +0.000 C 
ATOM      2  C   UNL     1       4.945   4.042  19.175  0.00  0.00    +0.000 A 
ATOM      3  N   UNL     1       4.855   2.840  19.708  0.00  0.00    +0.000 NA
ATOM      4  N   UNL     1       3.657   2.754  20.375  0.00  0.00    +0.000 NA
ATOM      5  C   UNL     1       3.046   3.909  20.239  0.00  0.00    +0.000 A 
ATOM      6  C   UNL     1       1.822   4.389  20.727  0.00  0.00    +0.000 A 
ATOM      7  C   UNL     1       1.473   5.647  20.445  0.00  0.00    +0.000 A 
ATOM      8  C   UNL     1       2.385   6.501  19.607  0.00  0.00    +0.000 A 
ATOM      9  N   UNL     1       1.955   7.795  19.375  0.00  0.00    +0.000 N 
ATOM     10  C   UNL     1       1.748   8.707  20.502  0.00  0.00    +0.000 C 
ATOM     11  C   UNL     1       0.445   9.466  20.268  0.00  0.00    +0.000 C 
ATOM     12  C   UNL     1       0.452  10.202  18.916  0.00  0.00    +0.000 C 
ATOM     13  C   UNL     1       0.862   9.246  17.778  0.00  0.00    +0.000 C 
ATOM     14  C   UNL     1       2.151   8.472  18.097  0.00  0.00    +0.000 C 
ATOM     15  N   UNL     1       3.506   6.055  19.101  0.00  0.00    +0.000 NA
ATOM     16  N   UNL     1       3.807   4.763  19.465  0.00  0.00    +0.000 N 
ENDROOT
BRANCH  12  17
ATOM     17  C   UNL     1       1.352  11.439  18.976  0.00  0.00    +0.000 C 
ATOM     18  O   UNL     1       2.324  11.549  18.236  0.00  0.00    +0.000 OA
ATOM     19  N   UNL     1       0.978  12.332  19.955  0.00  0.00    +0.000 N 
ATOM     20  C   UNL     1       1.633  13.521  20.116  0.00  0.00    +0.000 A 
ATOM     21  N   UNL     1       2.494  14.100  19.321  0.00  0.00    +0.000 NA
ATOM     22  C   UNL     1       2.940  15.268  19.901  0.00  0.00    +0.000 A 
ATOM     23  C   UNL     1       2.400  15.558  21.136  0.00  0.00    +0.000 A 
ATOM     24  S   UNL     1       1.256  14.349  21.560  0.00  0.00    +0.000 S 
ATOM     25  H   UNL     1       0.303  12.083  20.663  0.00  0.00    +0.000 HD
ENDBRANCH  12  17
TORSDOF 1
ENDMDL
MODEL 5
REMARK VINA RESULT:      -7.6      2.894      4.228
REMARK  Name = 
REMARK  2 active torsions:
REMARK  status: ('A' for Active; 'I' for Inactive)
REMARK    1  A    between atoms: C_1  and  C_2
REMARK    2  A    between atoms: C_12  and  C_13
REMARK                            x       y       z     vdW  Elec       q    Type
REMARK                         _______ _______ _______ _____ _____    ______ ____
ROOT
ATOM      1  C   UNL     1       1.509   2.822  19.028  0.00  0.00    +0.000 C 
ATOM      2  C   UNL     1       2.708   3.403  18.392  0.00  0.00    +0.000 A 
ATOM      3  N   UNL     1       3.690   2.735  17.821  0.00  0.00    +0.000 NA
ATOM      4  N   UNL     1       4.583   3.641  17.304  0.00  0.00    +0.000 NA
ATOM      5  C   UNL     1       4.123   4.843  17.568  0.00  0.00    +0.000 A 
ATOM      6  C   UNL     1       4.605   6.123  17.258  0.00  0.00    +0.000 A 
ATOM      7  C   UNL     1       3.886   7.183  17.638  0.00  0.00    +0.000 A 
ATOM      8  C   UNL     1       2.601   6.978  18.394  0.00  0.00    +0.000 A 
ATOM      9  N   UNL     1       1.911   8.127  18.735  0.00  0.00    +0.000 N 
ATOM     10  C   UNL     1       1.426   9.025  17.685  0.00  0.00    +0.000 C 
ATOM     11  C   UNL     1       1.716  10.461  18.114  0.00  0.00    +0.000 C 
ATOM     12  C   UNL     1       1.096  10.779  19.486  0.00  0.00    +0.000 C 
ATOM     13  C   UNL     1       1.479   9.701  20.519  0.00  0.00    +0.000 C 
ATOM     14  C   UNL     1       1.214   8.277  20.008  0.00  0.00    +0.000 C 
ATOM     15  N   UNL     1       2.162   5.793  18.735  0.00  0.00    +0.000 NA
ATOM     16  N   UNL     1       2.942   4.757  18.279  0.00  0.00    +0.000 N 
ENDROOT
BRANCH  12  17
ATOM     17  C   UNL     1      -0.421  10.948  19.370  0.00  0.00    +0.000 C 
ATOM     18  O   UNL     1      -1.126  11.024  20.371  0.00  0.00    +0.000 OA
ATOM     19  N   UNL     1      -0.866  10.945  18.067  0.00  0.00    +0.000 N 
ATOM     20  C   UNL     1      -2.186  11.142  17.771  0.00  0.00    +0.000 A 
ATOM     21  N   UNL     1      -3.150  11.561  18.547  0.00  0.00    +0.000 NA
ATOM     22  C   UNL     1      -4.336  11.566  17.845  0.00  0.00    +0.000 A 
ATOM     23  C   UNL     1      -4.247  11.151  16.533  0.00  0.00    +0.000 A 
ATOM     24  S   UNL     1      -2.611  10.790  16.155  0.00  0.00    +0.000 S 
ATOM     25  H   UNL     1      -0.264  10.668  17.307  0.00  0.00    +0.000 HD
ENDBRANCH  12  17
TORSDOF 1
ENDMDL
MODEL 6
REMARK VINA RESULT:      -7.5      1.481      1.590
REMARK  Name = 
REMARK  2 active torsions:
REMARK  status: ('A' for Active; 'I' for Inactive)
REMARK    1  A    between atoms: C_1  and  C_2
REMARK    2  A    between atoms: C_12  and  C_13
REMARK                            x       y       z     vdW  Elec       q    Type
REMARK                         _______ _______ _______ _____ _____    ______ ____
ROOT
ATOM      1  C   UNL     1       6.528   6.272  16.623  0.00  0.00    +0.000 C 
ATOM      2  C   UNL     1       5.477   5.280  16.924  0.00  0.00    +0.000 A 
ATOM      3  N   UNL     1       5.555   3.979  16.733  0.00  0.00    +0.000 NA
ATOM      4  N   UNL     1       4.392   3.407  17.190  0.00  0.00    +0.000 NA
ATOM      5  C   UNL     1       3.633   4.374  17.654  0.00  0.00    +0.000 A 
ATOM      6  C   UNL     1       2.367   4.368  18.256  0.00  0.00    +0.000 A 
ATOM      7  C   UNL     1       1.852   5.529  18.666  0.00  0.00    +0.000 A 
ATOM      8  C   UNL     1       2.627   6.802  18.457  0.00  0.00    +0.000 A 
ATOM      9  N   UNL     1       2.028   7.958  18.924  0.00  0.00    +0.000 N 
ATOM     10  C   UNL     1       1.726   8.097  20.351  0.00  0.00    +0.000 C 
ATOM     11  C   UNL     1       0.330   8.700  20.486  0.00  0.00    +0.000 C 
ATOM     12  C   UNL     1       0.214  10.037  19.732  0.00  0.00    +0.000 C 
ATOM     13  C   UNL     1       0.723   9.890  18.284  0.00  0.00    +0.000 C 
ATOM     14  C   UNL     1       2.108   9.228  18.212  0.00  0.00    +0.000 C 
ATOM     15  N   UNL     1       3.787   6.833  17.852  0.00  0.00    +0.000 NA
ATOM     16  N   UNL     1       4.260   5.593  17.492  0.00  0.00    +0.000 N 
ENDROOT
BRANCH  12  17
ATOM     17  C   UNL     1       0.946  11.150  20.486  0.00  0.00    +0.000 C 
ATOM     18  O   UNL     1       1.116  11.084  21.698  0.00  0.00    +0.000 OA
ATOM     19  N   UNL     1       1.315  12.200  19.675  0.00  0.00    +0.000 N 
ATOM     20  C   UNL     1       2.029  13.256  20.167  0.00  0.00    +0.000 A 
ATOM     21  N   UNL     1       2.645  13.371  21.314  0.00  0.00    +0.000 NA
ATOM     22  C   UNL     1       3.198  14.629  21.414  0.00  0.00    +0.000 A 
ATOM     23  C   UNL     1       2.994  15.453  20.327  0.00  0.00    +0.000 A 
ATOM     24  S   UNL     1       2.120  14.601  19.118  0.00  0.00    +0.000 S 
ATOM     25  H   UNL     1       0.961  12.287  18.734  0.00  0.00    +0.000 HD
ENDBRANCH  12  17
TORSDOF 1
ENDMDL
MODEL 7
REMARK VINA RESULT:      -7.3      0.961      1.011
REMARK  Name = 
REMARK  2 active torsions:
REMARK  status: ('A' for Active; 'I' for Inactive)
REMARK    1  A    between atoms: C_1  and  C_2
REMARK    2  A    between atoms: C_12  and  C_13
REMARK                            x       y       z     vdW  Elec       q    Type
REMARK                         _______ _______ _______ _____ _____    ______ ____
ROOT
ATOM      1  C   UNL     1       5.399   6.565  17.387  0.00  0.00    +0.000 C 
ATOM      2  C   UNL     1       4.619   5.588  18.173  0.00  0.00    +0.000 A 
ATOM      3  N   UNL     1       4.854   4.295  18.266  0.00  0.00    +0.000 NA
ATOM      4  N   UNL     1       3.937   3.752  19.133  0.00  0.00    +0.000 NA
ATOM      5  C   UNL     1       3.166   4.729  19.554  0.00  0.00    +0.000 A 
ATOM      6  C   UNL     1       2.095   4.758  20.458  0.00  0.00    +0.000 A 
ATOM      7  C   UNL     1       1.513   5.931  20.718  0.00  0.00    +0.000 A 
ATOM      8  C   UNL     1       2.006   7.175  20.029  0.00  0.00    +0.000 A 
ATOM      9  N   UNL     1       1.358   8.349  20.367  0.00  0.00    +0.000 N 
ATOM     10  C   UNL     1       1.383   8.823  21.753  0.00  0.00    +0.000 C 
ATOM     11  C   UNL     1      -0.019   9.304  22.117  0.00  0.00    +0.000 C 
ATOM     12  C   UNL     1      -0.519  10.384  21.141  0.00  0.00    +0.000 C 
ATOM     13  C   UNL     1      -0.350   9.918  19.681  0.00  0.00    +0.000 C 
ATOM     14  C   UNL     1       1.066   9.395  19.393  0.00  0.00    +0.000 C 
ATOM     15  N   UNL     1       2.970   7.159  19.145  0.00  0.00    +0.000 NA
ATOM     16  N   UNL     1       3.536   5.919  18.960  0.00  0.00    +0.000 N 
ENDROOT
BRANCH  12  17
ATOM     17  C   UNL     1       0.184  11.718  21.401  0.00  0.00    +0.000 C 
ATOM     18  O   UNL     1      -0.082  12.388  22.394  0.00  0.00    +0.000 OA
ATOM     19  N   UNL     1       1.062  12.071  20.401  0.00  0.00    +0.000 N 
ATOM     20  C   UNL     1       1.821  13.204  20.493  0.00  0.00    +0.000 A 
ATOM     21  N   UNL     1       2.028  13.974  21.529  0.00  0.00    +0.000 NA
ATOM     22  C   UNL     1       2.824  15.036  21.159  0.00  0.00    +0.000 A 
ATOM     23  C   UNL     1       3.214  15.049  19.836  0.00  0.00    +0.000 A 
ATOM     24  S   UNL     1       2.602  13.654  19.043  0.00  0.00    +0.000 S 
ATOM     25  H   UNL     1       1.075  11.583  19.518  0.00  0.00    +0.000 HD
ENDBRANCH  12  17
TORSDOF 1
ENDMDL
MODEL 8
REMARK VINA RESULT:      -7.2      1.156      1.159
REMARK  Name = 
REMARK  2 active torsions:
REMARK  status: ('A' for Active; 'I' for Inactive)
REMARK    1  A    between atoms: C_1  and  C_2
REMARK    2  A    between atoms: C_12  and  C_13
REMARK                            x       y       z     vdW  Elec       q    Type
REMARK                         _______ _______ _______ _____ _____    ______ ____
ROOT
ATOM      1  C   UNL     1       5.874   6.026  17.635  0.00  0.00    +0.000 C 
ATOM      2  C   UNL     1       4.963   5.139  18.386  0.00  0.00    +0.000 A 
ATOM      3  N   UNL     1       5.127   3.849  18.596  0.00  0.00    +0.000 NA
ATOM      4  N   UNL     1       4.091   3.406  19.383  0.00  0.00    +0.000 NA
ATOM      5  C   UNL     1       3.321   4.439  19.638  0.00  0.00    +0.000 A 
ATOM      6  C   UNL     1       2.153   4.575  20.403  0.00  0.00    +0.000 A 
ATOM      7  C   UNL     1       1.599   5.785  20.509  0.00  0.00    +0.000 A 
ATOM      8  C   UNL     1       2.225   6.954  19.800  0.00  0.00    +0.000 A 
ATOM      9  N   UNL     1       1.596   8.174  19.975  0.00  0.00    +0.000 N 
ATOM     10  C   UNL     1       1.479   8.748  21.318  0.00  0.00    +0.000 C 
ATOM     11  C   UNL     1       0.067   9.306  21.476  0.00  0.00    +0.000 C 
ATOM     12  C   UNL     1      -0.265  10.328  20.374  0.00  0.00    +0.000 C 
ATOM     13  C   UNL     1       0.054   9.749  18.981  0.00  0.00    +0.000 C 
ATOM     14  C   UNL     1       1.468   9.154  18.902  0.00  0.00    +0.000 C 
ATOM     15  N   UNL     1       3.285   6.838  19.042  0.00  0.00    +0.000 NA
ATOM     16  N   UNL     1       3.812   5.568  19.012  0.00  0.00    +0.000 N 
ENDROOT
BRANCH  12  17
ATOM     17  C   UNL     1       0.462  11.651  20.624  0.00  0.00    +0.000 C 
ATOM     18  O   UNL     1       1.245  11.774  21.560  0.00  0.00    +0.000 OA
ATOM     19  N   UNL     1       0.097  12.644  19.742  0.00  0.00    +0.000 N 
ATOM     20  C   UNL     1       0.688  13.876  19.780  0.00  0.00    +0.000 A 
ATOM     21  N   UNL     1       1.760  14.255  20.424  0.00  0.00    +0.000 NA
ATOM     22  C   UNL     1       1.968  15.601  20.216  0.00  0.00    +0.000 A 
ATOM     23  C   UNL     1       1.042  16.224  19.405  0.00  0.00    +0.000 A 
ATOM     24  S   UNL     1      -0.099  15.069  18.846  0.00  0.00    +0.000 S 
ATOM     25  H   UNL     1      -0.701  12.539  19.135  0.00  0.00    +0.000 HD
ENDBRANCH  12  17
TORSDOF 1
ENDMDL
MODEL 9
REMARK VINA RESULT:      -7.2      3.460      4.929
REMARK  Name = 
REMARK  2 active torsions:
REMARK  status: ('A' for Active; 'I' for Inactive)
REMARK    1  A    between atoms: C_1  and  C_2
REMARK    2  A    between atoms: C_12  and  C_13
REMARK                            x       y       z     vdW  Elec       q    Type
REMARK                         _______ _______ _______ _____ _____    ______ ____
ROOT
ATOM      1  C   UNL     1       2.018   5.042  21.117  0.00  0.00    +0.000 C 
ATOM      2  C   UNL     1       2.623   5.588  19.886  0.00  0.00    +0.000 A 
ATOM      3  N   UNL     1       3.440   4.953  19.070  0.00  0.00    +0.000 NA
ATOM      4  N   UNL     1       3.732   5.788  18.019  0.00  0.00    +0.000 NA
ATOM      5  C   UNL     1       3.081   6.912  18.215  0.00  0.00    +0.000 A 
ATOM      6  C   UNL     1       2.989   8.090  17.459  0.00  0.00    +0.000 A 
ATOM      7  C   UNL     1       2.204   9.073  17.907  0.00  0.00    +0.000 A 
ATOM      8  C   UNL     1       1.462   8.901  19.203  0.00  0.00    +0.000 A 
ATOM      9  N   UNL     1       0.660   9.961  19.586  0.00  0.00    +0.000 N 
ATOM     10  C   UNL     1      -0.453  10.379  18.731  0.00  0.00    +0.000 C 
ATOM     11  C   UNL     1      -0.459  11.904  18.665  0.00  0.00    +0.000 C 
ATOM     12  C   UNL     1      -0.534  12.531  20.069  0.00  0.00    +0.000 C 
ATOM     13  C   UNL     1       0.537  11.923  20.995  0.00  0.00    +0.000 C 
ATOM     14  C   UNL     1       0.527  10.386  20.975  0.00  0.00    +0.000 C 
ATOM     15  N   UNL     1       1.574   7.830  19.947  0.00  0.00    +0.000 NA
ATOM     16  N   UNL     1       2.374   6.854  19.400  0.00  0.00    +0.000 N 
ENDROOT
BRANCH  12  17
ATOM     17  C   UNL     1      -1.943  12.388  20.652  0.00  0.00    +0.000 C 
ATOM     18  O   UNL     1      -2.112  12.149  21.843  0.00  0.00    +0.000 OA
ATOM     19  N   UNL     1      -2.934  12.502  19.703  0.00  0.00    +0.000 N 
ATOM     20  C   UNL     1      -4.255  12.458  20.052  0.00  0.00    +0.000 A 
ATOM     21  N   UNL     1      -4.796  12.529  21.239  0.00  0.00    +0.000 NA
ATOM     22  C   UNL     1      -6.163  12.395  21.130  0.00  0.00    +0.000 A 
ATOM     23  C   UNL     1      -6.640  12.226  19.847  0.00  0.00    +0.000 A 
ATOM     24  S   UNL     1      -5.331  12.289  18.736  0.00  0.00    +0.000 S 
ATOM     25  H   UNL     1      -2.721  12.486  18.717  0.00  0.00    +0.000 HD
ENDBRANCH  12  17
TORSDOF 1
ENDMDL
