MODEL 1
REMARK VINA RESULT:      -8.3      0.000      0.000
REMARK  Name = 
REMARK  5 active torsions:
REMARK  status: ('A' for Active; 'I' for Inactive)
REMARK    1  A    between atoms: C_2  and  C_19
REMARK    2  A    between atoms: N_3  and  C_4
REMARK    3  A    between atoms: C_7  and  C_8
REMARK    4  A    between atoms: C_8  and  N_9
REMARK    5  A    between atoms: C_17  and  O_18
REMARK                            x       y       z     vdW  Elec       q    Type
REMARK                         _______ _______ _______ _____ _____    ______ ____
ROOT
ATOM      1  C   UNL     1       7.063   5.830  16.857  0.00  0.00    +0.000 C 
ATOM      2  C   UNL     1       5.863   6.750  17.084  0.00  0.00    +0.000 C 
ATOM      3  O   UNL     1       5.063   6.116  18.091  0.00  0.00    +0.000 OA
ATOM      4  C   UNL     1       5.947   5.413  18.994  0.00  0.00    +0.000 C 
ATOM      5  C   UNL     1       7.336   5.443  18.321  0.00  0.00    +0.000 C 
ENDROOT
BRANCH   1   8
ATOM      6  O   UNL     1       7.841   5.613  14.143  0.00  0.00    +0.000 OA
ATOM      7  C   UNL     1       7.080   4.730  14.558  0.00  0.00    +0.000 C 
ATOM      8  N   UNL     1       6.745   4.706  15.923  0.00  0.00    +0.000 N 
ATOM      9  H   UNL     1       6.074   4.022  16.225  0.00  0.00    +0.000 HD
BRANCH   7  10
ATOM     10  C   UNL     1       6.428   3.667  13.597  0.00  0.00    +0.000 C 
ATOM     11  C   UNL     1       4.980   3.977  13.058  0.00  0.00    +0.000 C 
ATOM     12  C   UNL     1       5.301   3.033  11.885  0.00  0.00    +0.000 C 
ATOM     13  C   UNL     1       6.778   3.463  12.087  0.00  0.00    +0.000 C 
ENDBRANCH   7  10
ENDBRANCH   1   8
BRANCH   5  14
ATOM     14  O   UNL     1       8.113   6.515  18.941  0.00  0.00    +0.000 OA
ATOM     15  H   UNL     1       7.522   7.233  19.193  0.00  0.00    +0.000 HD
ENDBRANCH   5  14
BRANCH   4  16
ATOM     16  C   UNL     1       5.425   3.989  19.288  0.00  0.00    +0.000 C 
BRANCH  16  17
ATOM     17  N   UNL     1       4.006   3.735  18.921  0.00  0.00    +0.000 NA
ATOM     18  C   UNL     1       3.186   3.612  20.141  0.00  0.00    +0.000 C 
ATOM     19  C   UNL     1       1.726   3.727  19.743  0.00  0.00    +0.000 C 
ATOM     20  C   UNL     1       1.376   2.578  18.817  0.00  0.00    +0.000 C 
ATOM     21  F   UNL     1       0.091   2.702  18.405  0.00  0.00    +0.000 F 
ATOM     22  F   UNL     1       1.434   1.406  19.516  0.00  0.00    +0.000 F 
ATOM     23  C   UNL     1       2.296   2.507  17.629  0.00  0.00    +0.000 C 
ATOM     24  C   UNL     1       3.768   2.566  18.053  0.00  0.00    +0.000 C 
ENDBRANCH  16  17
ENDBRANCH   4  16
TORSDOF 5
ENDMDL
MODEL 2
REMARK VINA RESULT:      -8.0      1.253      1.822
REMARK  Name = 
REMARK  5 active torsions:
REMARK  status: ('A' for Active; 'I' for Inactive)
REMARK    1  A    between atoms: C_2  and  C_19
REMARK    2  A    between atoms: N_3  and  C_4
REMARK    3  A    between atoms: C_7  and  C_8
REMARK    4  A    between atoms: C_8  and  N_9
REMARK    5  A    between atoms: C_17  and  O_18
REMARK                            x       y       z     vdW  Elec       q    Type
REMARK                         _______ _______ _______ _____ _____    ______ ____
ROOT
ATOM      1  C   UNL     1       7.313   5.025  17.411  0.00  0.00    +0.000 C 
ATOM      2  C   UNL     1       7.131   6.504  17.067  0.00  0.00    +0.000 C 
ATOM      3  O   UNL     1       5.742   6.792  17.276  0.00  0.00    +0.000 OA
ATOM      4  C   UNL     1       5.271   5.972  18.370  0.00  0.00    +0.000 C 
ATOM      5  C   UNL     1       6.407   4.965  18.653  0.00  0.00    +0.000 C 
ENDROOT
BRANCH   1   8
ATOM      6  O   UNL     1       7.796   5.492  14.660  0.00  0.00    +0.000 OA
ATOM      7  C   UNL     1       7.119   4.491  14.927  0.00  0.00    +0.000 C 
ATOM      8  N   UNL     1       6.937   4.131  16.273  0.00  0.00    +0.000 N 
ATOM      9  H   UNL     1       6.330   3.354  16.468  0.00  0.00    +0.000 HD
BRANCH   7  10
ATOM     10  C   UNL     1       6.405   3.641  13.809  0.00  0.00    +0.000 C 
ATOM     11  C   UNL     1       4.965   4.102  13.365  0.00  0.00    +0.000 C 
ATOM     12  C   UNL     1       5.226   3.365  12.038  0.00  0.00    +0.000 C 
ATOM     13  C   UNL     1       6.723   3.690  12.280  0.00  0.00    +0.000 C 
ENDBRANCH   7  10
ENDBRANCH   1   8
BRANCH   5  14
ATOM     14  O   UNL     1       7.169   5.457  19.800  0.00  0.00    +0.000 OA
ATOM     15  H   UNL     1       7.061   6.411  19.869  0.00  0.00    +0.000 HD
ENDBRANCH   5  14
BRANCH   4  16
ATOM     16  C   UNL     1       3.919   5.309  18.028  0.00  0.00    +0.000 C 
BRANCH  16  17
ATOM     17  N   UNL     1       3.265   4.568  19.141  0.00  0.00    +0.000 NA
ATOM     18  C   UNL     1       2.694   3.305  18.634  0.00  0.00    +0.000 C 
ATOM     19  C   UNL     1       2.375   2.420  19.825  0.00  0.00    +0.000 C 
ATOM     20  C   UNL     1       1.328   3.106  20.682  0.00  0.00    +0.000 C 
ATOM     21  F   UNL     1       1.077   2.355  21.782  0.00  0.00    +0.000 F 
ATOM     22  F   UNL     1       0.151   3.164  19.992  0.00  0.00    +0.000 F 
ATOM     23  C   UNL     1       1.747   4.493  21.087  0.00  0.00    +0.000 C 
ATOM     24  C   UNL     1       2.229   5.310  19.883  0.00  0.00    +0.000 C 
ENDBRANCH  16  17
ENDBRANCH   4  16
TORSDOF 5
ENDMDL
MODEL 3
REMARK VINA RESULT:      -7.9      1.489      1.824
REMARK  Name = 
REMARK  5 active torsions:
REMARK  status: ('A' for Active; 'I' for Inactive)
REMARK    1  A    between atoms: C_2  and  C_19
REMARK    2  A    between atoms: N_3  and  C_4
REMARK    3  A    between atoms: C_7  and  C_8
REMARK    4  A    between atoms: C_8  and  N_9
REMARK    5  A    between atoms: C_17  and  O_18
REMARK                            x       y       z     vdW  Elec       q    Type
REMARK                         _______ _______ _______ _____ _____    ______ ____
ROOT
ATOM      1  C   UNL     1       6.799   4.864  16.828  0.00  0.00    +0.000 C 
ATOM      2  C   UNL     1       6.571   6.375  16.894  0.00  0.00    +0.000 C 
ATOM      3  O   UNL     1       5.189   6.553  17.233  0.00  0.00    +0.000 OA
ATOM      4  C   UNL     1       4.792   5.461  18.094  0.00  0.00    +0.000 C 
ATOM      5  C   UNL     1       5.960   4.453  18.051  0.00  0.00    +0.000 C 
ENDROOT
BRANCH   1   8
ATOM      6  O   UNL     1       7.922   5.440  14.294  0.00  0.00    +0.000 OA
ATOM      7  C   UNL     1       6.923   4.710  14.288  0.00  0.00    +0.000 C 
ATOM      8  N   UNL     1       6.381   4.286  15.514  0.00  0.00    +0.000 N 
ATOM      9  H   UNL     1       5.532   3.750  15.487  0.00  0.00    +0.000 HD
BRANCH   7  10
ATOM     10  C   UNL     1       6.202   4.288  12.952  0.00  0.00    +0.000 C 
ATOM     11  C   UNL     1       6.815   3.073  12.157  0.00  0.00    +0.000 C 
ATOM     12  C   UNL     1       5.422   2.885  11.528  0.00  0.00    +0.000 C 
ATOM     13  C   UNL     1       4.867   3.482  12.849  0.00  0.00    +0.000 C 
ENDBRANCH   7  10
ENDBRANCH   1   8
BRANCH   5  14
ATOM     14  O   UNL     1       6.771   4.652  19.251  0.00  0.00    +0.000 OA
ATOM     15  H   UNL     1       6.214   4.562  20.031  0.00  0.00    +0.000 HD
ENDBRANCH   5  14
BRANCH   4  16
ATOM     16  C   UNL     1       3.436   4.868  17.651  0.00  0.00    +0.000 C 
BRANCH  16  17
ATOM     17  N   UNL     1       2.623   4.245  18.730  0.00  0.00    +0.000 NA
ATOM     18  C   UNL     1       2.996   4.824  20.036  0.00  0.00    +0.000 C 
ATOM     19  C   UNL     1       1.919   4.455  21.041  0.00  0.00    +0.000 C 
ATOM     20  C   UNL     1       1.876   2.945  21.184  0.00  0.00    +0.000 C 
ATOM     21  F   UNL     1       0.879   2.598  22.032  0.00  0.00    +0.000 F 
ATOM     22  F   UNL     1       3.033   2.517  21.770  0.00  0.00    +0.000 F 
ATOM     23  C   UNL     1       1.693   2.255  19.859  0.00  0.00    +0.000 C 
ATOM     24  C   UNL     1       2.685   2.774  18.812  0.00  0.00    +0.000 C 
ENDBRANCH  16  17
ENDBRANCH   4  16
TORSDOF 5
ENDMDL
MODEL 4
REMARK VINA RESULT:      -7.9      1.567      2.043
REMARK  Name = 
REMARK  5 active torsions:
REMARK  status: ('A' for Active; 'I' for Inactive)
REMARK    1  A    between atoms: C_2  and  C_19
REMARK    2  A    between atoms: N_3  and  C_4
REMARK    3  A    between atoms: C_7  and  C_8
REMARK    4  A    between atoms: C_8  and  N_9
REMARK    5  A    between atoms: C_17  and  O_18
REMARK                            x       y       z     vdW  Elec       q    Type
REMARK                         _______ _______ _______ _____ _____    ______ ____
ROOT
ATOM      1  C   UNL     1       6.840   4.831  16.055  0.00  0.00    +0.000 C 
ATOM      2  C   UNL     1       6.037   6.123  16.206  0.00  0.00    +0.000 C 
ATOM      3  O   UNL     1       4.774   5.743  16.768  0.00  0.00    +0.000 OA
ATOM      4  C   UNL     1       4.992   4.614  17.645  0.00  0.00    +0.000 C 
ATOM      5  C   UNL     1       6.444   4.159  17.382  0.00  0.00    +0.000 C 
ENDROOT
BRANCH   1   8
ATOM      6  O   UNL     1       7.748   5.398  13.434  0.00  0.00    +0.000 OA
ATOM      7  C   UNL     1       6.897   4.504  13.528  0.00  0.00    +0.000 C 
ATOM      8  N   UNL     1       6.485   4.088  14.806  0.00  0.00    +0.000 N 
ATOM      9  H   UNL     1       5.746   3.409  14.858  0.00  0.00    +0.000 HD
BRANCH   7  10
ATOM     10  C   UNL     1       6.216   3.859  12.262  0.00  0.00    +0.000 C 
ATOM     11  C   UNL     1       6.495   2.332  11.995  0.00  0.00    +0.000 C 
ATOM     12  C   UNL     1       5.182   2.315  11.191  0.00  0.00    +0.000 C 
ATOM     13  C   UNL     1       4.713   3.447  12.143  0.00  0.00    +0.000 C 
ENDBRANCH   7  10
ENDBRANCH   1   8
BRANCH   5  14
ATOM     14  O   UNL     1       7.287   4.709  18.442  0.00  0.00    +0.000 OA
ATOM     15  H   UNL     1       6.759   4.834  19.237  0.00  0.00    +0.000 HD
ENDBRANCH   5  14
BRANCH   4  16
ATOM     16  C   UNL     1       3.938   3.511  17.406  0.00  0.00    +0.000 C 
BRANCH  16  17
ATOM     17  N   UNL     1       3.155   3.099  18.602  0.00  0.00    +0.000 NA
ATOM     18  C   UNL     1       1.888   3.855  18.656  0.00  0.00    +0.000 C 
ATOM     19  C   UNL     1       0.968   3.164  19.646  0.00  0.00    +0.000 C 
ATOM     20  C   UNL     1       1.605   3.205  21.022  0.00  0.00    +0.000 C 
ATOM     21  F   UNL     1       0.822   2.539  21.905  0.00  0.00    +0.000 F 
ATOM     22  F   UNL     1       1.645   4.499  21.458  0.00  0.00    +0.000 F 
ATOM     23  C   UNL     1       2.993   2.627  21.021  0.00  0.00    +0.000 C 
ATOM     24  C   UNL     1       3.850   3.221  19.897  0.00  0.00    +0.000 C 
ENDBRANCH  16  17
ENDBRANCH   4  16
TORSDOF 5
ENDMDL
MODEL 5
REMARK VINA RESULT:      -7.7      0.625      1.364
REMARK  Name = 
REMARK  5 active torsions:
REMARK  status: ('A' for Active; 'I' for Inactive)
REMARK    1  A    between atoms: C_2  and  C_19
REMARK    2  A    between atoms: N_3  and  C_4
REMARK    3  A    between atoms: C_7  and  C_8
REMARK    4  A    between atoms: C_8  and  N_9
REMARK    5  A    between atoms: C_17  and  O_18
REMARK                            x       y       z     vdW  Elec       q    Type
REMARK                         _______ _______ _______ _____ _____    ______ ____
ROOT
ATOM      1  C   UNL     1       6.839   5.881  16.675  0.00  0.00    +0.000 C 
ATOM      2  C   UNL     1       5.556   6.658  16.970  0.00  0.00    +0.000 C 
ATOM      3  O   UNL     1       4.891   5.943  18.021  0.00  0.00    +0.000 OA
ATOM      4  C   UNL     1       5.900   5.353  18.873  0.00  0.00    +0.000 C 
ATOM      5  C   UNL     1       7.236   5.538  18.122  0.00  0.00    +0.000 C 
ENDROOT
BRANCH   1   8
ATOM      6  O   UNL     1       7.771   5.602  14.017  0.00  0.00    +0.000 OA
ATOM      7  C   UNL     1       7.010   4.712  14.417  0.00  0.00    +0.000 C 
ATOM      8  N   UNL     1       6.601   4.721  15.762  0.00  0.00    +0.000 N 
ATOM      9  H   UNL     1       5.932   4.029  16.049  0.00  0.00    +0.000 HD
BRANCH   7  10
ATOM     10  C   UNL     1       6.438   3.604  13.456  0.00  0.00    +0.000 C 
ATOM     11  C   UNL     1       4.963   3.793  12.936  0.00  0.00    +0.000 C 
ATOM     12  C   UNL     1       5.348   2.887  11.752  0.00  0.00    +0.000 C 
ATOM     13  C   UNL     1       6.786   3.439  11.941  0.00  0.00    +0.000 C 
ENDBRANCH   7  10
ENDBRANCH   1   8
BRANCH   5  14
ATOM     14  O   UNL     1       7.918   6.697  18.697  0.00  0.00    +0.000 OA
ATOM     15  H   UNL     1       8.359   7.188  17.996  0.00  0.00    +0.000 HD
ENDBRANCH   5  14
BRANCH   4  16
ATOM     16  C   UNL     1       5.563   3.881  19.197  0.00  0.00    +0.000 C 
BRANCH  16  17
ATOM     17  N   UNL     1       4.120   3.523  19.139  0.00  0.00    +0.000 NA
ATOM     18  C   UNL     1       3.744   3.182  17.753  0.00  0.00    +0.000 C 
ATOM     19  C   UNL     1       2.400   2.477  17.789  0.00  0.00    +0.000 C 
ATOM     20  C   UNL     1       1.358   3.430  18.344  0.00  0.00    +0.000 C 
ATOM     21  F   UNL     1       0.165   2.795  18.438  0.00  0.00    +0.000 F 
ATOM     22  F   UNL     1       1.169   4.452  17.459  0.00  0.00    +0.000 F 
ATOM     23  C   UNL     1       1.756   3.987  19.684  0.00  0.00    +0.000 C 
ATOM     24  C   UNL     1       3.187   4.537  19.662  0.00  0.00    +0.000 C 
ENDBRANCH  16  17
ENDBRANCH   4  16
TORSDOF 5
ENDMDL
MODEL 6
REMARK VINA RESULT:      -7.6      1.385      2.005
REMARK  Name = 
REMARK  5 active torsions:
REMARK  status: ('A' for Active; 'I' for Inactive)
REMARK    1  A    between atoms: C_2  and  C_19
REMARK    2  A    between atoms: N_3  and  C_4
REMARK    3  A    between atoms: C_7  and  C_8
REMARK    4  A    between atoms: C_8  and  N_9
REMARK    5  A    between atoms: C_17  and  O_18
REMARK                            x       y       z     vdW  Elec       q    Type
REMARK                         _______ _______ _______ _____ _____    ______ ____
ROOT
ATOM      1  C   UNL     1       7.148   4.911  16.906  0.00  0.00    +0.000 C 
ATOM      2  C   UNL     1       7.221   6.438  16.889  0.00  0.00    +0.000 C 
ATOM      3  O   UNL     1       5.913   6.901  17.254  0.00  0.00    +0.000 OA
ATOM      4  C   UNL     1       5.343   5.955  18.187  0.00  0.00    +0.000 C 
ATOM      5  C   UNL     1       6.291   4.736  18.172  0.00  0.00    +0.000 C 
ENDROOT
BRANCH   1   8
ATOM      6  O   UNL     1       8.112   5.357  14.282  0.00  0.00    +0.000 OA
ATOM      7  C   UNL     1       7.055   4.719  14.367  0.00  0.00    +0.000 C 
ATOM      8  N   UNL     1       6.578   4.358  15.639  0.00  0.00    +0.000 N 
ATOM      9  H   UNL     1       5.685   3.900  15.688  0.00  0.00    +0.000 HD
BRANCH   7  10
ATOM     10  C   UNL     1       6.196   4.348  13.100  0.00  0.00    +0.000 C 
ATOM     11  C   UNL     1       6.778   3.250  12.132  0.00  0.00    +0.000 C 
ATOM     12  C   UNL     1       5.330   3.006  11.667  0.00  0.00    +0.000 C 
ATOM     13  C   UNL     1       4.914   3.454  13.093  0.00  0.00    +0.000 C 
ENDBRANCH   7  10
ENDBRANCH   1   8
BRANCH   5  14
ATOM     14  O   UNL     1       7.169   4.835  19.337  0.00  0.00    +0.000 OA
ATOM     15  H   UNL     1       7.260   5.759  19.591  0.00  0.00    +0.000 HD
ENDBRANCH   5  14
BRANCH   4  16
ATOM     16  C   UNL     1       3.883   5.617  17.815  0.00  0.00    +0.000 C 
BRANCH  16  17
ATOM     17  N   UNL     1       3.169   4.718  18.761  0.00  0.00    +0.000 NA
ATOM     18  C   UNL     1       1.854   4.347  18.205  0.00  0.00    +0.000 C 
ATOM     19  C   UNL     1       1.324   3.164  18.994  0.00  0.00    +0.000 C 
ATOM     20  C   UNL     1       1.128   3.583  20.439  0.00  0.00    +0.000 C 
ATOM     21  F   UNL     1       0.712   2.520  21.168  0.00  0.00    +0.000 F 
ATOM     22  F   UNL     1       0.119   4.501  20.506  0.00  0.00    +0.000 F 
ATOM     23  C   UNL     1       2.381   4.162  21.035  0.00  0.00    +0.000 C 
ATOM     24  C   UNL     1       2.991   5.238  20.129  0.00  0.00    +0.000 C 
ENDBRANCH  16  17
ENDBRANCH   4  16
TORSDOF 5
ENDMDL
MODEL 7
REMARK VINA RESULT:      -7.6      4.050      6.607
REMARK  Name = 
REMARK  5 active torsions:
REMARK  status: ('A' for Active; 'I' for Inactive)
REMARK    1  A    between atoms: C_2  and  C_19
REMARK    2  A    between atoms: N_3  and  C_4
REMARK    3  A    between atoms: C_7  and  C_8
REMARK    4  A    between atoms: C_8  and  N_9
REMARK    5  A    between atoms: C_17  and  O_18
REMARK                            x       y       z     vdW  Elec       q    Type
REMARK                         _______ _______ _______ _____ _____    ______ ____
ROOT
ATOM      1  C   UNL     1       1.456   4.456  20.635  0.00  0.00    +0.000 C 
ATOM      2  C   UNL     1       0.819   3.499  19.626  0.00  0.00    +0.000 C 
ATOM      3  O   UNL     1       1.893   2.715  19.090  0.00  0.00    +0.000 OA
ATOM      4  C   UNL     1       2.880   2.531  20.131  0.00  0.00    +0.000 C 
ATOM      5  C   UNL     1       2.459   3.480  21.274  0.00  0.00    +0.000 C 
ENDROOT
BRANCH   1   8
ATOM      6  O   UNL     1       1.098   7.149  21.429  0.00  0.00    +0.000 OA
ATOM      7  C   UNL     1       1.720   6.977  20.373  0.00  0.00    +0.000 C 
ATOM      8  N   UNL     1       2.037   5.666  19.977  0.00  0.00    +0.000 N 
ATOM      9  H   UNL     1       2.482   5.545  19.084  0.00  0.00    +0.000 HD
BRANCH   7  10
ATOM     10  C   UNL     1       2.115   8.174  19.429  0.00  0.00    +0.000 C 
ATOM     11  C   UNL     1       2.141   7.890  17.880  0.00  0.00    +0.000 C 
ATOM     12  C   UNL     1       1.943   9.404  17.680  0.00  0.00    +0.000 C 
ATOM     13  C   UNL     1       1.193   9.373  19.037  0.00  0.00    +0.000 C 
ENDBRANCH   7  10
ENDBRANCH   1   8
BRANCH   5  14
ATOM     14  O   UNL     1       1.752   2.688  22.279  0.00  0.00    +0.000 OA
ATOM     15  H   UNL     1       2.090   2.906  23.153  0.00  0.00    +0.000 HD
ENDBRANCH   5  14
BRANCH   4  16
ATOM     16  C   UNL     1       4.307   2.787  19.597  0.00  0.00    +0.000 C 
BRANCH  16  17
ATOM     17  N   UNL     1       4.445   3.932  18.657  0.00  0.00    +0.000 NA
ATOM     18  C   UNL     1       4.660   3.430  17.286  0.00  0.00    +0.000 C 
ATOM     19  C   UNL     1       4.426   4.579  16.321  0.00  0.00    +0.000 C 
ATOM     20  C   UNL     1       5.447   5.667  16.595  0.00  0.00    +0.000 C 
ATOM     21  F   UNL     1       5.213   6.725  15.781  0.00  0.00    +0.000 F 
ATOM     22  F   UNL     1       6.690   5.209  16.264  0.00  0.00    +0.000 F 
ATOM     23  C   UNL     1       5.434   6.107  18.033  0.00  0.00    +0.000 C 
ATOM     24  C   UNL     1       5.497   4.910  18.989  0.00  0.00    +0.000 C 
ENDBRANCH  16  17
ENDBRANCH   4  16
TORSDOF 5
ENDMDL
MODEL 8
REMARK VINA RESULT:      -7.5      1.568      1.951
REMARK  Name = 
REMARK  5 active torsions:
REMARK  status: ('A' for Active; 'I' for Inactive)
REMARK    1  A    between atoms: C_2  and  C_19
REMARK    2  A    between atoms: N_3  and  C_4
REMARK    3  A    between atoms: C_7  and  C_8
REMARK    4  A    between atoms: C_8  and  N_9
REMARK    5  A    between atoms: C_17  and  O_18
REMARK                            x       y       z     vdW  Elec       q    Type
REMARK                         _______ _______ _______ _____ _____    ______ ____
ROOT
ATOM      1  C   UNL     1       6.527   5.292  16.887  0.00  0.00    +0.000 C 
ATOM      2  C   UNL     1       5.690   6.541  16.613  0.00  0.00    +0.000 C 
ATOM      3  O   UNL     1       4.334   6.187  16.920  0.00  0.00    +0.000 OA
ATOM      4  C   UNL     1       4.352   5.236  18.009  0.00  0.00    +0.000 C 
ATOM      5  C   UNL     1       5.832   4.831  18.181  0.00  0.00    +0.000 C 
ENDROOT
BRANCH   1   8
ATOM      6  O   UNL     1       7.797   5.612  14.378  0.00  0.00    +0.000 OA
ATOM      7  C   UNL     1       7.069   4.618  14.490  0.00  0.00    +0.000 C 
ATOM      8  N   UNL     1       6.498   4.330  15.742  0.00  0.00    +0.000 N 
ATOM      9  H   UNL     1       5.858   3.558  15.795  0.00  0.00    +0.000 HD
BRANCH   7  10
ATOM     10  C   UNL     1       6.712   3.698  13.262  0.00  0.00    +0.000 C 
ATOM     11  C   UNL     1       5.193   3.595  12.858  0.00  0.00    +0.000 C 
ATOM     12  C   UNL     1       5.677   3.193  11.453  0.00  0.00    +0.000 C 
ATOM     13  C   UNL     1       6.929   4.058  11.757  0.00  0.00    +0.000 C 
ENDBRANCH   7  10
ENDBRANCH   1   8
BRANCH   5  14
ATOM     14  O   UNL     1       6.383   5.600  19.295  0.00  0.00    +0.000 OA
ATOM     15  H   UNL     1       5.752   5.605  20.022  0.00  0.00    +0.000 HD
ENDBRANCH   5  14
BRANCH   4  16
ATOM     16  C   UNL     1       3.406   4.048  17.727  0.00  0.00    +0.000 C 
BRANCH  16  17
ATOM     17  N   UNL     1       2.738   3.461  18.920  0.00  0.00    +0.000 NA
ATOM     18  C   UNL     1       1.840   4.458  19.534  0.00  0.00    +0.000 C 
ATOM     19  C   UNL     1       0.915   3.733  20.494  0.00  0.00    +0.000 C 
ATOM     20  C   UNL     1       1.745   3.100  21.595  0.00  0.00    +0.000 C 
ATOM     21  F   UNL     1       0.938   2.398  22.426  0.00  0.00    +0.000 F 
ATOM     22  F   UNL     1       2.304   4.085  22.357  0.00  0.00    +0.000 F 
ATOM     23  C   UNL     1       2.826   2.208  21.047  0.00  0.00    +0.000 C 
ATOM     24  C   UNL     1       3.637   2.912  19.953  0.00  0.00    +0.000 C 
ENDBRANCH  16  17
ENDBRANCH   4  16
TORSDOF 5
ENDMDL
MODEL 9
REMARK VINA RESULT:      -7.4      4.125      6.771
REMARK  Name = 
REMARK  5 active torsions:
REMARK  status: ('A' for Active; 'I' for Inactive)
REMARK    1  A    between atoms: C_2  and  C_19
REMARK    2  A    between atoms: N_3  and  C_4
REMARK    3  A    between atoms: C_7  and  C_8
REMARK    4  A    between atoms: C_8  and  N_9
REMARK    5  A    between atoms: C_17  and  O_18
REMARK                            x       y       z     vdW  Elec       q    Type
REMARK                         _______ _______ _______ _____ _____    ______ ____
ROOT
ATOM      1  C   UNL     1       2.496   4.343  19.194  0.00  0.00    +0.000 C 
ATOM      2  C   UNL     1       1.468   3.749  18.230  0.00  0.00    +0.000 C 
ATOM      3  O   UNL     1       2.179   3.461  17.019  0.00  0.00    +0.000 OA
ATOM      4  C   UNL     1       3.531   3.085  17.368  0.00  0.00    +0.000 C 
ATOM      5  C   UNL     1       3.678   3.413  18.869  0.00  0.00    +0.000 C 
ENDROOT
BRANCH   1   8
ATOM      6  O   UNL     1       1.622   6.479  20.834  0.00  0.00    +0.000 OA
ATOM      7  C   UNL     1       2.154   6.803  19.765  0.00  0.00    +0.000 C 
ATOM      8  N   UNL     1       2.717   5.803  18.954  0.00  0.00    +0.000 N 
ATOM      9  H   UNL     1       3.084   6.081  18.060  0.00  0.00    +0.000 HD
BRANCH   7  10
ATOM     10  C   UNL     1       2.168   8.293  19.255  0.00  0.00    +0.000 C 
ATOM     11  C   UNL     1       2.016   8.525  17.704  0.00  0.00    +0.000 C 
ATOM     12  C   UNL     1       1.505   9.937  18.046  0.00  0.00    +0.000 C 
ATOM     13  C   UNL     1       0.986   9.310  19.367  0.00  0.00    +0.000 C 
ENDBRANCH   7  10
ENDBRANCH   1   8
BRANCH   5  14
ATOM     14  O   UNL     1       3.504   2.172  19.621  0.00  0.00    +0.000 OA
ATOM     15  H   UNL     1       4.347   1.709  19.674  0.00  0.00    +0.000 HD
ENDBRANCH   5  14
BRANCH   4  16
ATOM     16  C   UNL     1       4.560   3.803  16.466  0.00  0.00    +0.000 C 
BRANCH  16  17
ATOM     17  N   UNL     1       5.429   4.799  17.149  0.00  0.00    +0.000 NA
ATOM     18  C   UNL     1       5.287   6.117  16.500  0.00  0.00    +0.000 C 
ATOM     19  C   UNL     1       5.877   7.165  17.425  0.00  0.00    +0.000 C 
ATOM     20  C   UNL     1       7.357   6.883  17.609  0.00  0.00    +0.000 C 
ATOM     21  F   UNL     1       7.885   7.775  18.480  0.00  0.00    +0.000 F 
ATOM     22  F   UNL     1       8.003   7.089  16.423  0.00  0.00    +0.000 F 
ATOM     23  C   UNL     1       7.610   5.479  18.087  0.00  0.00    +0.000 C 
ATOM     24  C   UNL     1       6.859   4.450  17.235  0.00  0.00    +0.000 C 
ENDBRANCH  16  17
ENDBRANCH   4  16
TORSDOF 5
ENDMDL
