MODEL 1
REMARK VINA RESULT:      -6.8      0.000      0.000
REMARK  Name = 
REMARK  14 active torsions:
REMARK  status: ('A' for Active; 'I' for Inactive)
REMARK    1  A    between atoms: C_1  and  C_2
REMARK    2  A    between atoms: C_2  and  C_3
REMARK    3  A    between atoms: C_3  and  C_4
REMARK    4  A    between atoms: C_4  and  C_5
REMARK    5  A    between atoms: C_5  and  C_6
REMARK    6  A    between atoms: C_6  and  N_7
REMARK    7  A    between atoms: C_11  and  C_12
REMARK    8  A    between atoms: C_13  and  O_14
REMARK    9  A    between atoms: N_22  and  C_23
REMARK   10  A    between atoms: C_23  and  C_24
REMARK   11  A    between atoms: C_24  and  C_25
REMARK   12  A    between atoms: C_25  and  C_26
REMARK   13  A    between atoms: C_26  and  C_27
REMARK   14  A    between atoms: C_27  and  C_28
REMARK                            x       y       z     vdW  Elec       q    Type
REMARK                         _______ _______ _______ _____ _____    ______ ____
ROOT
ATOM      1  N   UNL     1       1.207   8.474  20.538  0.00  0.00    +0.000 N 
ATOM      2  C   UNL     1       1.820   7.440  19.971  0.00  0.00    +0.000 A 
ATOM      3  S   UNL     1       1.646   5.894  20.679  0.00  0.00    +0.000 S 
ATOM      4  C   UNL     1       2.777   5.222  19.589  0.00  0.00    +0.000 A 
ATOM      5  C   UNL     1       3.244   3.889  19.685  0.00  0.00    +0.000 A 
ATOM      6  C   UNL     1       2.855   2.956  20.808  0.00  0.00    +0.000 C 
ATOM      7  C   UNL     1       4.095   3.469  18.663  0.00  0.00    +0.000 A 
ATOM      8  C   UNL     1       4.484   4.312  17.610  0.00  0.00    +0.000 A 
ATOM      9  C   UNL     1       5.340   3.794  16.619  0.00  0.00    +0.000 A 
ATOM     10  C   UNL     1       5.771   4.559  15.547  0.00  0.00    +0.000 A 
ATOM     11  C   UNL     1       5.332   5.865  15.435  0.00  0.00    +0.000 A 
ATOM     12  C   UNL     1       4.459   6.402  16.392  0.00  0.00    +0.000 A 
ATOM     13  C   UNL     1       4.016   5.666  17.531  0.00  0.00    +0.000 A 
ATOM     14  C   UNL     1       3.138   6.148  18.597  0.00  0.00    +0.000 A 
ATOM     15  N   UNL     1       2.570   7.445  18.854  0.00  0.00    +0.000 N 
ATOM     16  H   UNL     1       0.646   9.032  19.912  0.00  0.00    +0.000 HD
ENDROOT
BRANCH   7  17
ATOM     17  O   UNL     1       4.585   2.185  18.670  0.00  0.00    +0.000 OA
ATOM     18  H   UNL     1       4.061   1.596  18.105  0.00  0.00    +0.000 HD
ENDBRANCH   7  17
BRANCH   1  19
ATOM     19  C   UNL     1       1.010   8.561  21.992  0.00  0.00    +0.000 C 
BRANCH  19  20
ATOM     20  C   UNL     1      -0.451   8.791  22.318  0.00  0.00    +0.000 C 
BRANCH  20  21
ATOM     21  C   UNL     1      -0.548  10.056  23.169  0.00  0.00    +0.000 C 
BRANCH  21  22
ATOM     22  C   UNL     1      -0.565  11.324  22.332  0.00  0.00    +0.000 C 
BRANCH  22  24
ATOM     23  C   UNL     1      -2.363  12.539  21.067  0.00  0.00    +0.000 C 
ATOM     24  C   UNL     1      -1.940  11.984  22.415  0.00  0.00    +0.000 C 
ENDBRANCH  22  24
ENDBRANCH  21  22
ENDBRANCH  20  21
ENDBRANCH  19  20
ENDBRANCH   1  19
BRANCH  15  25
ATOM     25  C   UNL     1       2.901   8.652  18.033  0.00  0.00    +0.000 C 
BRANCH  25  26
ATOM     26  C   UNL     1       1.728   9.595  17.731  0.00  0.00    +0.000 C 
BRANCH  26  27
ATOM     27  C   UNL     1       1.699  10.936  18.472  0.00  0.00    +0.000 C 
BRANCH  27  28
ATOM     28  C   UNL     1       0.227  11.367  18.609  0.00  0.00    +0.000 C 
BRANCH  28  29
ATOM     29  C   UNL     1      -0.772  10.227  18.438  0.00  0.00    +0.000 C 
ATOM     30  C   UNL     1      -2.020  10.710  17.708  0.00  0.00    +0.000 C 
ENDBRANCH  28  29
ENDBRANCH  27  28
ENDBRANCH  26  27
ENDBRANCH  25  26
ENDBRANCH  15  25
TORSDOF 11
ENDMDL
MODEL 2
REMARK VINA RESULT:      -6.8      3.661      7.402
REMARK  Name = 
REMARK  14 active torsions:
REMARK  status: ('A' for Active; 'I' for Inactive)
REMARK    1  A    between atoms: C_1  and  C_2
REMARK    2  A    between atoms: C_2  and  C_3
REMARK    3  A    between atoms: C_3  and  C_4
REMARK    4  A    between atoms: C_4  and  C_5
REMARK    5  A    between atoms: C_5  and  C_6
REMARK    6  A    between atoms: C_6  and  N_7
REMARK    7  A    between atoms: C_11  and  C_12
REMARK    8  A    between atoms: C_13  and  O_14
REMARK    9  A    between atoms: N_22  and  C_23
REMARK   10  A    between atoms: C_23  and  C_24
REMARK   11  A    between atoms: C_24  and  C_25
REMARK   12  A    between atoms: C_25  and  C_26
REMARK   13  A    between atoms: C_26  and  C_27
REMARK   14  A    between atoms: C_27  and  C_28
REMARK                            x       y       z     vdW  Elec       q    Type
REMARK                         _______ _______ _______ _____ _____    ______ ____
ROOT
ATOM      1  N   UNL     1       6.912   7.138  16.726  0.00  0.00    +0.000 N 
ATOM      2  C   UNL     1       5.820   6.581  17.241  0.00  0.00    +0.000 A 
ATOM      3  S   UNL     1       4.623   7.594  17.918  0.00  0.00    +0.000 S 
ATOM      4  C   UNL     1       3.738   6.245  18.479  0.00  0.00    +0.000 A 
ATOM      5  C   UNL     1       2.591   6.360  19.301  0.00  0.00    +0.000 A 
ATOM      6  C   UNL     1       2.086   7.681  19.833  0.00  0.00    +0.000 C 
ATOM      7  C   UNL     1       1.933   5.167  19.595  0.00  0.00    +0.000 A 
ATOM      8  C   UNL     1       2.380   3.922  19.126  0.00  0.00    +0.000 A 
ATOM      9  C   UNL     1       1.642   2.772  19.468  0.00  0.00    +0.000 A 
ATOM     10  C   UNL     1       2.016   1.506  19.046  0.00  0.00    +0.000 A 
ATOM     11  C   UNL     1       3.135   1.368  18.247  0.00  0.00    +0.000 A 
ATOM     12  C   UNL     1       3.877   2.496  17.867  0.00  0.00    +0.000 A 
ATOM     13  C   UNL     1       3.553   3.815  18.305  0.00  0.00    +0.000 A 
ATOM     14  C   UNL     1       4.282   5.045  17.993  0.00  0.00    +0.000 A 
ATOM     15  N   UNL     1       5.510   5.272  17.279  0.00  0.00    +0.000 N 
ATOM     16  H   UNL     1       7.140   6.842  15.790  0.00  0.00    +0.000 HD
ENDROOT
BRANCH   7  17
ATOM     17  O   UNL     1       0.802   5.188  20.375  0.00  0.00    +0.000 OA
ATOM     18  H   UNL     1       1.010   5.365  21.306  0.00  0.00    +0.000 HD
ENDBRANCH   7  17
BRANCH   1  19
ATOM     19  C   UNL     1       7.492   8.370  17.279  0.00  0.00    +0.000 C 
BRANCH  19  20
ATOM     20  C   UNL     1       8.337   8.059  18.498  0.00  0.00    +0.000 C 
BRANCH  20  21
ATOM     21  C   UNL     1       9.036   9.348  18.925  0.00  0.00    +0.000 C 
BRANCH  21  22
ATOM     22  C   UNL     1       8.721  10.516  18.005  0.00  0.00    +0.000 C 
BRANCH  22  24
ATOM     23  C   UNL     1       9.274  12.950  17.727  0.00  0.00    +0.000 C 
ATOM     24  C   UNL     1       9.802  11.587  18.136  0.00  0.00    +0.000 C 
ENDBRANCH  22  24
ENDBRANCH  21  22
ENDBRANCH  20  21
ENDBRANCH  19  20
ENDBRANCH   1  19
BRANCH  15  25
ATOM     25  C   UNL     1       6.372   4.158  16.772  0.00  0.00    +0.000 C 
BRANCH  25  26
ATOM     26  C   UNL     1       5.951   3.547  15.430  0.00  0.00    +0.000 C 
BRANCH  26  27
ATOM     27  C   UNL     1       5.633   4.518  14.288  0.00  0.00    +0.000 C 
BRANCH  27  28
ATOM     28  C   UNL     1       6.492   4.115  13.074  0.00  0.00    +0.000 C 
BRANCH  28  29
ATOM     29  C   UNL     1       5.896   2.987  12.240  0.00  0.00    +0.000 C 
ATOM     30  C   UNL     1       4.550   3.401  11.657  0.00  0.00    +0.000 C 
ENDBRANCH  28  29
ENDBRANCH  27  28
ENDBRANCH  26  27
ENDBRANCH  25  26
ENDBRANCH  15  25
TORSDOF 11
ENDMDL
MODEL 3
REMARK VINA RESULT:      -6.7      2.726      8.599
REMARK  Name = 
REMARK  14 active torsions:
REMARK  status: ('A' for Active; 'I' for Inactive)
REMARK    1  A    between atoms: C_1  and  C_2
REMARK    2  A    between atoms: C_2  and  C_3
REMARK    3  A    between atoms: C_3  and  C_4
REMARK    4  A    between atoms: C_4  and  C_5
REMARK    5  A    between atoms: C_5  and  C_6
REMARK    6  A    between atoms: C_6  and  N_7
REMARK    7  A    between atoms: C_11  and  C_12
REMARK    8  A    between atoms: C_13  and  O_14
REMARK    9  A    between atoms: N_22  and  C_23
REMARK   10  A    between atoms: C_23  and  C_24
REMARK   11  A    between atoms: C_24  and  C_25
REMARK   12  A    between atoms: C_25  and  C_26
REMARK   13  A    between atoms: C_26  and  C_27
REMARK   14  A    between atoms: C_27  and  C_28
REMARK                            x       y       z     vdW  Elec       q    Type
REMARK                         _______ _______ _______ _____ _____    ______ ____
ROOT
ATOM      1  N   UNL     1       3.315   6.015  18.194  0.00  0.00    +0.000 N 
ATOM      2  C   UNL     1       2.662   7.089  18.628  0.00  0.00    +0.000 A 
ATOM      3  S   UNL     1       2.649   8.492  17.653  0.00  0.00    +0.000 S 
ATOM      4  C   UNL     1       1.858   9.385  18.874  0.00  0.00    +0.000 A 
ATOM      5  C   UNL     1       1.618  10.778  18.782  0.00  0.00    +0.000 A 
ATOM      6  C   UNL     1       2.113  11.626  17.633  0.00  0.00    +0.000 C 
ATOM      7  C   UNL     1       0.879  11.337  19.823  0.00  0.00    +0.000 A 
ATOM      8  C   UNL     1       0.413  10.581  20.910  0.00  0.00    +0.000 A 
ATOM      9  C   UNL     1      -0.334  11.234  21.909  0.00  0.00    +0.000 A 
ATOM     10  C   UNL     1      -0.831  10.560  23.014  0.00  0.00    +0.000 A 
ATOM     11  C   UNL     1      -0.605   9.201  23.130  0.00  0.00    +0.000 A 
ATOM     12  C   UNL     1       0.113   8.517  22.138  0.00  0.00    +0.000 A 
ATOM     13  C   UNL     1       0.674   9.172  21.002  0.00  0.00    +0.000 A 
ATOM     14  C   UNL     1       1.465   8.555  19.936  0.00  0.00    +0.000 A 
ATOM     15  N   UNL     1       1.960   7.214  19.769  0.00  0.00    +0.000 N 
ATOM     16  H   UNL     1       2.782   5.159  18.207  0.00  0.00    +0.000 HD
ENDROOT
BRANCH   7  17
ATOM     17  O   UNL     1       0.589  12.680  19.806  0.00  0.00    +0.000 OA
ATOM     18  H   UNL     1      -0.302  12.861  20.143  0.00  0.00    +0.000 HD
ENDBRANCH   7  17
BRANCH   1  19
ATOM     19  C   UNL     1       4.533   6.122  17.379  0.00  0.00    +0.000 C 
BRANCH  19  20
ATOM     20  C   UNL     1       5.254   4.790  17.324  0.00  0.00    +0.000 C 
BRANCH  20  21
ATOM     21  C   UNL     1       4.990   4.171  15.953  0.00  0.00    +0.000 C 
BRANCH  21  22
ATOM     22  C   UNL     1       6.222   4.174  15.063  0.00  0.00    +0.000 C 
BRANCH  22  24
ATOM     23  C   UNL     1       6.922   4.181  12.651  0.00  0.00    +0.000 C 
ATOM     24  C   UNL     1       5.832   3.796  13.635  0.00  0.00    +0.000 C 
ENDBRANCH  22  24
ENDBRANCH  21  22
ENDBRANCH  20  21
ENDBRANCH  19  20
ENDBRANCH   1  19
BRANCH  15  25
ATOM     25  C   UNL     1       1.807   6.156  20.817  0.00  0.00    +0.000 C 
BRANCH  25  26
ATOM     26  C   UNL     1       1.079   4.880  20.375  0.00  0.00    +0.000 C 
BRANCH  26  27
ATOM     27  C   UNL     1       1.422   3.585  21.119  0.00  0.00    +0.000 C 
BRANCH  27  28
ATOM     28  C   UNL     1       1.903   2.556  20.078  0.00  0.00    +0.000 C 
BRANCH  28  29
ATOM     29  C   UNL     1       1.520   2.901  18.643  0.00  0.00    +0.000 C 
ATOM     30  C   UNL     1       2.447   2.201  17.655  0.00  0.00    +0.000 C 
ENDBRANCH  28  29
ENDBRANCH  27  28
ENDBRANCH  26  27
ENDBRANCH  25  26
ENDBRANCH  15  25
TORSDOF 11
ENDMDL
MODEL 4
REMARK VINA RESULT:      -6.6      2.893      8.219
REMARK  Name = 
REMARK  14 active torsions:
REMARK  status: ('A' for Active; 'I' for Inactive)
REMARK    1  A    between atoms: C_1  and  C_2
REMARK    2  A    between atoms: C_2  and  C_3
REMARK    3  A    between atoms: C_3  and  C_4
REMARK    4  A    between atoms: C_4  and  C_5
REMARK    5  A    between atoms: C_5  and  C_6
REMARK    6  A    between atoms: C_6  and  N_7
REMARK    7  A    between atoms: C_11  and  C_12
REMARK    8  A    between atoms: C_13  and  O_14
REMARK    9  A    between atoms: N_22  and  C_23
REMARK   10  A    between atoms: C_23  and  C_24
REMARK   11  A    between atoms: C_24  and  C_25
REMARK   12  A    between atoms: C_25  and  C_26
REMARK   13  A    between atoms: C_26  and  C_27
REMARK   14  A    between atoms: C_27  and  C_28
REMARK                            x       y       z     vdW  Elec       q    Type
REMARK                         _______ _______ _______ _____ _____    ______ ____
ROOT
ATOM      1  N   UNL     1       3.046   6.328  18.025  0.00  0.00    +0.000 N 
ATOM      2  C   UNL     1       2.449   7.408  18.521  0.00  0.00    +0.000 A 
ATOM      3  S   UNL     1       2.523   8.866  17.635  0.00  0.00    +0.000 S 
ATOM      4  C   UNL     1       1.769   9.725  18.905  0.00  0.00    +0.000 A 
ATOM      5  C   UNL     1       1.607  11.132  18.898  0.00  0.00    +0.000 A 
ATOM      6  C   UNL     1       2.159  12.021  17.807  0.00  0.00    +0.000 C 
ATOM      7  C   UNL     1       0.890  11.666  19.968  0.00  0.00    +0.000 A 
ATOM      8  C   UNL     1       0.373  10.871  21.002  0.00  0.00    +0.000 A 
ATOM      9  C   UNL     1      -0.346  11.501  22.036  0.00  0.00    +0.000 A 
ATOM     10  C   UNL     1      -0.890  10.789  23.093  0.00  0.00    +0.000 A 
ATOM     11  C   UNL     1      -0.741   9.415  23.125  0.00  0.00    +0.000 A 
ATOM     12  C   UNL     1      -0.051   8.755  22.097  0.00  0.00    +0.000 A 
ATOM     13  C   UNL     1       0.556   9.447  21.008  0.00  0.00    +0.000 A 
ATOM     14  C   UNL     1       1.321   8.854  19.911  0.00  0.00    +0.000 A 
ATOM     15  N   UNL     1       1.744   7.501  19.664  0.00  0.00    +0.000 N 
ATOM     16  H   UNL     1       2.467   5.504  17.982  0.00  0.00    +0.000 HD
ENDROOT
BRANCH   7  17
ATOM     17  O   UNL     1       0.674  13.021  20.032  0.00  0.00    +0.000 OA
ATOM     18  H   UNL     1      -0.229  13.256  19.769  0.00  0.00    +0.000 HD
ENDBRANCH   7  17
BRANCH   1  19
ATOM     19  C   UNL     1       4.276   6.417  17.227  0.00  0.00    +0.000 C 
BRANCH  19  20
ATOM     20  C   UNL     1       4.865   5.040  17.002  0.00  0.00    +0.000 C 
BRANCH  20  21
ATOM     21  C   UNL     1       5.855   4.763  18.132  0.00  0.00    +0.000 C 
BRANCH  21  22
ATOM     22  C   UNL     1       7.278   5.158  17.773  0.00  0.00    +0.000 C 
BRANCH  22  24
ATOM     23  C   UNL     1       7.776   7.615  17.618  0.00  0.00    +0.000 C 
ATOM     24  C   UNL     1       7.679   6.415  18.543  0.00  0.00    +0.000 C 
ENDBRANCH  22  24
ENDBRANCH  21  22
ENDBRANCH  20  21
ENDBRANCH  19  20
ENDBRANCH   1  19
BRANCH  15  25
ATOM     25  C   UNL     1       1.523   6.390  20.643  0.00  0.00    +0.000 C 
BRANCH  25  26
ATOM     26  C   UNL     1       2.025   5.008  20.207  0.00  0.00    +0.000 C 
BRANCH  26  27
ATOM     27  C   UNL     1       1.285   3.787  20.764  0.00  0.00    +0.000 C 
BRANCH  27  28
ATOM     28  C   UNL     1       0.888   2.893  19.573  0.00  0.00    +0.000 C 
BRANCH  28  29
ATOM     29  C   UNL     1       1.611   3.233  18.274  0.00  0.00    +0.000 C 
ATOM     30  C   UNL     1       2.545   2.100  17.866  0.00  0.00    +0.000 C 
ENDBRANCH  28  29
ENDBRANCH  27  28
ENDBRANCH  26  27
ENDBRANCH  25  26
ENDBRANCH  15  25
TORSDOF 11
ENDMDL
MODEL 5
REMARK VINA RESULT:      -6.6      3.604      8.128
REMARK  Name = 
REMARK  14 active torsions:
REMARK  status: ('A' for Active; 'I' for Inactive)
REMARK    1  A    between atoms: C_1  and  C_2
REMARK    2  A    between atoms: C_2  and  C_3
REMARK    3  A    between atoms: C_3  and  C_4
REMARK    4  A    between atoms: C_4  and  C_5
REMARK    5  A    between atoms: C_5  and  C_6
REMARK    6  A    between atoms: C_6  and  N_7
REMARK    7  A    between atoms: C_11  and  C_12
REMARK    8  A    between atoms: C_13  and  O_14
REMARK    9  A    between atoms: N_22  and  C_23
REMARK   10  A    between atoms: C_23  and  C_24
REMARK   11  A    between atoms: C_24  and  C_25
REMARK   12  A    between atoms: C_25  and  C_26
REMARK   13  A    between atoms: C_26  and  C_27
REMARK   14  A    between atoms: C_27  and  C_28
REMARK                            x       y       z     vdW  Elec       q    Type
REMARK                         _______ _______ _______ _____ _____    ______ ____
ROOT
ATOM      1  N   UNL     1       6.283   4.931  14.921  0.00  0.00    +0.000 N 
ATOM      2  C   UNL     1       5.509   4.717  15.981  0.00  0.00    +0.000 A 
ATOM      3  S   UNL     1       5.312   3.115  16.542  0.00  0.00    +0.000 S 
ATOM      4  C   UNL     1       4.142   3.614  17.683  0.00  0.00    +0.000 A 
ATOM      5  C   UNL     1       3.404   2.706  18.481  0.00  0.00    +0.000 A 
ATOM      6  C   UNL     1       3.516   1.206  18.343  0.00  0.00    +0.000 C 
ATOM      7  C   UNL     1       2.556   3.280  19.427  0.00  0.00    +0.000 A 
ATOM      8  C   UNL     1       2.420   4.670  19.575  0.00  0.00    +0.000 A 
ATOM      9  C   UNL     1       1.544   5.155  20.565  0.00  0.00    +0.000 A 
ATOM     10  C   UNL     1       1.353   6.512  20.777  0.00  0.00    +0.000 A 
ATOM     11  C   UNL     1       2.059   7.417  20.007  0.00  0.00    +0.000 A 
ATOM     12  C   UNL     1       2.958   6.965  19.029  0.00  0.00    +0.000 A 
ATOM     13  C   UNL     1       3.162   5.581  18.751  0.00  0.00    +0.000 A 
ATOM     14  C   UNL     1       4.047   5.014  17.733  0.00  0.00    +0.000 A 
ATOM     15  N   UNL     1       4.853   5.635  16.715  0.00  0.00    +0.000 N 
ATOM     16  H   UNL     1       6.987   5.642  15.046  0.00  0.00    +0.000 HD
ENDROOT
BRANCH   7  17
ATOM     17  O   UNL     1       1.812   2.473  20.252  0.00  0.00    +0.000 OA
ATOM     18  H   UNL     1       1.082   2.046  19.778  0.00  0.00    +0.000 HD
ENDBRANCH   7  17
BRANCH   1  19
ATOM     19  C   UNL     1       6.395   3.955  13.829  0.00  0.00    +0.000 C 
BRANCH  19  20
ATOM     20  C   UNL     1       5.063   3.788  13.126  0.00  0.00    +0.000 C 
BRANCH  20  21
ATOM     21  C   UNL     1       5.280   2.875  11.922  0.00  0.00    +0.000 C 
BRANCH  21  22
ATOM     22  C   UNL     1       4.801   3.499  10.621  0.00  0.00    +0.000 C 
BRANCH  22  24
ATOM     23  C   UNL     1       2.730   4.382   9.508  0.00  0.00    +0.000 C 
ATOM     24  C   UNL     1       3.280   3.400  10.526  0.00  0.00    +0.000 C 
ENDBRANCH  22  24
ENDBRANCH  21  22
ENDBRANCH  20  21
ENDBRANCH  19  20
ENDBRANCH   1  19
BRANCH  15  25
ATOM     25  C   UNL     1       4.834   7.108  16.451  0.00  0.00    +0.000 C 
BRANCH  25  26
ATOM     26  C   UNL     1       5.992   7.909  17.060  0.00  0.00    +0.000 C 
BRANCH  26  27
ATOM     27  C   UNL     1       7.034   7.128  17.868  0.00  0.00    +0.000 C 
BRANCH  27  28
ATOM     28  C   UNL     1       8.308   7.991  17.953  0.00  0.00    +0.000 C 
BRANCH  28  29
ATOM     29  C   UNL     1       8.038   9.491  17.998  0.00  0.00    +0.000 C 
ATOM     30  C   UNL     1       9.096  10.203  18.834  0.00  0.00    +0.000 C 
ENDBRANCH  28  29
ENDBRANCH  27  28
ENDBRANCH  26  27
ENDBRANCH  25  26
ENDBRANCH  15  25
TORSDOF 11
ENDMDL
MODEL 6
REMARK VINA RESULT:      -6.6      2.956      8.110
REMARK  Name = 
REMARK  14 active torsions:
REMARK  status: ('A' for Active; 'I' for Inactive)
REMARK    1  A    between atoms: C_1  and  C_2
REMARK    2  A    between atoms: C_2  and  C_3
REMARK    3  A    between atoms: C_3  and  C_4
REMARK    4  A    between atoms: C_4  and  C_5
REMARK    5  A    between atoms: C_5  and  C_6
REMARK    6  A    between atoms: C_6  and  N_7
REMARK    7  A    between atoms: C_11  and  C_12
REMARK    8  A    between atoms: C_13  and  O_14
REMARK    9  A    between atoms: N_22  and  C_23
REMARK   10  A    between atoms: C_23  and  C_24
REMARK   11  A    between atoms: C_24  and  C_25
REMARK   12  A    between atoms: C_25  and  C_26
REMARK   13  A    between atoms: C_26  and  C_27
REMARK   14  A    between atoms: C_27  and  C_28
REMARK                            x       y       z     vdW  Elec       q    Type
REMARK                         _______ _______ _______ _____ _____    ______ ____
ROOT
ATOM      1  N   UNL     1       3.305   5.971  18.196  0.00  0.00    +0.000 N 
ATOM      2  C   UNL     1       2.666   7.054  18.628  0.00  0.00    +0.000 A 
ATOM      3  S   UNL     1       2.689   8.462  17.660  0.00  0.00    +0.000 S 
ATOM      4  C   UNL     1       1.899   9.363  18.877  0.00  0.00    +0.000 A 
ATOM      5  C   UNL     1       1.685  10.760  18.789  0.00  0.00    +0.000 A 
ATOM      6  C   UNL     1       2.209  11.605  17.650  0.00  0.00    +0.000 C 
ATOM      7  C   UNL     1       0.944  11.328  19.825  0.00  0.00    +0.000 A 
ATOM      8  C   UNL     1       0.452  10.574  20.902  0.00  0.00    +0.000 A 
ATOM      9  C   UNL     1      -0.294  11.236  21.896  0.00  0.00    +0.000 A 
ATOM     10  C   UNL     1      -0.816  10.565  22.992  0.00  0.00    +0.000 A 
ATOM     11  C   UNL     1      -0.616   9.202  23.103  0.00  0.00    +0.000 A 
ATOM     12  C   UNL     1       0.102   8.510  22.116  0.00  0.00    +0.000 A 
ATOM     13  C   UNL     1       0.688   9.161  20.990  0.00  0.00    +0.000 A 
ATOM     14  C   UNL     1       1.479   8.534  19.930  0.00  0.00    +0.000 A 
ATOM     15  N   UNL     1       1.953   7.186  19.762  0.00  0.00    +0.000 N 
ATOM     16  H   UNL     1       2.757   5.125  18.199  0.00  0.00    +0.000 HD
ENDROOT
BRANCH   7  17
ATOM     17  O   UNL     1       0.678  12.675  19.811  0.00  0.00    +0.000 OA
ATOM     18  H   UNL     1       0.919  13.099  20.649  0.00  0.00    +0.000 HD
ENDBRANCH   7  17
BRANCH   1  19
ATOM     19  C   UNL     1       4.534   6.060  17.397  0.00  0.00    +0.000 C 
BRANCH  19  20
ATOM     20  C   UNL     1       5.704   5.465  18.153  0.00  0.00    +0.000 C 
BRANCH  20  21
ATOM     21  C   UNL     1       6.987   5.888  17.440  0.00  0.00    +0.000 C 
BRANCH  21  22
ATOM     22  C   UNL     1       7.110   7.397  17.304  0.00  0.00    +0.000 C 
BRANCH  22  24
ATOM     23  C   UNL     1       8.365   9.418  18.109  0.00  0.00    +0.000 C 
ATOM     24  C   UNL     1       8.189   7.917  18.252  0.00  0.00    +0.000 C 
ENDBRANCH  22  24
ENDBRANCH  21  22
ENDBRANCH  20  21
ENDBRANCH  19  20
ENDBRANCH   1  19
BRANCH  15  25
ATOM     25  C   UNL     1       1.769   6.126  20.803  0.00  0.00    +0.000 C 
BRANCH  25  26
ATOM     26  C   UNL     1       0.883   4.942  20.398  0.00  0.00    +0.000 C 
BRANCH  26  27
ATOM     27  C   UNL     1       1.379   3.539  20.764  0.00  0.00    +0.000 C 
BRANCH  27  28
ATOM     28  C   UNL     1       2.857   3.436  20.341  0.00  0.00    +0.000 C 
BRANCH  28  29
ATOM     29  C   UNL     1       3.152   2.277  19.396  0.00  0.00    +0.000 C 
ATOM     30  C   UNL     1       2.389   2.442  18.086  0.00  0.00    +0.000 C 
ENDBRANCH  28  29
ENDBRANCH  27  28
ENDBRANCH  26  27
ENDBRANCH  25  26
ENDBRANCH  15  25
TORSDOF 11
ENDMDL
MODEL 7
REMARK VINA RESULT:      -6.5      0.873      1.281
REMARK  Name = 
REMARK  14 active torsions:
REMARK  status: ('A' for Active; 'I' for Inactive)
REMARK    1  A    between atoms: C_1  and  C_2
REMARK    2  A    between atoms: C_2  and  C_3
REMARK    3  A    between atoms: C_3  and  C_4
REMARK    4  A    between atoms: C_4  and  C_5
REMARK    5  A    between atoms: C_5  and  C_6
REMARK    6  A    between atoms: C_6  and  N_7
REMARK    7  A    between atoms: C_11  and  C_12
REMARK    8  A    between atoms: C_13  and  O_14
REMARK    9  A    between atoms: N_22  and  C_23
REMARK   10  A    between atoms: C_23  and  C_24
REMARK   11  A    between atoms: C_24  and  C_25
REMARK   12  A    between atoms: C_25  and  C_26
REMARK   13  A    between atoms: C_26  and  C_27
REMARK   14  A    between atoms: C_27  and  C_28
REMARK                            x       y       z     vdW  Elec       q    Type
REMARK                         _______ _______ _______ _____ _____    ______ ____
ROOT
ATOM      1  N   UNL     1       1.245   8.486  20.476  0.00  0.00    +0.000 N 
ATOM      2  C   UNL     1       1.852   7.441  19.922  0.00  0.00    +0.000 A 
ATOM      3  S   UNL     1       1.654   5.903  20.639  0.00  0.00    +0.000 S 
ATOM      4  C   UNL     1       2.787   5.209  19.566  0.00  0.00    +0.000 A 
ATOM      5  C   UNL     1       3.239   3.872  19.676  0.00  0.00    +0.000 A 
ATOM      6  C   UNL     1       2.828   2.952  20.802  0.00  0.00    +0.000 C 
ATOM      7  C   UNL     1       4.094   3.435  18.665  0.00  0.00    +0.000 A 
ATOM      8  C   UNL     1       4.503   4.265  17.610  0.00  0.00    +0.000 A 
ATOM      9  C   UNL     1       5.362   3.730  16.631  0.00  0.00    +0.000 A 
ATOM     10  C   UNL     1       5.812   4.483  15.557  0.00  0.00    +0.000 A 
ATOM     11  C   UNL     1       5.390   5.792  15.432  0.00  0.00    +0.000 A 
ATOM     12  C   UNL     1       4.514   6.347  16.377  0.00  0.00    +0.000 A 
ATOM     13  C   UNL     1       4.052   5.624  17.516  0.00  0.00    +0.000 A 
ATOM     14  C   UNL     1       3.169   6.124  18.571  0.00  0.00    +0.000 A 
ATOM     15  N   UNL     1       2.613   7.429  18.812  0.00  0.00    +0.000 N 
ATOM     16  H   UNL     1       0.697   9.046  19.841  0.00  0.00    +0.000 HD
ENDROOT
BRANCH   7  17
ATOM     17  O   UNL     1       4.569   2.146  18.687  0.00  0.00    +0.000 OA
ATOM     18  H   UNL     1       4.449   1.732  19.555  0.00  0.00    +0.000 HD
ENDBRANCH   7  17
BRANCH   1  19
ATOM     19  C   UNL     1       1.036   8.586  21.927  0.00  0.00    +0.000 C 
BRANCH  19  20
ATOM     20  C   UNL     1      -0.426   8.833  22.237  0.00  0.00    +0.000 C 
BRANCH  20  21
ATOM     21  C   UNL     1      -0.523  10.131  23.036  0.00  0.00    +0.000 C 
BRANCH  21  22
ATOM     22  C   UNL     1      -0.306  11.365  22.175  0.00  0.00    +0.000 C 
BRANCH  22  24
ATOM     23  C   UNL     1      -2.506  11.872  23.276  0.00  0.00    +0.000 C 
ATOM     24  C   UNL     1      -1.293  12.459  22.577  0.00  0.00    +0.000 C 
ENDBRANCH  22  24
ENDBRANCH  21  22
ENDBRANCH  20  21
ENDBRANCH  19  20
ENDBRANCH   1  19
BRANCH  15  25
ATOM     25  C   UNL     1       2.965   8.627  17.986  0.00  0.00    +0.000 C 
BRANCH  25  26
ATOM     26  C   UNL     1       1.835   9.639  17.764  0.00  0.00    +0.000 C 
BRANCH  26  27
ATOM     27  C   UNL     1       2.141  11.109  18.073  0.00  0.00    +0.000 C 
BRANCH  27  28
ATOM     28  C   UNL     1       0.922  11.700  18.809  0.00  0.00    +0.000 C 
BRANCH  28  29
ATOM     29  C   UNL     1       0.736  13.198  18.596  0.00  0.00    +0.000 C 
ATOM     30  C   UNL     1       2.086  13.896  18.474  0.00  0.00    +0.000 C 
ENDBRANCH  28  29
ENDBRANCH  27  28
ENDBRANCH  26  27
ENDBRANCH  25  26
ENDBRANCH  15  25
TORSDOF 11
ENDMDL
MODEL 8
REMARK VINA RESULT:      -6.5      1.371      4.337
REMARK  Name = 
REMARK  14 active torsions:
REMARK  status: ('A' for Active; 'I' for Inactive)
REMARK    1  A    between atoms: C_1  and  C_2
REMARK    2  A    between atoms: C_2  and  C_3
REMARK    3  A    between atoms: C_3  and  C_4
REMARK    4  A    between atoms: C_4  and  C_5
REMARK    5  A    between atoms: C_5  and  C_6
REMARK    6  A    between atoms: C_6  and  N_7
REMARK    7  A    between atoms: C_11  and  C_12
REMARK    8  A    between atoms: C_13  and  O_14
REMARK    9  A    between atoms: N_22  and  C_23
REMARK   10  A    between atoms: C_23  and  C_24
REMARK   11  A    between atoms: C_24  and  C_25
REMARK   12  A    between atoms: C_25  and  C_26
REMARK   13  A    between atoms: C_26  and  C_27
REMARK   14  A    between atoms: C_27  and  C_28
REMARK                            x       y       z     vdW  Elec       q    Type
REMARK                         _______ _______ _______ _____ _____    ______ ____
ROOT
ATOM      1  N   UNL     1       1.185   9.626  19.333  0.00  0.00    +0.000 N 
ATOM      2  C   UNL     1       1.845   8.477  19.230  0.00  0.00    +0.000 A 
ATOM      3  S   UNL     1       2.982   8.293  17.968  0.00  0.00    +0.000 S 
ATOM      4  C   UNL     1       3.220   6.649  18.365  0.00  0.00    +0.000 A 
ATOM      5  C   UNL     1       4.014   5.773  17.586  0.00  0.00    +0.000 A 
ATOM      6  C   UNL     1       4.661   6.182  16.283  0.00  0.00    +0.000 C 
ATOM      7  C   UNL     1       4.181   4.487  18.099  0.00  0.00    +0.000 A 
ATOM      8  C   UNL     1       3.587   4.070  19.301  0.00  0.00    +0.000 A 
ATOM      9  C   UNL     1       3.820   2.753  19.742  0.00  0.00    +0.000 A 
ATOM     10  C   UNL     1       3.272   2.263  20.917  0.00  0.00    +0.000 A 
ATOM     11  C   UNL     1       2.489   3.098  21.691  0.00  0.00    +0.000 A 
ATOM     12  C   UNL     1       2.258   4.423  21.292  0.00  0.00    +0.000 A 
ATOM     13  C   UNL     1       2.771   4.962  20.075  0.00  0.00    +0.000 A 
ATOM     14  C   UNL     1       2.558   6.314  19.557  0.00  0.00    +0.000 A 
ATOM     15  N   UNL     1       1.750   7.403  20.037  0.00  0.00    +0.000 N 
ATOM     16  H   UNL     1       1.208  10.049  20.248  0.00  0.00    +0.000 HD
ENDROOT
BRANCH   7  17
ATOM     17  O   UNL     1       4.948   3.575  17.414  0.00  0.00    +0.000 OA
ATOM     18  H   UNL     1       4.554   2.689  17.428  0.00  0.00    +0.000 HD
ENDBRANCH   7  17
BRANCH   1  19
ATOM     19  C   UNL     1       0.821  10.422  18.153  0.00  0.00    +0.000 C 
BRANCH  19  20
ATOM     20  C   UNL     1      -0.380  11.296  18.451  0.00  0.00    +0.000 C 
BRANCH  20  21
ATOM     21  C   UNL     1      -1.597  10.386  18.599  0.00  0.00    +0.000 C 
BRANCH  21  22
ATOM     22  C   UNL     1      -2.688  10.699  17.588  0.00  0.00    +0.000 C 
BRANCH  22  24
ATOM     23  C   UNL     1      -2.953  10.539  15.095  0.00  0.00    +0.000 C 
ATOM     24  C   UNL     1      -2.526   9.810  16.356  0.00  0.00    +0.000 C 
ENDBRANCH  22  24
ENDBRANCH  21  22
ENDBRANCH  20  21
ENDBRANCH  19  20
ENDBRANCH   1  19
BRANCH  15  25
ATOM     25  C   UNL     1       0.831   7.277  21.212  0.00  0.00    +0.000 C 
BRANCH  25  26
ATOM     26  C   UNL     1      -0.012   8.516  21.535  0.00  0.00    +0.000 C 
BRANCH  26  27
ATOM     27  C   UNL     1       0.334   9.284  22.815  0.00  0.00    +0.000 C 
BRANCH  27  28
ATOM     28  C   UNL     1      -0.842  10.228  23.131  0.00  0.00    +0.000 C 
BRANCH  28  29
ATOM     29  C   UNL     1      -0.975  11.399  22.162  0.00  0.00    +0.000 C 
ATOM     30  C   UNL     1      -1.124  12.712  22.923  0.00  0.00    +0.000 C 
ENDBRANCH  28  29
ENDBRANCH  27  28
ENDBRANCH  26  27
ENDBRANCH  25  26
ENDBRANCH  15  25
TORSDOF 11
ENDMDL
MODEL 9
REMARK VINA RESULT:      -6.5      3.552      8.524
REMARK  Name = 
REMARK  14 active torsions:
REMARK  status: ('A' for Active; 'I' for Inactive)
REMARK    1  A    between atoms: C_1  and  C_2
REMARK    2  A    between atoms: C_2  and  C_3
REMARK    3  A    between atoms: C_3  and  C_4
REMARK    4  A    between atoms: C_4  and  C_5
REMARK    5  A    between atoms: C_5  and  C_6
REMARK    6  A    between atoms: C_6  and  N_7
REMARK    7  A    between atoms: C_11  and  C_12
REMARK    8  A    between atoms: C_13  and  O_14
REMARK    9  A    between atoms: N_22  and  C_23
REMARK   10  A    between atoms: C_23  and  C_24
REMARK   11  A    between atoms: C_24  and  C_25
REMARK   12  A    between atoms: C_25  and  C_26
REMARK   13  A    between atoms: C_26  and  C_27
REMARK   14  A    between atoms: C_27  and  C_28
REMARK                            x       y       z     vdW  Elec       q    Type
REMARK                         _______ _______ _______ _____ _____    ______ ____
ROOT
ATOM      1  N   UNL     1       6.283   4.918  14.956  0.00  0.00    +0.000 N 
ATOM      2  C   UNL     1       5.502   4.725  16.016  0.00  0.00    +0.000 A 
ATOM      3  S   UNL     1       5.308   3.137  16.613  0.00  0.00    +0.000 S 
ATOM      4  C   UNL     1       4.129   3.657  17.734  0.00  0.00    +0.000 A 
ATOM      5  C   UNL     1       3.389   2.766  18.548  0.00  0.00    +0.000 A 
ATOM      6  C   UNL     1       3.508   1.263  18.447  0.00  0.00    +0.000 C 
ATOM      7  C   UNL     1       2.532   3.359  19.474  0.00  0.00    +0.000 A 
ATOM      8  C   UNL     1       2.390   4.750  19.589  0.00  0.00    +0.000 A 
ATOM      9  C   UNL     1       1.505   5.255  20.561  0.00  0.00    +0.000 A 
ATOM     10  C   UNL     1       1.307   6.616  20.739  0.00  0.00    +0.000 A 
ATOM     11  C   UNL     1       2.014   7.506  19.952  0.00  0.00    +0.000 A 
ATOM     12  C   UNL     1       2.921   7.034  18.992  0.00  0.00    +0.000 A 
ATOM     13  C   UNL     1       3.133   5.645  18.748  0.00  0.00    +0.000 A 
ATOM     14  C   UNL     1       4.028   5.058  17.750  0.00  0.00    +0.000 A 
ATOM     15  N   UNL     1       4.837   5.658  16.723  0.00  0.00    +0.000 N 
ATOM     16  H   UNL     1       6.983   5.635  15.069  0.00  0.00    +0.000 HD
ENDROOT
BRANCH   7  17
ATOM     17  O   UNL     1       1.786   2.567  20.314  0.00  0.00    +0.000 OA
ATOM     18  H   UNL     1       1.615   3.003  21.163  0.00  0.00    +0.000 HD
ENDBRANCH   7  17
BRANCH   1  19
ATOM     19  C   UNL     1       6.406   3.917  13.889  0.00  0.00    +0.000 C 
BRANCH  19  20
ATOM     20  C   UNL     1       5.126   3.838  13.082  0.00  0.00    +0.000 C 
BRANCH  20  21
ATOM     21  C   UNL     1       5.433   3.091  11.786  0.00  0.00    +0.000 C 
BRANCH  21  22
ATOM     22  C   UNL     1       6.923   2.995  11.506  0.00  0.00    +0.000 C 
BRANCH  22  24
ATOM     23  C   UNL     1       6.057   0.684  11.038  0.00  0.00    +0.000 C 
ATOM     24  C   UNL     1       7.265   1.602  10.981  0.00  0.00    +0.000 C 
ENDBRANCH  22  24
ENDBRANCH  21  22
ENDBRANCH  20  21
ENDBRANCH  19  20
ENDBRANCH   1  19
BRANCH  15  25
ATOM     25  C   UNL     1       4.814   7.124  16.424  0.00  0.00    +0.000 C 
BRANCH  25  26
ATOM     26  C   UNL     1       5.841   7.975  17.183  0.00  0.00    +0.000 C 
BRANCH  26  27
ATOM     27  C   UNL     1       7.015   7.238  17.835  0.00  0.00    +0.000 C 
BRANCH  27  28
ATOM     28  C   UNL     1       8.288   8.073  17.594  0.00  0.00    +0.000 C 
BRANCH  28  29
ATOM     29  C   UNL     1       8.151   9.540  17.989  0.00  0.00    +0.000 C 
ATOM     30  C   UNL     1       9.144   9.896  19.090  0.00  0.00    +0.000 C 
ENDBRANCH  28  29
ENDBRANCH  27  28
ENDBRANCH  26  27
ENDBRANCH  25  26
ENDBRANCH  15  25
TORSDOF 11
ENDMDL
