MODEL 1
REMARK VINA RESULT:      -6.8      0.000      0.000
REMARK  Name = 
REMARK  6 active torsions:
REMARK  status: ('A' for Active; 'I' for Inactive)
REMARK    1  A    between atoms: C_1  and  C_2
REMARK    2  A    between atoms: C_5  and  S_6
REMARK    3  A    between atoms: S_6  and  C_9
REMARK    4  A    between atoms: C_11  and  S_12
REMARK    5  A    between atoms: S_12  and  C_13
REMARK    6  A    between atoms: C_17  and  N_18
REMARK                            x       y       z     vdW  Elec       q    Type
REMARK                         _______ _______ _______ _____ _____    ______ ____
ROOT
ATOM      1  C   UNL     1      -0.145  13.121  21.867  0.00  0.00    +0.000 A 
ATOM      2  N   UNL     1       1.151  13.654  21.729  0.00  0.00    +0.000 NA
ATOM      3  C   UNL     1       1.118  14.941  21.975  0.00  0.00    +0.000 A 
ATOM      4  S   UNL     1      -0.403  15.617  22.276  0.00  0.00    +0.000 S 
ATOM      5  C   UNL     1      -1.146  14.035  22.231  0.00  0.00    +0.000 A 
ENDROOT
BRANCH   5   6
ATOM      6  N   UNL     1      -2.472  13.868  22.575  0.00  0.00    +0.000 N 
ATOM      7  C   UNL     1      -2.866  13.805  23.995  0.00  0.00    +0.000 C 
ATOM      8  C   UNL     1      -4.050  12.858  24.136  0.00  0.00    +0.000 C 
ATOM      9  C   UNL     1      -5.209  13.286  23.240  0.00  0.00    +0.000 C 
ATOM     10  C   UNL     1      -4.757  13.536  21.799  0.00  0.00    +0.000 C 
ATOM     11  C   UNL     1      -3.538  14.452  21.746  0.00  0.00    +0.000 C 
ATOM     12  O   UNL     1      -5.800  14.483  23.787  0.00  0.00    +0.000 OA
ATOM     13  C   UNL     1      -7.204  14.229  23.802  0.00  0.00    +0.000 C 
ATOM     14  C   UNL     1      -7.299  12.740  23.979  0.00  0.00    +0.000 C 
ATOM     15  O   UNL     1      -6.200  12.240  23.223  0.00  0.00    +0.000 OA
ENDBRANCH   5   6
BRANCH   3  16
ATOM     16  S   UNL     1       2.515  16.026  22.035  0.00  0.00    +0.000 S 
ATOM     17  C   UNL     1       3.219  15.900  20.414  0.00  0.00    +0.000 C 
ATOM     18  O   UNL     1       1.981  17.364  22.206  0.00  0.00    +0.000 OA
ATOM     19  O   UNL     1       3.443  15.438  22.983  0.00  0.00    +0.000 OA
ENDBRANCH   3  16
BRANCH   1  20
ATOM     20  S   UNL     1      -0.331  11.386  21.693  0.00  0.00    +0.000 S 
ATOM     21  O   UNL     1      -1.366  10.997  22.628  0.00  0.00    +0.000 OA
ATOM     22  O   UNL     1       1.014  10.842  21.736  0.00  0.00    +0.000 OA
BRANCH  20  27
ATOM     23  C   UNL     1      -2.555  10.464  16.103  0.00  0.00    +0.000 C 
ATOM     24  C   UNL     1      -1.992  10.711  17.473  0.00  0.00    +0.000 A 
ATOM     25  C   UNL     1      -0.862  10.014  17.917  0.00  0.00    +0.000 A 
ATOM     26  C   UNL     1      -0.355  10.231  19.199  0.00  0.00    +0.000 A 
ATOM     27  C   UNL     1      -0.987  11.144  20.052  0.00  0.00    +0.000 A 
ATOM     28  C   UNL     1      -2.097  11.871  19.613  0.00  0.00    +0.000 A 
ATOM     29  C   UNL     1      -2.598  11.647  18.325  0.00  0.00    +0.000 A 
ENDBRANCH  20  27
ENDBRANCH   1  20
TORSDOF 4
ENDMDL
MODEL 2
REMARK VINA RESULT:      -6.7      1.980      6.214
REMARK  Name = 
REMARK  6 active torsions:
REMARK  status: ('A' for Active; 'I' for Inactive)
REMARK    1  A    between atoms: C_1  and  C_2
REMARK    2  A    between atoms: C_5  and  S_6
REMARK    3  A    between atoms: S_6  and  C_9
REMARK    4  A    between atoms: C_11  and  S_12
REMARK    5  A    between atoms: S_12  and  C_13
REMARK    6  A    between atoms: C_17  and  N_18
REMARK                            x       y       z     vdW  Elec       q    Type
REMARK                         _______ _______ _______ _____ _____    ______ ____
ROOT
ATOM      1  C   UNL     1      -0.699  12.368  22.317  0.00  0.00    +0.000 A 
ATOM      2  N   UNL     1      -1.819  12.316  23.170  0.00  0.00    +0.000 NA
ATOM      3  C   UNL     1      -2.135  13.532  23.542  0.00  0.00    +0.000 A 
ATOM      4  S   UNL     1      -1.116  14.775  23.020  0.00  0.00    +0.000 S 
ATOM      5  C   UNL     1      -0.192  13.649  22.053  0.00  0.00    +0.000 A 
ENDROOT
BRANCH   5   6
ATOM      6  N   UNL     1       0.787  14.098  21.189  0.00  0.00    +0.000 N 
ATOM      7  C   UNL     1       0.415  14.668  19.880  0.00  0.00    +0.000 C 
ATOM      8  C   UNL     1       1.496  14.319  18.866  0.00  0.00    +0.000 C 
ATOM      9  C   UNL     1       2.867  14.802  19.331  0.00  0.00    +0.000 C 
ATOM     10  C   UNL     1       3.171  14.366  20.766  0.00  0.00    +0.000 C 
ATOM     11  C   UNL     1       2.021  14.706  21.710  0.00  0.00    +0.000 C 
ATOM     12  O   UNL     1       2.908  16.240  19.232  0.00  0.00    +0.000 OA
ATOM     13  C   UNL     1       4.133  16.530  18.558  0.00  0.00    +0.000 C 
ATOM     14  C   UNL     1       4.353  15.330  17.681  0.00  0.00    +0.000 C 
ATOM     15  O   UNL     1       3.878  14.244  18.470  0.00  0.00    +0.000 OA
ENDBRANCH   5   6
BRANCH   3  16
ATOM     16  S   UNL     1      -3.536  13.988  24.523  0.00  0.00    +0.000 S 
ATOM     17  C   UNL     1      -4.647  14.728  23.358  0.00  0.00    +0.000 C 
ATOM     18  O   UNL     1      -4.120  12.746  24.995  0.00  0.00    +0.000 OA
ATOM     19  O   UNL     1      -3.075  15.020  25.433  0.00  0.00    +0.000 OA
ENDBRANCH   3  16
BRANCH   1  20
ATOM     20  S   UNL     1      -0.156  10.863  21.599  0.00  0.00    +0.000 S 
ATOM     21  O   UNL     1      -0.797   9.804  22.350  0.00  0.00    +0.000 OA
ATOM     22  O   UNL     1       1.286  10.984  21.483  0.00  0.00    +0.000 OA
BRANCH  20  27
ATOM     23  C   UNL     1      -2.537  10.695  16.000  0.00  0.00    +0.000 C 
ATOM     24  C   UNL     1      -1.933  10.756  17.374  0.00  0.00    +0.000 A 
ATOM     25  C   UNL     1      -0.877   9.907  17.727  0.00  0.00    +0.000 A 
ATOM     26  C   UNL     1      -0.333   9.952  19.012  0.00  0.00    +0.000 A 
ATOM     27  C   UNL     1      -0.855  10.842  19.958  0.00  0.00    +0.000 A 
ATOM     28  C   UNL     1      -1.887  11.717  19.611  0.00  0.00    +0.000 A 
ATOM     29  C   UNL     1      -2.426  11.666  18.320  0.00  0.00    +0.000 A 
ENDBRANCH  20  27
ENDBRANCH   1  20
TORSDOF 4
ENDMDL
MODEL 3
REMARK VINA RESULT:      -6.6      4.225      7.447
REMARK  Name = 
REMARK  6 active torsions:
REMARK  status: ('A' for Active; 'I' for Inactive)
REMARK    1  A    between atoms: C_1  and  C_2
REMARK    2  A    between atoms: C_5  and  S_6
REMARK    3  A    between atoms: S_6  and  C_9
REMARK    4  A    between atoms: C_11  and  S_12
REMARK    5  A    between atoms: S_12  and  C_13
REMARK    6  A    between atoms: C_17  and  N_18
REMARK                            x       y       z     vdW  Elec       q    Type
REMARK                         _______ _______ _______ _____ _____    ______ ____
ROOT
ATOM      1  C   UNL     1      -0.422  10.778  19.770  0.00  0.00    +0.000 A 
ATOM      2  N   UNL     1      -1.534  10.142  19.186  0.00  0.00    +0.000 NA
ATOM      3  C   UNL     1      -2.074  10.943  18.300  0.00  0.00    +0.000 A 
ATOM      4  S   UNL     1      -1.404  12.489  18.166  0.00  0.00    +0.000 S 
ATOM      5  C   UNL     1      -0.138  12.069  19.297  0.00  0.00    +0.000 A 
ENDROOT
BRANCH   5   6
ATOM      6  N   UNL     1       0.914  12.931  19.531  0.00  0.00    +0.000 N 
ATOM      7  C   UNL     1       1.791  13.347  18.420  0.00  0.00    +0.000 C 
ATOM      8  C   UNL     1       3.204  13.539  18.954  0.00  0.00    +0.000 C 
ATOM      9  C   UNL     1       3.228  14.539  20.106  0.00  0.00    +0.000 C 
ATOM     10  C   UNL     1       2.181  14.209  21.172  0.00  0.00    +0.000 C 
ATOM     11  C   UNL     1       0.805  13.983  20.553  0.00  0.00    +0.000 C 
ATOM     12  O   UNL     1       2.997  15.860  19.577  0.00  0.00    +0.000 OA
ATOM     13  C   UNL     1       4.016  16.675  20.155  0.00  0.00    +0.000 C 
ATOM     14  C   UNL     1       5.162  15.725  20.360  0.00  0.00    +0.000 C 
ATOM     15  O   UNL     1       4.527  14.504  20.730  0.00  0.00    +0.000 OA
ENDBRANCH   5   6
BRANCH   3  16
ATOM     16  S   UNL     1      -3.426  10.547  17.228  0.00  0.00    +0.000 S 
ATOM     17  C   UNL     1      -2.667  10.379  15.635  0.00  0.00    +0.000 C 
ATOM     18  O   UNL     1      -3.909   9.245  17.650  0.00  0.00    +0.000 OA
ATOM     19  O   UNL     1      -4.282  11.718  17.205  0.00  0.00    +0.000 OA
ENDBRANCH   3  16
BRANCH   1  20
ATOM     20  S   UNL     1       0.535   9.854  20.913  0.00  0.00    +0.000 S 
ATOM     21  O   UNL     1      -0.408   9.079  21.693  0.00  0.00    +0.000 OA
ATOM     22  O   UNL     1       1.456  10.804  21.509  0.00  0.00    +0.000 OA
BRANCH  20  27
ATOM     23  C   UNL     1       3.781   5.997  17.503  0.00  0.00    +0.000 C 
ATOM     24  C   UNL     1       2.958   6.937  18.336  0.00  0.00    +0.000 A 
ATOM     25  C   UNL     1       2.560   8.179  17.827  0.00  0.00    +0.000 A 
ATOM     26  C   UNL     1       1.813   9.059  18.613  0.00  0.00    +0.000 A 
ATOM     27  C   UNL     1       1.471   8.703  19.923  0.00  0.00    +0.000 A 
ATOM     28  C   UNL     1       1.833   7.454  20.434  0.00  0.00    +0.000 A 
ATOM     29  C   UNL     1       2.580   6.577  19.638  0.00  0.00    +0.000 A 
ENDBRANCH  20  27
ENDBRANCH   1  20
TORSDOF 4
ENDMDL
MODEL 4
REMARK VINA RESULT:      -6.6      3.999      7.009
REMARK  Name = 
REMARK  6 active torsions:
REMARK  status: ('A' for Active; 'I' for Inactive)
REMARK    1  A    between atoms: C_1  and  C_2
REMARK    2  A    between atoms: C_5  and  S_6
REMARK    3  A    between atoms: S_6  and  C_9
REMARK    4  A    between atoms: C_11  and  S_12
REMARK    5  A    between atoms: S_12  and  C_13
REMARK    6  A    between atoms: C_17  and  N_18
REMARK                            x       y       z     vdW  Elec       q    Type
REMARK                         _______ _______ _______ _____ _____    ______ ____
ROOT
ATOM      1  C   UNL     1      -0.539  10.668  19.815  0.00  0.00    +0.000 A 
ATOM      2  N   UNL     1      -1.460  10.036  18.956  0.00  0.00    +0.000 NA
ATOM      3  C   UNL     1      -1.970  10.926  18.140  0.00  0.00    +0.000 A 
ATOM      4  S   UNL     1      -1.500  12.533  18.379  0.00  0.00    +0.000 S 
ATOM      5  C   UNL     1      -0.366  12.046  19.617  0.00  0.00    +0.000 A 
ENDROOT
BRANCH   5   6
ATOM      6  N   UNL     1       0.517  12.957  20.163  0.00  0.00    +0.000 N 
ATOM      7  C   UNL     1       1.849  13.150  19.558  0.00  0.00    +0.000 C 
ATOM      8  C   UNL     1       2.848  13.473  20.660  0.00  0.00    +0.000 C 
ATOM      9  C   UNL     1       2.405  14.690  21.469  0.00  0.00    +0.000 C 
ATOM     10  C   UNL     1       0.953  14.568  21.936  0.00  0.00    +0.000 C 
ATOM     11  C   UNL     1       0.023  14.195  20.785  0.00  0.00    +0.000 C 
ATOM     12  O   UNL     1       2.565  15.869  20.655  0.00  0.00    +0.000 OA
ATOM     13  C   UNL     1       3.252  16.803  21.487  0.00  0.00    +0.000 C 
ATOM     14  C   UNL     1       4.077  15.936  22.395  0.00  0.00    +0.000 C 
ATOM     15  O   UNL     1       3.242  14.807  22.635  0.00  0.00    +0.000 OA
ENDBRANCH   5   6
BRANCH   3  16
ATOM     16  S   UNL     1      -3.087  10.595  16.808  0.00  0.00    +0.000 S 
ATOM     17  C   UNL     1      -4.654  11.152  17.421  0.00  0.00    +0.000 C 
ATOM     18  O   UNL     1      -2.683  11.463  15.717  0.00  0.00    +0.000 OA
ATOM     19  O   UNL     1      -3.137   9.152  16.669  0.00  0.00    +0.000 OA
ENDBRANCH   3  16
BRANCH   1  20
ATOM     20  S   UNL     1       0.358   9.654  20.929  0.00  0.00    +0.000 S 
ATOM     21  O   UNL     1      -0.614   8.773  21.544  0.00  0.00    +0.000 OA
ATOM     22  O   UNL     1       1.194  10.561  21.695  0.00  0.00    +0.000 OA
BRANCH  20  27
ATOM     23  C   UNL     1       3.999   6.280  17.408  0.00  0.00    +0.000 C 
ATOM     24  C   UNL     1       3.080   7.099  18.267  0.00  0.00    +0.000 A 
ATOM     25  C   UNL     1       2.600   8.337  17.821  0.00  0.00    +0.000 A 
ATOM     26  C   UNL     1       1.763   9.105  18.632  0.00  0.00    +0.000 A 
ATOM     27  C   UNL     1       1.411   8.642  19.906  0.00  0.00    +0.000 A 
ATOM     28  C   UNL     1       1.856   7.395  20.352  0.00  0.00    +0.000 A 
ATOM     29  C   UNL     1       2.693   6.631  19.532  0.00  0.00    +0.000 A 
ENDBRANCH  20  27
ENDBRANCH   1  20
TORSDOF 4
ENDMDL
MODEL 5
REMARK VINA RESULT:      -6.5      3.400      5.619
REMARK  Name = 
REMARK  6 active torsions:
REMARK  status: ('A' for Active; 'I' for Inactive)
REMARK    1  A    between atoms: C_1  and  C_2
REMARK    2  A    between atoms: C_5  and  S_6
REMARK    3  A    between atoms: S_6  and  C_9
REMARK    4  A    between atoms: C_11  and  S_12
REMARK    5  A    between atoms: S_12  and  C_13
REMARK    6  A    between atoms: C_17  and  N_18
REMARK                            x       y       z     vdW  Elec       q    Type
REMARK                         _______ _______ _______ _____ _____    ______ ____
ROOT
ATOM      1  C   UNL     1      -0.778  11.600  19.651  0.00  0.00    +0.000 A 
ATOM      2  N   UNL     1      -1.181  10.930  18.479  0.00  0.00    +0.000 NA
ATOM      3  C   UNL     1      -2.437  11.213  18.230  0.00  0.00    +0.000 A 
ATOM      4  S   UNL     1      -3.240  12.171  19.368  0.00  0.00    +0.000 S 
ATOM      5  C   UNL     1      -1.757  12.396  20.266  0.00  0.00    +0.000 A 
ENDROOT
BRANCH   5   6
ATOM      6  N   UNL     1      -1.700  13.277  21.328  0.00  0.00    +0.000 N 
ATOM      7  C   UNL     1      -1.033  14.583  21.171  0.00  0.00    +0.000 C 
ATOM      8  C   UNL     1      -0.383  14.966  22.494  0.00  0.00    +0.000 C 
ATOM      9  C   UNL     1      -1.404  14.978  23.627  0.00  0.00    +0.000 C 
ATOM     10  C   UNL     1      -2.230  13.690  23.668  0.00  0.00    +0.000 C 
ATOM     11  C   UNL     1      -2.805  13.350  22.297  0.00  0.00    +0.000 C 
ATOM     12  O   UNL     1      -2.272  16.117  23.455  0.00  0.00    +0.000 OA
ATOM     13  C   UNL     1      -2.317  16.746  24.736  0.00  0.00    +0.000 C 
ATOM     14  C   UNL     1      -0.979  16.427  25.340  0.00  0.00    +0.000 C 
ATOM     15  O   UNL     1      -0.709  15.104  24.883  0.00  0.00    +0.000 OA
ENDBRANCH   5   6
BRANCH   3  16
ATOM     16  S   UNL     1      -3.356  10.699  16.807  0.00  0.00    +0.000 S 
ATOM     17  C   UNL     1      -4.865  11.621  16.922  0.00  0.00    +0.000 C 
ATOM     18  O   UNL     1      -2.612  11.169  15.654  0.00  0.00    +0.000 OA
ATOM     19  O   UNL     1      -3.662   9.295  17.009  0.00  0.00    +0.000 OA
ENDBRANCH   3  16
BRANCH   1  20
ATOM     20  S   UNL     1       0.903  11.461  20.127  0.00  0.00    +0.000 S 
ATOM     21  O   UNL     1       0.907  11.384  21.573  0.00  0.00    +0.000 OA
ATOM     22  O   UNL     1       1.605  12.497  19.392  0.00  0.00    +0.000 OA
BRANCH  20  27
ATOM     23  C   UNL     1       2.660   6.001  18.089  0.00  0.00    +0.000 C 
ATOM     24  C   UNL     1       2.252   7.354  18.597  0.00  0.00    +0.000 A 
ATOM     25  C   UNL     1       1.856   7.526  19.929  0.00  0.00    +0.000 A 
ATOM     26  C   UNL     1       1.457   8.782  20.392  0.00  0.00    +0.000 A 
ATOM     27  C   UNL     1       1.439   9.873  19.515  0.00  0.00    +0.000 A 
ATOM     28  C   UNL     1       1.860   9.724  18.192  0.00  0.00    +0.000 A 
ATOM     29  C   UNL     1       2.261   8.462  17.737  0.00  0.00    +0.000 A 
ENDBRANCH  20  27
ENDBRANCH   1  20
TORSDOF 4
ENDMDL
MODEL 6
REMARK VINA RESULT:      -6.5      3.267      5.445
REMARK  Name = 
REMARK  6 active torsions:
REMARK  status: ('A' for Active; 'I' for Inactive)
REMARK    1  A    between atoms: C_1  and  C_2
REMARK    2  A    between atoms: C_5  and  S_6
REMARK    3  A    between atoms: S_6  and  C_9
REMARK    4  A    between atoms: C_11  and  S_12
REMARK    5  A    between atoms: S_12  and  C_13
REMARK    6  A    between atoms: C_17  and  N_18
REMARK                            x       y       z     vdW  Elec       q    Type
REMARK                         _______ _______ _______ _____ _____    ______ ____
ROOT
ATOM      1  C   UNL     1      -0.900  11.412  20.222  0.00  0.00    +0.000 A 
ATOM      2  N   UNL     1      -1.252  10.749  19.031  0.00  0.00    +0.000 NA
ATOM      3  C   UNL     1      -2.416  11.188  18.619  0.00  0.00    +0.000 A 
ATOM      4  S   UNL     1      -3.205  12.299  19.618  0.00  0.00    +0.000 S 
ATOM      5  C   UNL     1      -1.823  12.363  20.687  0.00  0.00    +0.000 A 
ENDROOT
BRANCH   5   6
ATOM      6  N   UNL     1      -1.770  13.277  21.720  0.00  0.00    +0.000 N 
ATOM      7  C   UNL     1      -1.985  12.835  23.111  0.00  0.00    +0.000 C 
ATOM      8  C   UNL     1      -2.679  13.951  23.880  0.00  0.00    +0.000 C 
ATOM      9  C   UNL     1      -1.882  15.250  23.809  0.00  0.00    +0.000 C 
ATOM     10  C   UNL     1      -1.496  15.607  22.372  0.00  0.00    +0.000 C 
ATOM     11  C   UNL     1      -0.852  14.425  21.655  0.00  0.00    +0.000 C 
ATOM     12  O   UNL     1      -0.697  15.110  24.619  0.00  0.00    +0.000 OA
ATOM     13  C   UNL     1      -0.657  16.287  25.425  0.00  0.00    +0.000 C 
ATOM     14  C   UNL     1      -2.104  16.657  25.593  0.00  0.00    +0.000 C 
ATOM     15  O   UNL     1      -2.686  16.323  24.337  0.00  0.00    +0.000 OA
ENDBRANCH   5   6
BRANCH   3  16
ATOM     16  S   UNL     1      -3.222  10.736  17.109  0.00  0.00    +0.000 S 
ATOM     17  C   UNL     1      -4.753  11.627  17.164  0.00  0.00    +0.000 C 
ATOM     18  O   UNL     1      -2.408  11.280  16.038  0.00  0.00    +0.000 OA
ATOM     19  O   UNL     1      -3.514   9.319  17.214  0.00  0.00    +0.000 OA
ENDBRANCH   3  16
BRANCH   1  20
ATOM     20  S   UNL     1       0.676  11.068  20.909  0.00  0.00    +0.000 S 
ATOM     21  O   UNL     1       0.440  10.671  22.281  0.00  0.00    +0.000 OA
ATOM     22  O   UNL     1       1.513  12.198  20.549  0.00  0.00    +0.000 OA
BRANCH  20  27
ATOM     23  C   UNL     1       2.629   6.097  17.990  0.00  0.00    +0.000 C 
ATOM     24  C   UNL     1       2.172   7.331  18.714  0.00  0.00    +0.000 A 
ATOM     25  C   UNL     1       1.898   7.292  20.087  0.00  0.00    +0.000 A 
ATOM     26  C   UNL     1       1.453   8.436  20.751  0.00  0.00    +0.000 A 
ATOM     27  C   UNL     1       1.266   9.627  20.039  0.00  0.00    +0.000 A 
ATOM     28  C   UNL     1       1.566   9.690  18.676  0.00  0.00    +0.000 A 
ATOM     29  C   UNL     1       2.014   8.538  18.018  0.00  0.00    +0.000 A 
ENDBRANCH  20  27
ENDBRANCH   1  20
TORSDOF 4
ENDMDL
MODEL 7
REMARK VINA RESULT:      -6.4      4.243      7.525
REMARK  Name = 
REMARK  6 active torsions:
REMARK  status: ('A' for Active; 'I' for Inactive)
REMARK    1  A    between atoms: C_1  and  C_2
REMARK    2  A    between atoms: C_5  and  S_6
REMARK    3  A    between atoms: S_6  and  C_9
REMARK    4  A    between atoms: C_11  and  S_12
REMARK    5  A    between atoms: S_12  and  C_13
REMARK    6  A    between atoms: C_17  and  N_18
REMARK                            x       y       z     vdW  Elec       q    Type
REMARK                         _______ _______ _______ _____ _____    ______ ____
ROOT
ATOM      1  C   UNL     1      -0.369  10.965  19.739  0.00  0.00    +0.000 A 
ATOM      2  N   UNL     1      -1.522  10.346  19.220  0.00  0.00    +0.000 NA
ATOM      3  C   UNL     1      -2.047  11.115  18.297  0.00  0.00    +0.000 A 
ATOM      4  S   UNL     1      -1.311  12.617  18.051  0.00  0.00    +0.000 S 
ATOM      5  C   UNL     1      -0.039  12.209  19.179  0.00  0.00    +0.000 A 
ENDROOT
BRANCH   5   6
ATOM      6  N   UNL     1       1.057  13.034  19.336  0.00  0.00    +0.000 N 
ATOM      7  C   UNL     1       1.212  13.831  20.567  0.00  0.00    +0.000 C 
ATOM      8  C   UNL     1       1.893  15.148  20.219  0.00  0.00    +0.000 C 
ATOM      9  C   UNL     1       3.229  14.910  19.519  0.00  0.00    +0.000 C 
ATOM     10  C   UNL     1       3.097  13.929  18.352  0.00  0.00    +0.000 C 
ATOM     11  C   UNL     1       2.362  12.659  18.769  0.00  0.00    +0.000 C 
ATOM     12  O   UNL     1       4.174  14.406  20.485  0.00  0.00    +0.000 OA
ATOM     13  C   UNL     1       5.347  15.199  20.304  0.00  0.00    +0.000 C 
ATOM     14  C   UNL     1       4.817  16.521  19.825  0.00  0.00    +0.000 C 
ATOM     15  O   UNL     1       3.714  16.163  18.998  0.00  0.00    +0.000 OA
ENDBRANCH   5   6
BRANCH   3  16
ATOM     16  S   UNL     1      -3.440  10.716  17.281  0.00  0.00    +0.000 S 
ATOM     17  C   UNL     1      -2.805  10.827  15.630  0.00  0.00    +0.000 C 
ATOM     18  O   UNL     1      -3.762   9.329  17.561  0.00  0.00    +0.000 OA
ATOM     19  O   UNL     1      -4.402  11.786  17.473  0.00  0.00    +0.000 OA
ENDBRANCH   3  16
BRANCH   1  20
ATOM     20  S   UNL     1       0.572  10.070  20.917  0.00  0.00    +0.000 S 
ATOM     21  O   UNL     1      -0.386   9.390  21.765  0.00  0.00    +0.000 OA
ATOM     22  O   UNL     1       1.550  11.011  21.432  0.00  0.00    +0.000 OA
BRANCH  20  27
ATOM     23  C   UNL     1       3.555   5.860  17.690  0.00  0.00    +0.000 C 
ATOM     24  C   UNL     1       2.797   6.887  18.479  0.00  0.00    +0.000 A 
ATOM     25  C   UNL     1       2.437   8.110  17.899  0.00  0.00    +0.000 A 
ATOM     26  C   UNL     1       1.751   9.071  18.644  0.00  0.00    +0.000 A 
ATOM     27  C   UNL     1       1.430   8.816  19.983  0.00  0.00    +0.000 A 
ATOM     28  C   UNL     1       1.754   7.588  20.566  0.00  0.00    +0.000 A 
ATOM     29  C   UNL     1       2.441   6.630  19.812  0.00  0.00    +0.000 A 
ENDBRANCH  20  27
ENDBRANCH   1  20
TORSDOF 4
ENDMDL
MODEL 8
REMARK VINA RESULT:      -6.4      3.008      4.225
REMARK  Name = 
REMARK  6 active torsions:
REMARK  status: ('A' for Active; 'I' for Inactive)
REMARK    1  A    between atoms: C_1  and  C_2
REMARK    2  A    between atoms: C_5  and  S_6
REMARK    3  A    between atoms: S_6  and  C_9
REMARK    4  A    between atoms: C_11  and  S_12
REMARK    5  A    between atoms: S_12  and  C_13
REMARK    6  A    between atoms: C_17  and  N_18
REMARK                            x       y       z     vdW  Elec       q    Type
REMARK                         _______ _______ _______ _____ _____    ______ ____
ROOT
ATOM      1  C   UNL     1       0.452  11.608  20.502  0.00  0.00    +0.000 A 
ATOM      2  N   UNL     1       1.652  12.226  20.902  0.00  0.00    +0.000 NA
ATOM      3  C   UNL     1       1.646  13.477  20.509  0.00  0.00    +0.000 A 
ATOM      4  S   UNL     1       0.321  13.976  19.584  0.00  0.00    +0.000 S 
ATOM      5  C   UNL     1      -0.456  12.426  19.810  0.00  0.00    +0.000 A 
ENDROOT
BRANCH   5   6
ATOM      6  N   UNL     1      -1.752  12.217  19.383  0.00  0.00    +0.000 N 
ATOM      7  C   UNL     1      -2.862  12.977  19.989  0.00  0.00    +0.000 C 
ATOM      8  C   UNL     1      -4.102  12.094  20.022  0.00  0.00    +0.000 C 
ATOM      9  C   UNL     1      -4.453  11.581  18.628  0.00  0.00    +0.000 C 
ATOM     10  C   UNL     1      -3.243  10.960  17.925  0.00  0.00    +0.000 C 
ATOM     11  C   UNL     1      -2.030  11.884  17.978  0.00  0.00    +0.000 C 
ATOM     12  O   UNL     1      -4.968  12.679  17.848  0.00  0.00    +0.000 OA
ATOM     13  C   UNL     1      -6.166  12.181  17.253  0.00  0.00    +0.000 C 
ATOM     14  C   UNL     1      -6.664  11.167  18.243  0.00  0.00    +0.000 C 
ATOM     15  O   UNL     1      -5.472  10.569  18.743  0.00  0.00    +0.000 OA
ENDBRANCH   5   6
BRANCH   3  16
ATOM     16  S   UNL     1       2.885  14.688  20.873  0.00  0.00    +0.000 S 
ATOM     17  C   UNL     1       3.889  14.717  19.413  0.00  0.00    +0.000 C 
ATOM     18  O   UNL     1       2.190  15.957  20.982  0.00  0.00    +0.000 OA
ATOM     19  O   UNL     1       3.676  14.144  21.961  0.00  0.00    +0.000 OA
ENDBRANCH   3  16
BRANCH   1  20
ATOM     20  S   UNL     1       0.182   9.953  21.013  0.00  0.00    +0.000 S 
ATOM     21  O   UNL     1      -1.196   9.649  20.684  0.00  0.00    +0.000 OA
ATOM     22  O   UNL     1       0.706   9.871  22.364  0.00  0.00    +0.000 OA
BRANCH  20  27
ATOM     23  C   UNL     1       3.725   6.631  17.344  0.00  0.00    +0.000 C 
ATOM     24  C   UNL     1       2.830   7.436  18.241  0.00  0.00    +0.000 A 
ATOM     25  C   UNL     1       2.268   8.639  17.795  0.00  0.00    +0.000 A 
ATOM     26  C   UNL     1       1.453   9.395  18.640  0.00  0.00    +0.000 A 
ATOM     27  C   UNL     1       1.208   8.956  19.947  0.00  0.00    +0.000 A 
ATOM     28  C   UNL     1       1.736   7.743  20.396  0.00  0.00    +0.000 A 
ATOM     29  C   UNL     1       2.550   6.990  19.542  0.00  0.00    +0.000 A 
ENDBRANCH  20  27
ENDBRANCH   1  20
TORSDOF 4
ENDMDL
MODEL 9
REMARK VINA RESULT:      -6.3      1.935      6.257
REMARK  Name = 
REMARK  6 active torsions:
REMARK  status: ('A' for Active; 'I' for Inactive)
REMARK    1  A    between atoms: C_1  and  C_2
REMARK    2  A    between atoms: C_5  and  S_6
REMARK    3  A    between atoms: S_6  and  C_9
REMARK    4  A    between atoms: C_11  and  S_12
REMARK    5  A    between atoms: S_12  and  C_13
REMARK    6  A    between atoms: C_17  and  N_18
REMARK                            x       y       z     vdW  Elec       q    Type
REMARK                         _______ _______ _______ _____ _____    ______ ____
ROOT
ATOM      1  C   UNL     1      -0.699  12.448  22.243  0.00  0.00    +0.000 A 
ATOM      2  N   UNL     1      -1.814  12.324  23.093  0.00  0.00    +0.000 NA
ATOM      3  C   UNL     1      -2.186  13.515  23.496  0.00  0.00    +0.000 A 
ATOM      4  S   UNL     1      -1.223  14.816  23.006  0.00  0.00    +0.000 S 
ATOM      5  C   UNL     1      -0.250  13.758  22.012  0.00  0.00    +0.000 A 
ENDROOT
BRANCH   5   6
ATOM      6  N   UNL     1       0.708  14.272  21.161  0.00  0.00    +0.000 N 
ATOM      7  C   UNL     1       2.135  14.214  21.532  0.00  0.00    +0.000 C 
ATOM      8  C   UNL     1       2.838  15.446  20.978  0.00  0.00    +0.000 C 
ATOM      9  C   UNL     1       2.643  15.561  19.469  0.00  0.00    +0.000 C 
ATOM     10  C   UNL     1       1.172  15.430  19.069  0.00  0.00    +0.000 C 
ATOM     11  C   UNL     1       0.528  14.201  19.703  0.00  0.00    +0.000 C 
ATOM     12  O   UNL     1       3.425  14.536  18.822  0.00  0.00    +0.000 OA
ATOM     13  C   UNL     1       4.136  15.211  17.785  0.00  0.00    +0.000 C 
ATOM     14  C   UNL     1       4.321  16.602  18.322  0.00  0.00    +0.000 C 
ATOM     15  O   UNL     1       3.112  16.852  19.033  0.00  0.00    +0.000 OA
ENDBRANCH   5   6
BRANCH   3  16
ATOM     16  S   UNL     1      -3.605  13.882  24.487  0.00  0.00    +0.000 S 
ATOM     17  C   UNL     1      -4.698  14.717  23.369  0.00  0.00    +0.000 C 
ATOM     18  O   UNL     1      -4.193  12.602  24.840  0.00  0.00    +0.000 OA
ATOM     19  O   UNL     1      -3.164  14.832  25.491  0.00  0.00    +0.000 OA
ENDBRANCH   3  16
BRANCH   1  20
ATOM     20  S   UNL     1      -0.087  10.989  21.488  0.00  0.00    +0.000 S 
ATOM     21  O   UNL     1      -0.611   9.884  22.264  0.00  0.00    +0.000 OA
ATOM     22  O   UNL     1       1.334  11.213  21.298  0.00  0.00    +0.000 OA
BRANCH  20  27
ATOM     23  C   UNL     1      -2.766  10.857  16.024  0.00  0.00    +0.000 C 
ATOM     24  C   UNL     1      -2.120  10.869  17.379  0.00  0.00    +0.000 A 
ATOM     25  C   UNL     1      -2.623  11.682  18.402  0.00  0.00    +0.000 A 
ATOM     26  C   UNL     1      -2.005  11.706  19.655  0.00  0.00    +0.000 A 
ATOM     27  C   UNL     1      -0.868  10.922  19.886  0.00  0.00    +0.000 A 
ATOM     28  C   UNL     1      -0.374  10.082  18.885  0.00  0.00    +0.000 A 
ATOM     29  C   UNL     1      -1.000  10.063  17.633  0.00  0.00    +0.000 A 
ENDBRANCH  20  27
ENDBRANCH   1  20
TORSDOF 4
ENDMDL
