MODEL 1
REMARK VINA RESULT:      -6.0      0.000      0.000
REMARK  Name = 
REMARK  8 active torsions:
REMARK  status: ('A' for Active; 'I' for Inactive)
REMARK    1  A    between atoms: C_1  and  C_2
REMARK    2  A    between atoms: N_4  and  C_5
REMARK    3  A    between atoms: C_5  and  C_6
REMARK    4  A    between atoms: C_6  and  C_7
REMARK    5  A    between atoms: C_7  and  C_8
REMARK    6  A    between atoms: C_8  and  C_9
REMARK    7  A    between atoms: C_9  and  N_10
REMARK    8  A    between atoms: C_14  and  C_15
REMARK                            x       y       z     vdW  Elec       q    Type
REMARK                         _______ _______ _______ _____ _____    ______ ____
ROOT
ATOM      1  C   UNL     1       2.151   5.205  17.920  0.00  0.00    +0.000 C 
ENDROOT
BRANCH   1   2
ATOM      2  C   UNL     1       3.382   5.987  18.391  0.00  0.00    +0.000 C 
BRANCH   2   3
ATOM      3  C   UNL     1       3.826   7.116  17.455  0.00  0.00    +0.000 C 
BRANCH   3   4
ATOM      4  C   UNL     1       4.832   6.650  16.404  0.00  0.00    +0.000 C 
BRANCH   4   8
ATOM      5  C   UNL     1       7.725   4.536  17.605  0.00  0.00    +0.000 C 
ATOM      6  C   UNL     1       7.038   5.732  17.009  0.00  0.00    +0.000 C 
ATOM      7  O   UNL     1       7.640   6.741  16.661  0.00  0.00    +0.000 OA
ATOM      8  N   UNL     1       5.673   5.580  16.891  0.00  0.00    +0.000 N 
ATOM      9  H   UNL     1       5.253   4.687  17.112  0.00  0.00    +0.000 HD
ENDBRANCH   4   8
ENDBRANCH   3   4
ENDBRANCH   2   3
ENDBRANCH   1   2
BRANCH   1  10
ATOM     10  C   UNL     1       2.305   3.693  18.088  0.00  0.00    +0.000 C 
BRANCH  10  11
ATOM     11  N   UNL     1       2.155   3.276  19.476  0.00  0.00    +0.000 N 
ATOM     12  C   UNL     1       0.962   3.340  20.156  0.00  0.00    +0.000 A 
ATOM     13  C   UNL     1       1.183   2.929  21.447  0.00  0.00    +0.000 A 
ATOM     14  C   UNL     1       2.550   2.600  21.549  0.00  0.00    +0.000 A 
ATOM     15  C   UNL     1       3.145   2.803  20.313  0.00  0.00    +0.000 A 
BRANCH  15  16
ATOM     16  C   UNL     1       4.533   2.561  19.978  0.00  0.00    +0.000 C 
ATOM     17  O   UNL     1       5.189   1.606  20.391  0.00  0.00    +0.000 OA
ENDBRANCH  15  16
ENDBRANCH  10  11
ENDBRANCH   1  10
TORSDOF 7
ENDMDL
MODEL 2
REMARK VINA RESULT:      -5.8      1.763      2.493
REMARK  Name = 
REMARK  8 active torsions:
REMARK  status: ('A' for Active; 'I' for Inactive)
REMARK    1  A    between atoms: C_1  and  C_2
REMARK    2  A    between atoms: N_4  and  C_5
REMARK    3  A    between atoms: C_5  and  C_6
REMARK    4  A    between atoms: C_6  and  C_7
REMARK    5  A    between atoms: C_7  and  C_8
REMARK    6  A    between atoms: C_8  and  C_9
REMARK    7  A    between atoms: C_9  and  N_10
REMARK    8  A    between atoms: C_14  and  C_15
REMARK                            x       y       z     vdW  Elec       q    Type
REMARK                         _______ _______ _______ _____ _____    ______ ____
ROOT
ATOM      1  C   UNL     1       5.354   4.241  18.724  0.00  0.00    +0.000 C 
ENDROOT
BRANCH   1   2
ATOM      2  C   UNL     1       4.763   5.643  18.910  0.00  0.00    +0.000 C 
BRANCH   2   3
ATOM      3  C   UNL     1       4.459   6.393  17.609  0.00  0.00    +0.000 C 
BRANCH   3   4
ATOM      4  C   UNL     1       5.710   6.662  16.777  0.00  0.00    +0.000 C 
BRANCH   4   8
ATOM      5  C   UNL     1       6.442   4.260  13.953  0.00  0.00    +0.000 C 
ATOM      6  C   UNL     1       6.660   4.968  15.260  0.00  0.00    +0.000 C 
ATOM      7  O   UNL     1       7.599   4.714  16.006  0.00  0.00    +0.000 OA
ATOM      8  N   UNL     1       5.708   5.925  15.533  0.00  0.00    +0.000 N 
ATOM      9  H   UNL     1       5.013   6.148  14.832  0.00  0.00    +0.000 HD
ENDBRANCH   4   8
ENDBRANCH   3   4
ENDBRANCH   2   3
ENDBRANCH   1   2
BRANCH   1  10
ATOM     10  C   UNL     1       4.549   3.154  19.438  0.00  0.00    +0.000 C 
BRANCH  10  11
ATOM     11  N   UNL     1       3.120   3.270  19.181  0.00  0.00    +0.000 N 
ATOM     12  C   UNL     1       2.576   3.209  17.921  0.00  0.00    +0.000 A 
ATOM     13  C   UNL     1       1.222   3.409  18.030  0.00  0.00    +0.000 A 
ATOM     14  C   UNL     1       0.938   3.590  19.400  0.00  0.00    +0.000 A 
ATOM     15  C   UNL     1       2.123   3.485  20.112  0.00  0.00    +0.000 A 
BRANCH  15  16
ATOM     16  C   UNL     1       2.273   3.583  21.549  0.00  0.00    +0.000 C 
ATOM     17  O   UNL     1       2.470   2.623  22.292  0.00  0.00    +0.000 OA
ENDBRANCH  15  16
ENDBRANCH  10  11
ENDBRANCH   1  10
TORSDOF 7
ENDMDL
MODEL 3
REMARK VINA RESULT:      -5.8      2.883      3.155
REMARK  Name = 
REMARK  8 active torsions:
REMARK  status: ('A' for Active; 'I' for Inactive)
REMARK    1  A    between atoms: C_1  and  C_2
REMARK    2  A    between atoms: N_4  and  C_5
REMARK    3  A    between atoms: C_5  and  C_6
REMARK    4  A    between atoms: C_6  and  C_7
REMARK    5  A    between atoms: C_7  and  C_8
REMARK    6  A    between atoms: C_8  and  C_9
REMARK    7  A    between atoms: C_9  and  N_10
REMARK    8  A    between atoms: C_14  and  C_15
REMARK                            x       y       z     vdW  Elec       q    Type
REMARK                         _______ _______ _______ _____ _____    ______ ____
ROOT
ATOM      1  C   UNL     1       4.131   4.457  17.368  0.00  0.00    +0.000 C 
ENDROOT
BRANCH   1   2
ATOM      2  C   UNL     1       4.850   4.236  16.033  0.00  0.00    +0.000 C 
BRANCH   2   3
ATOM      3  C   UNL     1       6.309   4.701  16.001  0.00  0.00    +0.000 C 
BRANCH   3   4
ATOM      4  C   UNL     1       6.954   4.531  14.627  0.00  0.00    +0.000 C 
BRANCH   4   8
ATOM      5  C   UNL     1       5.599   2.525  11.726  0.00  0.00    +0.000 C 
ATOM      6  C   UNL     1       6.434   3.562  12.422  0.00  0.00    +0.000 C 
ATOM      7  O   UNL     1       7.245   4.269  11.834  0.00  0.00    +0.000 OA
ATOM      8  N   UNL     1       6.197   3.641  13.776  0.00  0.00    +0.000 N 
ATOM      9  H   UNL     1       5.449   3.093  14.182  0.00  0.00    +0.000 HD
ENDBRANCH   4   8
ENDBRANCH   3   4
ENDBRANCH   2   3
ENDBRANCH   1   2
BRANCH   1  10
ATOM     10  C   UNL     1       2.925   3.537  17.556  0.00  0.00    +0.000 C 
BRANCH  10  11
ATOM     11  N   UNL     1       2.513   3.449  18.950  0.00  0.00    +0.000 N 
ATOM     12  C   UNL     1       1.421   4.114  19.455  0.00  0.00    +0.000 A 
ATOM     13  C   UNL     1       1.352   3.861  20.802  0.00  0.00    +0.000 A 
ATOM     14  C   UNL     1       2.431   3.010  21.121  0.00  0.00    +0.000 A 
ATOM     15  C   UNL     1       3.139   2.745  19.959  0.00  0.00    +0.000 A 
BRANCH  15  16
ATOM     16  C   UNL     1       4.305   1.895  19.839  0.00  0.00    +0.000 C 
ATOM     17  O   UNL     1       5.220   1.855  20.660  0.00  0.00    +0.000 OA
ENDBRANCH  15  16
ENDBRANCH  10  11
ENDBRANCH   1  10
TORSDOF 7
ENDMDL
MODEL 4
REMARK VINA RESULT:      -5.7      2.271      2.827
REMARK  Name = 
REMARK  8 active torsions:
REMARK  status: ('A' for Active; 'I' for Inactive)
REMARK    1  A    between atoms: C_1  and  C_2
REMARK    2  A    between atoms: N_4  and  C_5
REMARK    3  A    between atoms: C_5  and  C_6
REMARK    4  A    between atoms: C_6  and  C_7
REMARK    5  A    between atoms: C_7  and  C_8
REMARK    6  A    between atoms: C_8  and  C_9
REMARK    7  A    between atoms: C_9  and  N_10
REMARK    8  A    between atoms: C_14  and  C_15
REMARK                            x       y       z     vdW  Elec       q    Type
REMARK                         _______ _______ _______ _____ _____    ______ ____
ROOT
ATOM      1  C   UNL     1       3.705   3.104  17.245  0.00  0.00    +0.000 C 
ENDROOT
BRANCH   1   2
ATOM      2  C   UNL     1       4.925   4.009  17.452  0.00  0.00    +0.000 C 
BRANCH   2   3
ATOM      3  C   UNL     1       5.556   4.546  16.165  0.00  0.00    +0.000 C 
BRANCH   3   4
ATOM      4  C   UNL     1       7.050   4.829  16.312  0.00  0.00    +0.000 C 
BRANCH   4   8
ATOM      5  C   UNL     1       7.889   8.271  17.625  0.00  0.00    +0.000 C 
ATOM      6  C   UNL     1       7.541   6.810  17.691  0.00  0.00    +0.000 C 
ATOM      7  O   UNL     1       7.455   6.194  18.747  0.00  0.00    +0.000 OA
ATOM      8  N   UNL     1       7.327   6.240  16.456  0.00  0.00    +0.000 N 
ATOM      9  H   UNL     1       7.323   6.827  15.632  0.00  0.00    +0.000 HD
ENDBRANCH   4   8
ENDBRANCH   3   4
ENDBRANCH   2   3
ENDBRANCH   1   2
BRANCH   1  10
ATOM     10  C   UNL     1       2.380   3.816  17.521  0.00  0.00    +0.000 C 
BRANCH  10  11
ATOM     11  N   UNL     1       2.054   3.839  18.940  0.00  0.00    +0.000 N 
ATOM     12  C   UNL     1       1.493   2.772  19.600  0.00  0.00    +0.000 A 
ATOM     13  C   UNL     1       1.264   3.146  20.900  0.00  0.00    +0.000 A 
ATOM     14  C   UNL     1       1.705   4.479  21.033  0.00  0.00    +0.000 A 
ATOM     15  C   UNL     1       2.211   4.898  19.811  0.00  0.00    +0.000 A 
BRANCH  15  16
ATOM     16  C   UNL     1       2.788   6.194  19.520  0.00  0.00    +0.000 C 
ATOM     17  O   UNL     1       2.219   7.266  19.720  0.00  0.00    +0.000 OA
ENDBRANCH  15  16
ENDBRANCH  10  11
ENDBRANCH   1  10
TORSDOF 7
ENDMDL
MODEL 5
REMARK VINA RESULT:      -5.7      2.165      2.612
REMARK  Name = 
REMARK  8 active torsions:
REMARK  status: ('A' for Active; 'I' for Inactive)
REMARK    1  A    between atoms: C_1  and  C_2
REMARK    2  A    between atoms: N_4  and  C_5
REMARK    3  A    between atoms: C_5  and  C_6
REMARK    4  A    between atoms: C_6  and  C_7
REMARK    5  A    between atoms: C_7  and  C_8
REMARK    6  A    between atoms: C_8  and  C_9
REMARK    7  A    between atoms: C_9  and  N_10
REMARK    8  A    between atoms: C_14  and  C_15
REMARK                            x       y       z     vdW  Elec       q    Type
REMARK                         _______ _______ _______ _____ _____    ______ ____
ROOT
ATOM      1  C   UNL     1       3.899   3.422  17.251  0.00  0.00    +0.000 C 
ENDROOT
BRANCH   1   2
ATOM      2  C   UNL     1       4.449   4.611  16.454  0.00  0.00    +0.000 C 
BRANCH   2   3
ATOM      3  C   UNL     1       5.472   4.245  15.374  0.00  0.00    +0.000 C 
BRANCH   3   4
ATOM      4  C   UNL     1       6.837   4.886  15.613  0.00  0.00    +0.000 C 
BRANCH   4   8
ATOM      5  C   UNL     1       7.734   5.916  19.136  0.00  0.00    +0.000 C 
ATOM      6  C   UNL     1       7.733   5.059  17.902  0.00  0.00    +0.000 C 
ATOM      7  O   UNL     1       8.396   4.033  17.803  0.00  0.00    +0.000 OA
ATOM      8  N   UNL     1       6.916   5.537  16.901  0.00  0.00    +0.000 N 
ATOM      9  H   UNL     1       6.326   6.338  17.083  0.00  0.00    +0.000 HD
ENDBRANCH   4   8
ENDBRANCH   3   4
ENDBRANCH   2   3
ENDBRANCH   1   2
BRANCH   1  10
ATOM     10  C   UNL     1       2.412   3.560  17.580  0.00  0.00    +0.000 C 
BRANCH  10  11
ATOM     11  N   UNL     1       2.158   3.498  19.012  0.00  0.00    +0.000 N 
ATOM     12  C   UNL     1       1.583   2.412  19.627  0.00  0.00    +0.000 A 
ATOM     13  C   UNL     1       1.435   2.704  20.961  0.00  0.00    +0.000 A 
ATOM     14  C   UNL     1       1.943   4.005  21.159  0.00  0.00    +0.000 A 
ATOM     15  C   UNL     1       2.406   4.486  19.944  0.00  0.00    +0.000 A 
BRANCH  15  16
ATOM     16  C   UNL     1       3.027   5.773  19.711  0.00  0.00    +0.000 C 
ATOM     17  O   UNL     1       2.493   6.699  19.103  0.00  0.00    +0.000 OA
ENDBRANCH  15  16
ENDBRANCH  10  11
ENDBRANCH   1  10
TORSDOF 7
ENDMDL
MODEL 6
REMARK VINA RESULT:      -5.7      2.406      3.065
REMARK  Name = 
REMARK  8 active torsions:
REMARK  status: ('A' for Active; 'I' for Inactive)
REMARK    1  A    between atoms: C_1  and  C_2
REMARK    2  A    between atoms: N_4  and  C_5
REMARK    3  A    between atoms: C_5  and  C_6
REMARK    4  A    between atoms: C_6  and  C_7
REMARK    5  A    between atoms: C_7  and  C_8
REMARK    6  A    between atoms: C_8  and  C_9
REMARK    7  A    between atoms: C_9  and  N_10
REMARK    8  A    between atoms: C_14  and  C_15
REMARK                            x       y       z     vdW  Elec       q    Type
REMARK                         _______ _______ _______ _____ _____    ______ ____
ROOT
ATOM      1  C   UNL     1       4.412   4.903  17.871  0.00  0.00    +0.000 C 
ENDROOT
BRANCH   1   2
ATOM      2  C   UNL     1       4.731   3.881  16.774  0.00  0.00    +0.000 C 
BRANCH   2   3
ATOM      3  C   UNL     1       5.862   4.287  15.824  0.00  0.00    +0.000 C 
BRANCH   3   4
ATOM      4  C   UNL     1       7.144   4.669  16.560  0.00  0.00    +0.000 C 
BRANCH   4   8
ATOM      5  C   UNL     1       7.810   8.235  17.619  0.00  0.00    +0.000 C 
ATOM      6  C   UNL     1       7.548   6.765  17.791  0.00  0.00    +0.000 C 
ATOM      7  O   UNL     1       7.519   6.219  18.888  0.00  0.00    +0.000 OA
ATOM      8  N   UNL     1       7.342   6.100  16.603  0.00  0.00    +0.000 N 
ATOM      9  H   UNL     1       7.288   6.629  15.741  0.00  0.00    +0.000 HD
ENDBRANCH   4   8
ENDBRANCH   3   4
ENDBRANCH   2   3
ENDBRANCH   1   2
BRANCH   1  10
ATOM     10  C   UNL     1       4.366   4.285  19.269  0.00  0.00    +0.000 C 
BRANCH  10  11
ATOM     11  N   UNL     1       3.005   3.989  19.694  0.00  0.00    +0.000 N 
ATOM     12  C   UNL     1       2.497   2.714  19.759  0.00  0.00    +0.000 A 
ATOM     13  C   UNL     1       1.180   2.796  20.139  0.00  0.00    +0.000 A 
ATOM     14  C   UNL     1       0.884   4.164  20.316  0.00  0.00    +0.000 A 
ATOM     15  C   UNL     1       2.030   4.899  20.053  0.00  0.00    +0.000 A 
BRANCH  15  16
ATOM     16  C   UNL     1       2.166   6.338  20.141  0.00  0.00    +0.000 C 
ATOM     17  O   UNL     1       1.455   7.059  20.840  0.00  0.00    +0.000 OA
ENDBRANCH  15  16
ENDBRANCH  10  11
ENDBRANCH   1  10
TORSDOF 7
ENDMDL
MODEL 7
REMARK VINA RESULT:      -5.6      2.196      3.147
REMARK  Name = 
REMARK  8 active torsions:
REMARK  status: ('A' for Active; 'I' for Inactive)
REMARK    1  A    between atoms: C_1  and  C_2
REMARK    2  A    between atoms: N_4  and  C_5
REMARK    3  A    between atoms: C_5  and  C_6
REMARK    4  A    between atoms: C_6  and  C_7
REMARK    5  A    between atoms: C_7  and  C_8
REMARK    6  A    between atoms: C_8  and  C_9
REMARK    7  A    between atoms: C_9  and  N_10
REMARK    8  A    between atoms: C_14  and  C_15
REMARK                            x       y       z     vdW  Elec       q    Type
REMARK                         _______ _______ _______ _____ _____    ______ ____
ROOT
ATOM      1  C   UNL     1       5.360   4.577  19.138  0.00  0.00    +0.000 C 
ENDROOT
BRANCH   1   2
ATOM      2  C   UNL     1       6.618   5.436  19.304  0.00  0.00    +0.000 C 
BRANCH   2   3
ATOM      3  C   UNL     1       7.558   5.445  18.095  0.00  0.00    +0.000 C 
BRANCH   3   4
ATOM      4  C   UNL     1       7.109   4.489  16.992  0.00  0.00    +0.000 C 
BRANCH   4   8
ATOM      5  C   UNL     1       7.544   5.116  13.291  0.00  0.00    +0.000 C 
ATOM      6  C   UNL     1       6.932   4.535  14.535  0.00  0.00    +0.000 C 
ATOM      7  O   UNL     1       5.943   3.812  14.514  0.00  0.00    +0.000 OA
ATOM      8  N   UNL     1       7.591   4.893  15.690  0.00  0.00    +0.000 N 
ATOM      9  H   UNL     1       8.454   5.417  15.628  0.00  0.00    +0.000 HD
ENDBRANCH   4   8
ENDBRANCH   3   4
ENDBRANCH   2   3
ENDBRANCH   1   2
BRANCH   1  10
ATOM     10  C   UNL     1       4.071   5.339  19.447  0.00  0.00    +0.000 C 
BRANCH  10  11
ATOM     11  N   UNL     1       2.883   4.535  19.197  0.00  0.00    +0.000 N 
ATOM     12  C   UNL     1       2.327   4.383  17.950  0.00  0.00    +0.000 A 
ATOM     13  C   UNL     1       1.194   3.617  18.077  0.00  0.00    +0.000 A 
ATOM     14  C   UNL     1       1.065   3.291  19.443  0.00  0.00    +0.000 A 
ATOM     15  C   UNL     1       2.130   3.853  20.132  0.00  0.00    +0.000 A 
BRANCH  15  16
ATOM     16  C   UNL     1       2.390   3.738  21.552  0.00  0.00    +0.000 C 
ATOM     17  O   UNL     1       2.434   2.673  22.164  0.00  0.00    +0.000 OA
ENDBRANCH  15  16
ENDBRANCH  10  11
ENDBRANCH   1  10
TORSDOF 7
ENDMDL
MODEL 8
REMARK VINA RESULT:      -5.6      2.973      3.605
REMARK  Name = 
REMARK  8 active torsions:
REMARK  status: ('A' for Active; 'I' for Inactive)
REMARK    1  A    between atoms: C_1  and  C_2
REMARK    2  A    between atoms: N_4  and  C_5
REMARK    3  A    between atoms: C_5  and  C_6
REMARK    4  A    between atoms: C_6  and  C_7
REMARK    5  A    between atoms: C_7  and  C_8
REMARK    6  A    between atoms: C_8  and  C_9
REMARK    7  A    between atoms: C_9  and  N_10
REMARK    8  A    between atoms: C_14  and  C_15
REMARK                            x       y       z     vdW  Elec       q    Type
REMARK                         _______ _______ _______ _____ _____    ______ ____
ROOT
ATOM      1  C   UNL     1       5.274   5.988  17.899  0.00  0.00    +0.000 C 
ENDROOT
BRANCH   1   2
ATOM      2  C   UNL     1       5.919   4.901  17.032  0.00  0.00    +0.000 C 
BRANCH   2   3
ATOM      3  C   UNL     1       5.488   4.908  15.562  0.00  0.00    +0.000 C 
BRANCH   3   4
ATOM      4  C   UNL     1       6.580   4.400  14.624  0.00  0.00    +0.000 C 
BRANCH   4   8
ATOM      5  C   UNL     1       5.897   2.297  11.560  0.00  0.00    +0.000 C 
ATOM      6  C   UNL     1       6.464   3.436  12.359  0.00  0.00    +0.000 C 
ATOM      7  O   UNL     1       7.196   4.291  11.874  0.00  0.00    +0.000 OA
ATOM      8  N   UNL     1       6.080   3.425  13.682  0.00  0.00    +0.000 N 
ATOM      9  H   UNL     1       5.401   2.743  13.995  0.00  0.00    +0.000 HD
ENDBRANCH   4   8
ENDBRANCH   3   4
ENDBRANCH   2   3
ENDBRANCH   1   2
BRANCH   1  10
ATOM     10  C   UNL     1       4.562   5.427  19.130  0.00  0.00    +0.000 C 
BRANCH  10  11
ATOM     11  N   UNL     1       3.399   4.625  18.774  0.00  0.00    +0.000 N 
ATOM     12  C   UNL     1       2.448   5.039  17.874  0.00  0.00    +0.000 A 
ATOM     13  C   UNL     1       1.468   4.079  17.815  0.00  0.00    +0.000 A 
ATOM     14  C   UNL     1       1.842   3.050  18.703  0.00  0.00    +0.000 A 
ATOM     15  C   UNL     1       3.054   3.390  19.284  0.00  0.00    +0.000 A 
BRANCH  15  16
ATOM     16  C   UNL     1       3.802   2.596  20.237  0.00  0.00    +0.000 C 
ATOM     17  O   UNL     1       4.811   1.950  19.960  0.00  0.00    +0.000 OA
ENDBRANCH  15  16
ENDBRANCH  10  11
ENDBRANCH   1  10
TORSDOF 7
ENDMDL
MODEL 9
REMARK VINA RESULT:      -5.6      2.285      3.104
REMARK  Name = 
REMARK  8 active torsions:
REMARK  status: ('A' for Active; 'I' for Inactive)
REMARK    1  A    between atoms: C_1  and  C_2
REMARK    2  A    between atoms: N_4  and  C_5
REMARK    3  A    between atoms: C_5  and  C_6
REMARK    4  A    between atoms: C_6  and  C_7
REMARK    5  A    between atoms: C_7  and  C_8
REMARK    6  A    between atoms: C_8  and  C_9
REMARK    7  A    between atoms: C_9  and  N_10
REMARK    8  A    between atoms: C_14  and  C_15
REMARK                            x       y       z     vdW  Elec       q    Type
REMARK                         _______ _______ _______ _____ _____    ______ ____
ROOT
ATOM      1  C   UNL     1       4.336   6.076  18.520  0.00  0.00    +0.000 C 
ENDROOT
BRANCH   1   2
ATOM      2  C   UNL     1       5.237   6.251  17.293  0.00  0.00    +0.000 C 
BRANCH   2   3
ATOM      3  C   UNL     1       6.737   6.110  17.568  0.00  0.00    +0.000 C 
BRANCH   3   4
ATOM      4  C   UNL     1       7.309   4.790  17.055  0.00  0.00    +0.000 C 
BRANCH   4   8
ATOM      5  C   UNL     1       6.048   3.923  13.600  0.00  0.00    +0.000 C 
ATOM      6  C   UNL     1       6.887   4.622  14.633  0.00  0.00    +0.000 C 
ATOM      7  O   UNL     1       7.768   5.423  14.345  0.00  0.00    +0.000 OA
ATOM      8  N   UNL     1       6.566   4.275  15.927  0.00  0.00    +0.000 N 
ATOM      9  H   UNL     1       5.767   3.678  16.098  0.00  0.00    +0.000 HD
ENDBRANCH   4   8
ENDBRANCH   3   4
ENDBRANCH   2   3
ENDBRANCH   1   2
BRANCH   1  10
ATOM     10  C   UNL     1       4.621   4.786  19.291  0.00  0.00    +0.000 C 
BRANCH  10  11
ATOM     11  N   UNL     1       3.665   3.734  18.975  0.00  0.00    +0.000 N 
ATOM     12  C   UNL     1       3.829   2.858  17.929  0.00  0.00    +0.000 A 
ATOM     13  C   UNL     1       2.727   2.041  17.879  0.00  0.00    +0.000 A 
ATOM     14  C   UNL     1       1.873   2.430  18.931  0.00  0.00    +0.000 A 
ATOM     15  C   UNL     1       2.472   3.474  19.620  0.00  0.00    +0.000 A 
BRANCH  15  16
ATOM     16  C   UNL     1       1.941   4.151  20.784  0.00  0.00    +0.000 C 
ATOM     17  O   UNL     1       1.101   5.048  20.741  0.00  0.00    +0.000 OA
ENDBRANCH  15  16
ENDBRANCH  10  11
ENDBRANCH   1  10
TORSDOF 7
ENDMDL
