MODEL 1
REMARK VINA RESULT:      -6.9      0.000      0.000
REMARK  Name = 
REMARK  8 active torsions:
REMARK  status: ('A' for Active; 'I' for Inactive)
REMARK    1  A    between atoms: C_1  and  C_2
REMARK    2  A    between atoms: C_2  and  N_3
REMARK    3  A    between atoms: C_4  and  C_5
REMARK    4  A    between atoms: C_5  and  N_6
REMARK    5  A    between atoms: C_7  and  C_9
REMARK    6  A    between atoms: C_9  and  C_10
REMARK    7  A    between atoms: C_9  and  C_11
REMARK    8  A    between atoms: C_9  and  C_12
REMARK                            x       y       z     vdW  Elec       q    Type
REMARK                         _______ _______ _______ _____ _____    ______ ____
ROOT
ATOM      1  N   UNL     1       6.546   5.446  17.448  0.00  0.00    +0.000 N 
ATOM      2  C   UNL     1       5.376   4.979  18.028  0.00  0.00    +0.000 A 
ATOM      3  N   UNL     1       4.659   4.311  17.144  0.00  0.00    +0.000 NA
ATOM      4  C   UNL     1       5.375   4.326  15.970  0.00  0.00    +0.000 A 
ATOM      5  C   UNL     1       5.093   3.719  14.734  0.00  0.00    +0.000 A 
ATOM      6  C   UNL     1       5.978   3.913  13.668  0.00  0.00    +0.000 A 
ATOM      7  C   UNL     1       7.118   4.701  13.820  0.00  0.00    +0.000 A 
ATOM      8  C   UNL     1       7.423   5.296  15.050  0.00  0.00    +0.000 A 
ATOM      9  C   UNL     1       6.538   5.074  16.114  0.00  0.00    +0.000 A 
ENDROOT
BRANCH   1  11
ATOM     10  C   UNL     1       7.719   7.601  17.734  0.00  0.00    +0.000 C 
ATOM     11  C   UNL     1       7.670   6.118  18.064  0.00  0.00    +0.000 C 
ENDBRANCH   1  11
BRANCH   2  12
ATOM     12  C   UNL     1       4.961   5.135  19.466  0.00  0.00    +0.000 C 
BRANCH  12  13
ATOM     13  N   UNL     1       3.565   4.779  19.630  0.00  0.00    +0.000 N 
ATOM     14  C   UNL     1       3.203   3.517  20.079  0.00  0.00    +0.000 C 
ATOM     15  O   UNL     1       4.037   2.664  20.369  0.00  0.00    +0.000 OA
ATOM     16  H   UNL     1       2.933   5.224  18.980  0.00  0.00    +0.000 HD
BRANCH  14  17
ATOM     17  C   UNL     1       1.680   3.295  20.264  0.00  0.00    +0.000 C 
ATOM     18  C   UNL     1       0.930   4.634  20.338  0.00  0.00    +0.000 C 
ATOM     19  C   UNL     1       1.085   2.472  19.102  0.00  0.00    +0.000 C 
ATOM     20  C   UNL     1       1.465   2.505  21.563  0.00  0.00    +0.000 C 
ENDBRANCH  14  17
ENDBRANCH  12  13
ENDBRANCH   2  12
TORSDOF 4
ENDMDL
MODEL 2
REMARK VINA RESULT:      -6.9      0.081      1.001
REMARK  Name = 
REMARK  8 active torsions:
REMARK  status: ('A' for Active; 'I' for Inactive)
REMARK    1  A    between atoms: C_1  and  C_2
REMARK    2  A    between atoms: C_2  and  N_3
REMARK    3  A    between atoms: C_4  and  C_5
REMARK    4  A    between atoms: C_5  and  N_6
REMARK    5  A    between atoms: C_7  and  C_9
REMARK    6  A    between atoms: C_9  and  C_10
REMARK    7  A    between atoms: C_9  and  C_11
REMARK    8  A    between atoms: C_9  and  C_12
REMARK                            x       y       z     vdW  Elec       q    Type
REMARK                         _______ _______ _______ _____ _____    ______ ____
ROOT
ATOM      1  N   UNL     1       6.571   5.394  17.425  0.00  0.00    +0.000 N 
ATOM      2  C   UNL     1       5.396   4.953  18.016  0.00  0.00    +0.000 A 
ATOM      3  N   UNL     1       4.652   4.311  17.136  0.00  0.00    +0.000 NA
ATOM      4  C   UNL     1       5.354   4.316  15.954  0.00  0.00    +0.000 A 
ATOM      5  C   UNL     1       5.041   3.726  14.717  0.00  0.00    +0.000 A 
ATOM      6  C   UNL     1       5.919   3.905  13.641  0.00  0.00    +0.000 A 
ATOM      7  C   UNL     1       7.081   4.662  13.786  0.00  0.00    +0.000 A 
ATOM      8  C   UNL     1       7.415   5.240  15.016  0.00  0.00    +0.000 A 
ATOM      9  C   UNL     1       6.537   5.032  16.089  0.00  0.00    +0.000 A 
ENDROOT
BRANCH   1  11
ATOM     10  C   UNL     1       7.723   7.540  17.836  0.00  0.00    +0.000 C 
ATOM     11  C   UNL     1       7.719   6.034  18.033  0.00  0.00    +0.000 C 
ENDBRANCH   1  11
BRANCH   2  12
ATOM     12  C   UNL     1       5.001   5.109  19.460  0.00  0.00    +0.000 C 
BRANCH  12  13
ATOM     13  N   UNL     1       3.611   4.740  19.647  0.00  0.00    +0.000 N 
ATOM     14  C   UNL     1       3.265   3.457  20.043  0.00  0.00    +0.000 C 
ATOM     15  O   UNL     1       4.109   2.593  20.266  0.00  0.00    +0.000 OA
ATOM     16  H   UNL     1       2.960   5.215  19.038  0.00  0.00    +0.000 HD
BRANCH  14  17
ATOM     17  C   UNL     1       1.749   3.220  20.261  0.00  0.00    +0.000 C 
ATOM     18  C   UNL     1       1.148   2.389  19.117  0.00  0.00    +0.000 C 
ATOM     19  C   UNL     1       1.479   2.482  21.589  0.00  0.00    +0.000 C 
ATOM     20  C   UNL     1       1.055   4.589  20.329  0.00  0.00    +0.000 C 
ENDBRANCH  14  17
ENDBRANCH  12  13
ENDBRANCH   2  12
TORSDOF 4
ENDMDL
MODEL 3
REMARK VINA RESULT:      -6.8      0.286      1.027
REMARK  Name = 
REMARK  8 active torsions:
REMARK  status: ('A' for Active; 'I' for Inactive)
REMARK    1  A    between atoms: C_1  and  C_2
REMARK    2  A    between atoms: C_2  and  N_3
REMARK    3  A    between atoms: C_4  and  C_5
REMARK    4  A    between atoms: C_5  and  N_6
REMARK    5  A    between atoms: C_7  and  C_9
REMARK    6  A    between atoms: C_9  and  C_10
REMARK    7  A    between atoms: C_9  and  C_11
REMARK    8  A    between atoms: C_9  and  C_12
REMARK                            x       y       z     vdW  Elec       q    Type
REMARK                         _______ _______ _______ _____ _____    ______ ____
ROOT
ATOM      1  N   UNL     1       6.632   5.273  17.299  0.00  0.00    +0.000 N 
ATOM      2  C   UNL     1       5.557   4.637  17.903  0.00  0.00    +0.000 A 
ATOM      3  N   UNL     1       4.887   3.926  17.017  0.00  0.00    +0.000 NA
ATOM      4  C   UNL     1       5.540   4.084  15.816  0.00  0.00    +0.000 A 
ATOM      5  C   UNL     1       5.276   3.503  14.564  0.00  0.00    +0.000 A 
ATOM      6  C   UNL     1       6.079   3.855  13.473  0.00  0.00    +0.000 A 
ATOM      7  C   UNL     1       7.119   4.772  13.618  0.00  0.00    +0.000 A 
ATOM      8  C   UNL     1       7.406   5.344  14.863  0.00  0.00    +0.000 A 
ATOM      9  C   UNL     1       6.606   4.964  15.950  0.00  0.00    +0.000 A 
ENDROOT
BRANCH   1  11
ATOM     10  C   UNL     1       7.542   7.543  17.647  0.00  0.00    +0.000 C 
ATOM     11  C   UNL     1       7.692   6.053  17.902  0.00  0.00    +0.000 C 
ENDBRANCH   1  11
BRANCH   2  12
ATOM     12  C   UNL     1       5.194   4.675  19.362  0.00  0.00    +0.000 C 
BRANCH  12  13
ATOM     13  N   UNL     1       3.770   4.462  19.535  0.00  0.00    +0.000 N 
ATOM     14  C   UNL     1       3.291   3.295  20.112  0.00  0.00    +0.000 C 
ATOM     15  O   UNL     1       4.042   2.411  20.514  0.00  0.00    +0.000 OA
ATOM     16  H   UNL     1       3.188   4.885  18.825  0.00  0.00    +0.000 HD
BRANCH  14  17
ATOM     17  C   UNL     1       1.753   3.229  20.287  0.00  0.00    +0.000 C 
ATOM     18  C   UNL     1       1.375   2.522  21.599  0.00  0.00    +0.000 C 
ATOM     19  C   UNL     1       1.125   4.638  20.300  0.00  0.00    +0.000 C 
ATOM     20  C   UNL     1       1.167   2.460  19.094  0.00  0.00    +0.000 C 
ENDBRANCH  14  17
ENDBRANCH  12  13
ENDBRANCH   2  12
TORSDOF 4
ENDMDL
MODEL 4
REMARK VINA RESULT:      -6.7      1.231      3.269
REMARK  Name = 
REMARK  8 active torsions:
REMARK  status: ('A' for Active; 'I' for Inactive)
REMARK    1  A    between atoms: C_1  and  C_2
REMARK    2  A    between atoms: C_2  and  N_3
REMARK    3  A    between atoms: C_4  and  C_5
REMARK    4  A    between atoms: C_5  and  N_6
REMARK    5  A    between atoms: C_7  and  C_9
REMARK    6  A    between atoms: C_9  and  C_10
REMARK    7  A    between atoms: C_9  and  C_11
REMARK    8  A    between atoms: C_9  and  C_12
REMARK                            x       y       z     vdW  Elec       q    Type
REMARK                         _______ _______ _______ _____ _____    ______ ____
ROOT
ATOM      1  N   UNL     1       5.599   4.997  16.828  0.00  0.00    +0.000 N 
ATOM      2  C   UNL     1       5.394   4.014  17.785  0.00  0.00    +0.000 A 
ATOM      3  N   UNL     1       6.138   4.247  18.850  0.00  0.00    +0.000 NA
ATOM      4  C   UNL     1       6.829   5.408  18.596  0.00  0.00    +0.000 A 
ATOM      5  C   UNL     1       7.715   6.127  19.417  0.00  0.00    +0.000 A 
ATOM      6  C   UNL     1       8.323   7.280  18.908  0.00  0.00    +0.000 A 
ATOM      7  C   UNL     1       8.064   7.710  17.607  0.00  0.00    +0.000 A 
ATOM      8  C   UNL     1       7.169   7.016  16.785  0.00  0.00    +0.000 A 
ATOM      9  C   UNL     1       6.552   5.875  17.317  0.00  0.00    +0.000 A 
ENDROOT
BRANCH   1  11
ATOM     10  C   UNL     1       5.530   4.409  14.431  0.00  0.00    +0.000 C 
ATOM     11  C   UNL     1       4.917   5.207  15.569  0.00  0.00    +0.000 C 
ENDBRANCH   1  11
BRANCH   2  12
ATOM     12  C   UNL     1       4.436   2.857  17.695  0.00  0.00    +0.000 C 
BRANCH  12  13
ATOM     13  N   UNL     1       3.197   3.172  18.380  0.00  0.00    +0.000 N 
ATOM     14  C   UNL     1       3.015   2.826  19.711  0.00  0.00    +0.000 C 
ATOM     15  O   UNL     1       3.888   2.261  20.363  0.00  0.00    +0.000 OA
ATOM     16  H   UNL     1       2.374   3.163  17.795  0.00  0.00    +0.000 HD
BRANCH  14  17
ATOM     17  C   UNL     1       1.667   3.276  20.330  0.00  0.00    +0.000 C 
ATOM     18  C   UNL     1       1.439   2.616  21.699  0.00  0.00    +0.000 C 
ATOM     19  C   UNL     1       1.617   4.807  20.519  0.00  0.00    +0.000 C 
ATOM     20  C   UNL     1       0.539   2.880  19.366  0.00  0.00    +0.000 C 
ENDBRANCH  14  17
ENDBRANCH  12  13
ENDBRANCH   2  12
TORSDOF 4
ENDMDL
MODEL 5
REMARK VINA RESULT:      -6.5      0.973      1.266
REMARK  Name = 
REMARK  8 active torsions:
REMARK  status: ('A' for Active; 'I' for Inactive)
REMARK    1  A    between atoms: C_1  and  C_2
REMARK    2  A    between atoms: C_2  and  N_3
REMARK    3  A    between atoms: C_4  and  C_5
REMARK    4  A    between atoms: C_5  and  N_6
REMARK    5  A    between atoms: C_7  and  C_9
REMARK    6  A    between atoms: C_9  and  C_10
REMARK    7  A    between atoms: C_9  and  C_11
REMARK    8  A    between atoms: C_9  and  C_12
REMARK                            x       y       z     vdW  Elec       q    Type
REMARK                         _______ _______ _______ _____ _____    ______ ____
ROOT
ATOM      1  N   UNL     1       6.688   5.561  17.155  0.00  0.00    +0.000 N 
ATOM      2  C   UNL     1       5.589   4.980  17.772  0.00  0.00    +0.000 A 
ATOM      3  N   UNL     1       4.930   4.221  16.919  0.00  0.00    +0.000 NA
ATOM      4  C   UNL     1       5.614   4.290  15.727  0.00  0.00    +0.000 A 
ATOM      5  C   UNL     1       5.372   3.631  14.510  0.00  0.00    +0.000 A 
ATOM      6  C   UNL     1       6.206   3.898  13.418  0.00  0.00    +0.000 A 
ATOM      7  C   UNL     1       7.257   4.809  13.529  0.00  0.00    +0.000 A 
ATOM      8  C   UNL     1       7.522   5.459  14.740  0.00  0.00    +0.000 A 
ATOM      9  C   UNL     1       6.690   5.163  15.829  0.00  0.00    +0.000 A 
ENDROOT
BRANCH   1  11
ATOM     10  C   UNL     1       7.523   7.854  17.532  0.00  0.00    +0.000 C 
ATOM     11  C   UNL     1       7.745   6.365  17.732  0.00  0.00    +0.000 C 
ENDBRANCH   1  11
BRANCH   2  12
ATOM     12  C   UNL     1       5.191   5.120  19.217  0.00  0.00    +0.000 C 
BRANCH  12  13
ATOM     13  N   UNL     1       4.240   4.088  19.581  0.00  0.00    +0.000 N 
ATOM     14  C   UNL     1       2.952   4.418  19.978  0.00  0.00    +0.000 C 
ATOM     15  O   UNL     1       2.560   5.580  20.019  0.00  0.00    +0.000 OA
ATOM     16  H   UNL     1       4.646   3.267  20.007  0.00  0.00    +0.000 HD
BRANCH  14  17
ATOM     17  C   UNL     1       2.026   3.212  20.281  0.00  0.00    +0.000 C 
ATOM     18  C   UNL     1       2.243   2.694  21.711  0.00  0.00    +0.000 C 
ATOM     19  C   UNL     1       0.539   3.590  20.124  0.00  0.00    +0.000 C 
ATOM     20  C   UNL     1       2.341   2.099  19.271  0.00  0.00    +0.000 C 
ENDBRANCH  14  17
ENDBRANCH  12  13
ENDBRANCH   2  12
TORSDOF 4
ENDMDL
MODEL 6
REMARK VINA RESULT:      -6.5      1.205      1.577
REMARK  Name = 
REMARK  8 active torsions:
REMARK  status: ('A' for Active; 'I' for Inactive)
REMARK    1  A    between atoms: C_1  and  C_2
REMARK    2  A    between atoms: C_2  and  N_3
REMARK    3  A    between atoms: C_4  and  C_5
REMARK    4  A    between atoms: C_5  and  N_6
REMARK    5  A    between atoms: C_7  and  C_9
REMARK    6  A    between atoms: C_9  and  C_10
REMARK    7  A    between atoms: C_9  and  C_11
REMARK    8  A    between atoms: C_9  and  C_12
REMARK                            x       y       z     vdW  Elec       q    Type
REMARK                         _______ _______ _______ _____ _____    ______ ____
ROOT
ATOM      1  N   UNL     1       6.817   5.206  16.212  0.00  0.00    +0.000 N 
ATOM      2  C   UNL     1       5.852   4.324  16.677  0.00  0.00    +0.000 A 
ATOM      3  N   UNL     1       5.412   3.564  15.693  0.00  0.00    +0.000 NA
ATOM      4  C   UNL     1       6.107   3.941  14.568  0.00  0.00    +0.000 A 
ATOM      5  C   UNL     1       6.064   3.417  13.264  0.00  0.00    +0.000 A 
ATOM      6  C   UNL     1       6.859   4.005  12.273  0.00  0.00    +0.000 A 
ATOM      7  C   UNL     1       7.675   5.096  12.567  0.00  0.00    +0.000 A 
ATOM      8  C   UNL     1       7.744   5.617  13.864  0.00  0.00    +0.000 A 
ATOM      9  C   UNL     1       6.958   5.002  14.850  0.00  0.00    +0.000 A 
ENDROOT
BRANCH   1  11
ATOM     10  C   UNL     1       6.920   7.422  17.297  0.00  0.00    +0.000 C 
ATOM     11  C   UNL     1       7.646   6.132  16.954  0.00  0.00    +0.000 C 
ENDBRANCH   1  11
BRANCH   2  12
ATOM     12  C   UNL     1       5.379   4.176  18.098  0.00  0.00    +0.000 C 
BRANCH  12  13
ATOM     13  N   UNL     1       3.932   4.257  18.159  0.00  0.00    +0.000 N 
ATOM     14  C   UNL     1       3.202   3.347  18.911  0.00  0.00    +0.000 C 
ATOM     15  O   UNL     1       3.742   2.457  19.562  0.00  0.00    +0.000 OA
ATOM     16  H   UNL     1       3.490   4.606  17.321  0.00  0.00    +0.000 HD
BRANCH  14  17
ATOM     17  C   UNL     1       1.671   3.588  18.933  0.00  0.00    +0.000 C 
ATOM     18  C   UNL     1       1.235   4.255  20.247  0.00  0.00    +0.000 C 
ATOM     19  C   UNL     1       1.225   4.489  17.762  0.00  0.00    +0.000 C 
ATOM     20  C   UNL     1       0.970   2.230  18.781  0.00  0.00    +0.000 C 
ENDBRANCH  14  17
ENDBRANCH  12  13
ENDBRANCH   2  12
TORSDOF 4
ENDMDL
MODEL 7
REMARK VINA RESULT:      -6.5      4.516      7.553
REMARK  Name = 
REMARK  8 active torsions:
REMARK  status: ('A' for Active; 'I' for Inactive)
REMARK    1  A    between atoms: C_1  and  C_2
REMARK    2  A    between atoms: C_2  and  N_3
REMARK    3  A    between atoms: C_4  and  C_5
REMARK    4  A    between atoms: C_5  and  N_6
REMARK    5  A    between atoms: C_7  and  C_9
REMARK    6  A    between atoms: C_9  and  C_10
REMARK    7  A    between atoms: C_9  and  C_11
REMARK    8  A    between atoms: C_9  and  C_12
REMARK                            x       y       z     vdW  Elec       q    Type
REMARK                         _______ _______ _______ _____ _____    ______ ____
ROOT
ATOM      1  N   UNL     1       0.979   9.371  19.683  0.00  0.00    +0.000 N 
ATOM      2  C   UNL     1       1.587   8.218  20.158  0.00  0.00    +0.000 A 
ATOM      3  N   UNL     1       1.316   8.049  21.438  0.00  0.00    +0.000 NA
ATOM      4  C   UNL     1       0.505   9.097  21.806  0.00  0.00    +0.000 A 
ATOM      5  C   UNL     1      -0.112   9.369  23.039  0.00  0.00    +0.000 A 
ATOM      6  C   UNL     1      -0.875  10.535  23.171  0.00  0.00    +0.000 A 
ATOM      7  C   UNL     1      -1.017  11.420  22.103  0.00  0.00    +0.000 A 
ATOM      8  C   UNL     1      -0.424  11.154  20.863  0.00  0.00    +0.000 A 
ATOM      9  C   UNL     1       0.318   9.970  20.741  0.00  0.00    +0.000 A 
ENDROOT
BRANCH   1  11
ATOM     10  C   UNL     1      -0.493   9.807  17.748  0.00  0.00    +0.000 C 
ATOM     11  C   UNL     1       0.909   9.879  18.329  0.00  0.00    +0.000 C 
ENDBRANCH   1  11
BRANCH   2  12
ATOM     12  C   UNL     1       2.404   7.238  19.360  0.00  0.00    +0.000 C 
BRANCH  12  13
ATOM     13  N   UNL     1       2.194   5.889  19.849  0.00  0.00    +0.000 N 
ATOM     14  C   UNL     1       2.016   4.834  18.966  0.00  0.00    +0.000 C 
ATOM     15  O   UNL     1       2.045   4.990  17.749  0.00  0.00    +0.000 OA
ATOM     16  H   UNL     1       1.703   5.828  20.729  0.00  0.00    +0.000 HD
BRANCH  14  17
ATOM     17  C   UNL     1       1.862   3.440  19.626  0.00  0.00    +0.000 C 
ATOM     18  C   UNL     1       1.305   3.562  21.053  0.00  0.00    +0.000 C 
ATOM     19  C   UNL     1       0.913   2.533  18.814  0.00  0.00    +0.000 C 
ATOM     20  C   UNL     1       3.243   2.771  19.662  0.00  0.00    +0.000 C 
ENDBRANCH  14  17
ENDBRANCH  12  13
ENDBRANCH   2  12
TORSDOF 4
ENDMDL
MODEL 8
REMARK VINA RESULT:      -6.4      4.570      7.504
REMARK  Name = 
REMARK  8 active torsions:
REMARK  status: ('A' for Active; 'I' for Inactive)
REMARK    1  A    between atoms: C_1  and  C_2
REMARK    2  A    between atoms: C_2  and  N_3
REMARK    3  A    between atoms: C_4  and  C_5
REMARK    4  A    between atoms: C_5  and  N_6
REMARK    5  A    between atoms: C_7  and  C_9
REMARK    6  A    between atoms: C_9  and  C_10
REMARK    7  A    between atoms: C_9  and  C_11
REMARK    8  A    between atoms: C_9  and  C_12
REMARK                            x       y       z     vdW  Elec       q    Type
REMARK                         _______ _______ _______ _____ _____    ______ ____
ROOT
ATOM      1  N   UNL     1       0.985   9.373  19.705  0.00  0.00    +0.000 N 
ATOM      2  C   UNL     1       1.579   8.239  20.238  0.00  0.00    +0.000 A 
ATOM      3  N   UNL     1       1.269   8.114  21.514  0.00  0.00    +0.000 NA
ATOM      4  C   UNL     1       0.447   9.173  21.821  0.00  0.00    +0.000 A 
ATOM      5  C   UNL     1      -0.208   9.487  23.024  0.00  0.00    +0.000 A 
ATOM      6  C   UNL     1      -0.975  10.655  23.092  0.00  0.00    +0.000 A 
ATOM      7  C   UNL     1      -1.085  11.502  21.990  0.00  0.00    +0.000 A 
ATOM      8  C   UNL     1      -0.455  11.194  20.779  0.00  0.00    +0.000 A 
ATOM      9  C   UNL     1       0.292  10.008  20.721  0.00  0.00    +0.000 A 
ENDROOT
BRANCH   1  11
ATOM     10  C   UNL     1       2.083  10.801  18.015  0.00  0.00    +0.000 C 
ATOM     11  C   UNL     1       0.956   9.834  18.333  0.00  0.00    +0.000 C 
ENDBRANCH   1  11
BRANCH   2  12
ATOM     12  C   UNL     1       2.420   7.233  19.500  0.00  0.00    +0.000 C 
BRANCH  12  13
ATOM     13  N   UNL     1       2.172   5.897  20.007  0.00  0.00    +0.000 N 
ATOM     14  C   UNL     1       2.394   4.783  19.210  0.00  0.00    +0.000 C 
ATOM     15  O   UNL     1       2.822   4.877  18.064  0.00  0.00    +0.000 OA
ATOM     16  H   UNL     1       1.418   5.830  20.675  0.00  0.00    +0.000 HD
BRANCH  14  17
ATOM     17  C   UNL     1       2.144   3.418  19.900  0.00  0.00    +0.000 C 
ATOM     18  C   UNL     1       3.262   2.417  19.570  0.00  0.00    +0.000 C 
ATOM     19  C   UNL     1       2.067   3.568  21.434  0.00  0.00    +0.000 C 
ATOM     20  C   UNL     1       0.795   2.873  19.409  0.00  0.00    +0.000 C 
ENDBRANCH  14  17
ENDBRANCH  12  13
ENDBRANCH   2  12
TORSDOF 4
ENDMDL
MODEL 9
REMARK VINA RESULT:      -6.4      3.786      5.175
REMARK  Name = 
REMARK  8 active torsions:
REMARK  status: ('A' for Active; 'I' for Inactive)
REMARK    1  A    between atoms: C_1  and  C_2
REMARK    2  A    between atoms: C_2  and  N_3
REMARK    3  A    between atoms: C_4  and  C_5
REMARK    4  A    between atoms: C_5  and  N_6
REMARK    5  A    between atoms: C_7  and  C_9
REMARK    6  A    between atoms: C_9  and  C_10
REMARK    7  A    between atoms: C_9  and  C_11
REMARK    8  A    between atoms: C_9  and  C_12
REMARK                            x       y       z     vdW  Elec       q    Type
REMARK                         _______ _______ _______ _____ _____    ______ ____
ROOT
ATOM      1  N   UNL     1       3.361   4.939  18.414  0.00  0.00    +0.000 N 
ATOM      2  C   UNL     1       3.181   6.284  18.701  0.00  0.00    +0.000 A 
ATOM      3  N   UNL     1       3.841   7.030  17.837  0.00  0.00    +0.000 NA
ATOM      4  C   UNL     1       4.451   6.165  16.959  0.00  0.00    +0.000 A 
ATOM      5  C   UNL     1       5.228   6.435  15.820  0.00  0.00    +0.000 A 
ATOM      6  C   UNL     1       5.771   5.363  15.102  0.00  0.00    +0.000 A 
ATOM      7  C   UNL     1       5.553   4.048  15.509  0.00  0.00    +0.000 A 
ATOM      8  C   UNL     1       4.765   3.762  16.629  0.00  0.00    +0.000 A 
ATOM      9  C   UNL     1       4.211   4.846  17.325  0.00  0.00    +0.000 A 
ENDROOT
BRANCH   1  11
ATOM     10  C   UNL     1       1.403   3.433  18.384  0.00  0.00    +0.000 C 
ATOM     11  C   UNL     1       2.738   3.781  19.020  0.00  0.00    +0.000 C 
ENDBRANCH   1  11
BRANCH   2  12
ATOM     12  C   UNL     1       2.325   6.863  19.794  0.00  0.00    +0.000 C 
BRANCH  12  13
ATOM     13  N   UNL     1       1.798   8.154  19.393  0.00  0.00    +0.000 N 
ATOM     14  C   UNL     1       1.112   8.952  20.297  0.00  0.00    +0.000 C 
ATOM     15  O   UNL     1       0.939   8.614  21.465  0.00  0.00    +0.000 OA
ATOM     16  H   UNL     1       1.505   8.212  18.429  0.00  0.00    +0.000 HD
BRANCH  14  17
ATOM     17  C   UNL     1       0.657  10.328  19.749  0.00  0.00    +0.000 C 
ATOM     18  C   UNL     1      -0.832  10.309  19.371  0.00  0.00    +0.000 C 
ATOM     19  C   UNL     1       0.878  11.449  20.786  0.00  0.00    +0.000 C 
ATOM     20  C   UNL     1       1.504  10.655  18.510  0.00  0.00    +0.000 C 
ENDBRANCH  14  17
ENDBRANCH  12  13
ENDBRANCH   2  12
TORSDOF 4
ENDMDL
