MODEL 1
REMARK VINA RESULT:      -7.8      0.000      0.000
REMARK  Name = 
REMARK  6 active torsions:
REMARK  status: ('A' for Active; 'I' for Inactive)
REMARK    1  A    between atoms: C_1  and  C_2
REMARK    2  A    between atoms: C_6  and  S_7
REMARK    3  A    between atoms: S_7  and  C_8
REMARK    4  A    between atoms: C_8  and  C_9
REMARK    5  A    between atoms: C_12  and  C_13
REMARK    6  A    between atoms: C_15  and  C_16
REMARK                            x       y       z     vdW  Elec       q    Type
REMARK                         _______ _______ _______ _____ _____    ______ ____
ROOT
ATOM      1  C   UNL     1       4.400   5.331  17.433  0.00  0.00    +0.000 A 
ATOM      2  C   UNL     1       3.153   5.861  17.681  0.00  0.00    +0.000 A 
ATOM      3  N   UNL     1       2.837   5.317  18.888  0.00  0.00    +0.000 N 
ATOM      4  C   UNL     1       2.157   5.857  19.969  0.00  0.00    +0.000 A 
ATOM      5  C   UNL     1       2.074   7.351  20.090  0.00  0.00    +0.000 C 
ATOM      6  C   UNL     1       1.841   5.026  20.979  0.00  0.00    +0.000 A 
ATOM      7  C   UNL     1       2.226   3.583  20.773  0.00  0.00    +0.000 A 
ATOM      8  C   UNL     1       1.552   2.595  21.698  0.00  0.00    +0.000 C 
ATOM      9  N   UNL     1       3.045   3.149  19.857  0.00  0.00    +0.000 NA
ATOM     10  C   UNL     1       3.484   4.090  18.959  0.00  0.00    +0.000 A 
ATOM     11  N   UNL     1       4.541   4.149  18.155  0.00  0.00    +0.000 NA
ENDROOT
BRANCH   1  12
ATOM     12  C   UNL     1       5.466   5.933  16.563  0.00  0.00    +0.000 C 
BRANCH  12  13
ATOM     13  S   UNL     1       6.871   4.736  16.385  0.00  0.00    +0.000 S 
BRANCH  13  19
ATOM     14  C   UNL     1       5.556   2.722  11.884  0.00  0.00    +0.000 C 
ATOM     15  C   UNL     1       6.398   3.723  12.618  0.00  0.00    +0.000 A 
ATOM     16  C   UNL     1       7.271   4.540  11.940  0.00  0.00    +0.000 A 
ATOM     17  C   UNL     1       8.004   5.414  12.699  0.00  0.00    +0.000 A 
ATOM     18  N   UNL     1       7.912   5.496  14.037  0.00  0.00    +0.000 NA
ATOM     19  C   UNL     1       7.052   4.663  14.629  0.00  0.00    +0.000 A 
ATOM     20  N   UNL     1       6.285   3.767  13.969  0.00  0.00    +0.000 NA
ENDBRANCH  13  19
ENDBRANCH  12  13
ENDBRANCH   1  12
TORSDOF 3
ENDMDL
MODEL 2
REMARK VINA RESULT:      -7.5      2.534      3.828
REMARK  Name = 
REMARK  6 active torsions:
REMARK  status: ('A' for Active; 'I' for Inactive)
REMARK    1  A    between atoms: C_1  and  C_2
REMARK    2  A    between atoms: C_6  and  S_7
REMARK    3  A    between atoms: S_7  and  C_8
REMARK    4  A    between atoms: C_8  and  C_9
REMARK    5  A    between atoms: C_12  and  C_13
REMARK    6  A    between atoms: C_15  and  C_16
REMARK                            x       y       z     vdW  Elec       q    Type
REMARK                         _______ _______ _______ _____ _____    ______ ____
ROOT
ATOM      1  C   UNL     1       4.049   3.833  17.077  0.00  0.00    +0.000 A 
ATOM      2  C   UNL     1       2.978   4.658  17.339  0.00  0.00    +0.000 A 
ATOM      3  N   UNL     1       2.730   4.409  18.655  0.00  0.00    +0.000 N 
ATOM      4  C   UNL     1       2.326   5.259  19.672  0.00  0.00    +0.000 A 
ATOM      5  C   UNL     1       2.558   6.734  19.509  0.00  0.00    +0.000 C 
ATOM      6  C   UNL     1       1.995   4.701  20.851  0.00  0.00    +0.000 A 
ATOM      7  C   UNL     1       2.055   3.195  20.892  0.00  0.00    +0.000 A 
ATOM      8  C   UNL     1       1.333   2.551  22.053  0.00  0.00    +0.000 C 
ATOM      9  N   UNL     1       2.637   2.444  20.001  0.00  0.00    +0.000 NA
ATOM     10  C   UNL     1       3.125   3.100  18.898  0.00  0.00    +0.000 A 
ATOM     11  N   UNL     1       4.052   2.788  17.998  0.00  0.00    +0.000 NA
ENDROOT
BRANCH   1  12
ATOM     12  C   UNL     1       5.083   4.030  16.005  0.00  0.00    +0.000 C 
BRANCH  12  13
ATOM     13  S   UNL     1       5.325   5.843  15.704  0.00  0.00    +0.000 S 
BRANCH  13  19
ATOM     14  C   UNL     1       8.310   9.282  18.009  0.00  0.00    +0.000 C 
ATOM     15  C   UNL     1       7.826   7.863  17.964  0.00  0.00    +0.000 A 
ATOM     16  C   UNL     1       8.295   6.932  18.859  0.00  0.00    +0.000 A 
ATOM     17  C   UNL     1       7.801   5.660  18.732  0.00  0.00    +0.000 A 
ATOM     18  N   UNL     1       6.911   5.297  17.793  0.00  0.00    +0.000 NA
ATOM     19  C   UNL     1       6.509   6.253  16.950  0.00  0.00    +0.000 A 
ATOM     20  N   UNL     1       6.937   7.534  16.994  0.00  0.00    +0.000 NA
ENDBRANCH  13  19
ENDBRANCH  12  13
ENDBRANCH   1  12
TORSDOF 3
ENDMDL
MODEL 3
REMARK VINA RESULT:      -7.4      0.995      2.189
REMARK  Name = 
REMARK  6 active torsions:
REMARK  status: ('A' for Active; 'I' for Inactive)
REMARK    1  A    between atoms: C_1  and  C_2
REMARK    2  A    between atoms: C_6  and  S_7
REMARK    3  A    between atoms: S_7  and  C_8
REMARK    4  A    between atoms: C_8  and  C_9
REMARK    5  A    between atoms: C_12  and  C_13
REMARK    6  A    between atoms: C_15  and  C_16
REMARK                            x       y       z     vdW  Elec       q    Type
REMARK                         _______ _______ _______ _____ _____    ______ ____
ROOT
ATOM      1  C   UNL     1       4.526   4.701  17.753  0.00  0.00    +0.000 A 
ATOM      2  C   UNL     1       4.281   4.100  18.968  0.00  0.00    +0.000 A 
ATOM      3  N   UNL     1       3.229   4.821  19.445  0.00  0.00    +0.000 N 
ATOM      4  C   UNL     1       2.123   4.422  20.179  0.00  0.00    +0.000 A 
ATOM      5  C   UNL     1       1.723   2.975  20.144  0.00  0.00    +0.000 C 
ATOM      6  C   UNL     1       1.319   5.387  20.661  0.00  0.00    +0.000 A 
ATOM      7  C   UNL     1       1.767   6.799  20.383  0.00  0.00    +0.000 A 
ATOM      8  C   UNL     1       1.104   7.866  21.226  0.00  0.00    +0.000 C 
ATOM      9  N   UNL     1       2.681   7.139  19.519  0.00  0.00    +0.000 NA
ATOM     10  C   UNL     1       3.344   6.100  18.916  0.00  0.00    +0.000 A 
ATOM     11  N   UNL     1       4.034   6.004  17.784  0.00  0.00    +0.000 NA
ENDROOT
BRANCH   1  12
ATOM     12  C   UNL     1       5.176   4.062  16.559  0.00  0.00    +0.000 C 
BRANCH  12  13
ATOM     13  S   UNL     1       6.852   4.810  16.291  0.00  0.00    +0.000 S 
BRANCH  13  19
ATOM     14  C   UNL     1       5.486   2.658  11.869  0.00  0.00    +0.000 C 
ATOM     15  C   UNL     1       6.346   3.672  12.564  0.00  0.00    +0.000 A 
ATOM     16  C   UNL     1       7.226   4.453  11.854  0.00  0.00    +0.000 A 
ATOM     17  C   UNL     1       7.975   5.343  12.578  0.00  0.00    +0.000 A 
ATOM     18  N   UNL     1       7.891   5.473  13.913  0.00  0.00    +0.000 NA
ATOM     19  C   UNL     1       7.022   4.674  14.538  0.00  0.00    +0.000 A 
ATOM     20  N   UNL     1       6.240   3.766  13.913  0.00  0.00    +0.000 NA
ENDBRANCH  13  19
ENDBRANCH  12  13
ENDBRANCH   1  12
TORSDOF 3
ENDMDL
MODEL 4
REMARK VINA RESULT:      -7.4      1.606      1.631
REMARK  Name = 
REMARK  6 active torsions:
REMARK  status: ('A' for Active; 'I' for Inactive)
REMARK    1  A    between atoms: C_1  and  C_2
REMARK    2  A    between atoms: C_6  and  S_7
REMARK    3  A    between atoms: S_7  and  C_8
REMARK    4  A    between atoms: C_8  and  C_9
REMARK    5  A    between atoms: C_12  and  C_13
REMARK    6  A    between atoms: C_15  and  C_16
REMARK                            x       y       z     vdW  Elec       q    Type
REMARK                         _______ _______ _______ _____ _____    ______ ____
ROOT
ATOM      1  C   UNL     1       5.269   4.034  17.990  0.00  0.00    +0.000 A 
ATOM      2  C   UNL     1       4.123   3.494  17.449  0.00  0.00    +0.000 A 
ATOM      3  N   UNL     1       3.270   3.493  18.510  0.00  0.00    +0.000 N 
ATOM      4  C   UNL     1       1.906   3.733  18.569  0.00  0.00    +0.000 A 
ATOM      5  C   UNL     1       1.264   4.501  17.450  0.00  0.00    +0.000 C 
ATOM      6  C   UNL     1       1.286   3.499  19.740  0.00  0.00    +0.000 A 
ATOM      7  C   UNL     1       2.162   2.944  20.835  0.00  0.00    +0.000 A 
ATOM      8  C   UNL     1       1.425   2.328  22.002  0.00  0.00    +0.000 C 
ATOM      9  N   UNL     1       3.464   2.933  20.818  0.00  0.00    +0.000 NA
ATOM     10  C   UNL     1       4.048   3.363  19.653  0.00  0.00    +0.000 A 
ATOM     11  N   UNL     1       5.258   3.832  19.368  0.00  0.00    +0.000 NA
ENDROOT
BRANCH   1  12
ATOM     12  C   UNL     1       6.348   4.764  17.242  0.00  0.00    +0.000 C 
BRANCH  12  13
ATOM     13  S   UNL     1       5.582   5.827  15.930  0.00  0.00    +0.000 S 
BRANCH  13  19
ATOM     14  C   UNL     1       5.132   2.749  11.883  0.00  0.00    +0.000 C 
ATOM     15  C   UNL     1       5.991   3.723  12.637  0.00  0.00    +0.000 A 
ATOM     16  C   UNL     1       7.252   4.039  12.192  0.00  0.00    +0.000 A 
ATOM     17  C   UNL     1       7.963   4.930  12.953  0.00  0.00    +0.000 A 
ATOM     18  N   UNL     1       7.493   5.482  14.084  0.00  0.00    +0.000 NA
ATOM     19  C   UNL     1       6.264   5.120  14.461  0.00  0.00    +0.000 A 
ATOM     20  N   UNL     1       5.485   4.251  13.780  0.00  0.00    +0.000 NA
ENDBRANCH  13  19
ENDBRANCH  12  13
ENDBRANCH   1  12
TORSDOF 3
ENDMDL
MODEL 5
REMARK VINA RESULT:      -7.4      2.678      4.242
REMARK  Name = 
REMARK  6 active torsions:
REMARK  status: ('A' for Active; 'I' for Inactive)
REMARK    1  A    between atoms: C_1  and  C_2
REMARK    2  A    between atoms: C_6  and  S_7
REMARK    3  A    between atoms: S_7  and  C_8
REMARK    4  A    between atoms: C_8  and  C_9
REMARK    5  A    between atoms: C_12  and  C_13
REMARK    6  A    between atoms: C_15  and  C_16
REMARK                            x       y       z     vdW  Elec       q    Type
REMARK                         _______ _______ _______ _____ _____    ______ ____
ROOT
ATOM      1  C   UNL     1       4.102   4.579  17.824  0.00  0.00    +0.000 A 
ATOM      2  C   UNL     1       4.076   4.320  19.177  0.00  0.00    +0.000 A 
ATOM      3  N   UNL     1       3.093   5.153  19.618  0.00  0.00    +0.000 N 
ATOM      4  C   UNL     1       2.134   4.972  20.602  0.00  0.00    +0.000 A 
ATOM      5  C   UNL     1       1.782   3.570  21.011  0.00  0.00    +0.000 C 
ATOM      6  C   UNL     1       1.387   6.038  20.942  0.00  0.00    +0.000 A 
ATOM      7  C   UNL     1       1.737   7.323  20.236  0.00  0.00    +0.000 A 
ATOM      8  C   UNL     1       1.186   8.580  20.870  0.00  0.00    +0.000 C 
ATOM      9  N   UNL     1       2.488   7.415  19.175  0.00  0.00    +0.000 NA
ATOM     10  C   UNL     1       3.078   6.246  18.762  0.00  0.00    +0.000 A 
ATOM     11  N   UNL     1       3.579   5.849  17.597  0.00  0.00    +0.000 NA
ENDROOT
BRANCH   1  12
ATOM     12  C   UNL     1       4.571   3.643  16.748  0.00  0.00    +0.000 C 
BRANCH  12  13
ATOM     13  S   UNL     1       5.885   4.470  15.735  0.00  0.00    +0.000 S 
BRANCH  13  19
ATOM     14  C   UNL     1       7.847   8.782  17.635  0.00  0.00    +0.000 C 
ATOM     15  C   UNL     1       7.661   7.302  17.801  0.00  0.00    +0.000 A 
ATOM     16  C   UNL     1       8.197   6.643  18.880  0.00  0.00    +0.000 A 
ATOM     17  C   UNL     1       7.982   5.291  18.939  0.00  0.00    +0.000 A 
ATOM     18  N   UNL     1       7.296   4.606  18.009  0.00  0.00    +0.000 NA
ATOM     19  C   UNL     1       6.813   5.311  16.982  0.00  0.00    +0.000 A 
ATOM     20  N   UNL     1       6.972   6.645  16.835  0.00  0.00    +0.000 NA
ENDBRANCH  13  19
ENDBRANCH  12  13
ENDBRANCH   1  12
TORSDOF 3
ENDMDL
MODEL 6
REMARK VINA RESULT:      -7.2      1.161      1.175
REMARK  Name = 
REMARK  6 active torsions:
REMARK  status: ('A' for Active; 'I' for Inactive)
REMARK    1  A    between atoms: C_1  and  C_2
REMARK    2  A    between atoms: C_6  and  S_7
REMARK    3  A    between atoms: S_7  and  C_8
REMARK    4  A    between atoms: C_8  and  C_9
REMARK    5  A    between atoms: C_12  and  C_13
REMARK    6  A    between atoms: C_15  and  C_16
REMARK                            x       y       z     vdW  Elec       q    Type
REMARK                         _______ _______ _______ _____ _____    ______ ____
ROOT
ATOM      1  C   UNL     1       4.623   5.532  17.040  0.00  0.00    +0.000 A 
ATOM      2  C   UNL     1       3.507   6.205  17.488  0.00  0.00    +0.000 A 
ATOM      3  N   UNL     1       2.840   5.240  18.180  0.00  0.00    +0.000 N 
ATOM      4  C   UNL     1       2.101   5.320  19.350  0.00  0.00    +0.000 A 
ATOM      5  C   UNL     1       2.341   6.479  20.273  0.00  0.00    +0.000 C 
ATOM      6  C   UNL     1       1.409   4.227  19.720  0.00  0.00    +0.000 A 
ATOM      7  C   UNL     1       1.485   3.061  18.767  0.00  0.00    +0.000 A 
ATOM      8  C   UNL     1       0.432   1.994  18.964  0.00  0.00    +0.000 C 
ATOM      9  N   UNL     1       2.348   2.940  17.798  0.00  0.00    +0.000 NA
ATOM     10  C   UNL     1       3.161   4.026  17.588  0.00  0.00    +0.000 A 
ATOM     11  N   UNL     1       4.342   4.169  16.995  0.00  0.00    +0.000 NA
ENDROOT
BRANCH   1  12
ATOM     12  C   UNL     1       5.950   6.142  16.692  0.00  0.00    +0.000 C 
BRANCH  12  13
ATOM     13  S   UNL     1       7.194   4.798  16.399  0.00  0.00    +0.000 S 
BRANCH  13  19
ATOM     14  C   UNL     1       5.465   2.817  12.024  0.00  0.00    +0.000 C 
ATOM     15  C   UNL     1       6.385   3.801  12.685  0.00  0.00    +0.000 A 
ATOM     16  C   UNL     1       7.213   4.602  11.936  0.00  0.00    +0.000 A 
ATOM     17  C   UNL     1       8.024   5.461  12.630  0.00  0.00    +0.000 A 
ATOM     18  N   UNL     1       8.047   5.543  13.971  0.00  0.00    +0.000 NA
ATOM     19  C   UNL     1       7.224   4.725  14.634  0.00  0.00    +0.000 A 
ATOM     20  N   UNL     1       6.388   3.845  14.041  0.00  0.00    +0.000 NA
ENDBRANCH  13  19
ENDBRANCH  12  13
ENDBRANCH   1  12
TORSDOF 3
ENDMDL
MODEL 7
REMARK VINA RESULT:      -7.1      0.968      1.662
REMARK  Name = 
REMARK  6 active torsions:
REMARK  status: ('A' for Active; 'I' for Inactive)
REMARK    1  A    between atoms: C_1  and  C_2
REMARK    2  A    between atoms: C_6  and  S_7
REMARK    3  A    between atoms: S_7  and  C_8
REMARK    4  A    between atoms: C_8  and  C_9
REMARK    5  A    between atoms: C_12  and  C_13
REMARK    6  A    between atoms: C_15  and  C_16
REMARK                            x       y       z     vdW  Elec       q    Type
REMARK                         _______ _______ _______ _____ _____    ______ ____
ROOT
ATOM      1  C   UNL     1       5.157   5.418  18.366  0.00  0.00    +0.000 A 
ATOM      2  C   UNL     1       3.869   5.872  18.179  0.00  0.00    +0.000 A 
ATOM      3  N   UNL     1       3.214   5.347  19.251  0.00  0.00    +0.000 N 
ATOM      4  C   UNL     1       2.197   5.874  20.032  0.00  0.00    +0.000 A 
ATOM      5  C   UNL     1       2.001   7.363  20.044  0.00  0.00    +0.000 C 
ATOM      6  C   UNL     1       1.621   5.057  20.932  0.00  0.00    +0.000 A 
ATOM      7  C   UNL     1       2.128   3.637  20.933  0.00  0.00    +0.000 A 
ATOM      8  C   UNL     1       1.248   2.636  21.647  0.00  0.00    +0.000 C 
ATOM      9  N   UNL     1       3.218   3.230  20.346  0.00  0.00    +0.000 NA
ATOM     10  C   UNL     1       3.869   4.169  19.586  0.00  0.00    +0.000 A 
ATOM     11  N   UNL     1       5.123   4.273  19.156  0.00  0.00    +0.000 NA
ENDROOT
BRANCH   1  12
ATOM     12  C   UNL     1       6.411   6.063  17.848  0.00  0.00    +0.000 C 
BRANCH  12  13
ATOM     13  S   UNL     1       7.596   4.751  17.288  0.00  0.00    +0.000 S 
BRANCH  13  19
ATOM     14  C   UNL     1       8.189   5.821  12.333  0.00  0.00    +0.000 C 
ATOM     15  C   UNL     1       7.438   5.041  13.373  0.00  0.00    +0.000 A 
ATOM     16  C   UNL     1       6.415   4.197  13.016  0.00  0.00    +0.000 A 
ATOM     17  C   UNL     1       5.783   3.536  14.037  0.00  0.00    +0.000 A 
ATOM     18  N   UNL     1       6.110   3.683  15.332  0.00  0.00    +0.000 NA
ATOM     19  C   UNL     1       7.107   4.529  15.605  0.00  0.00    +0.000 A 
ATOM     20  N   UNL     1       7.790   5.225  14.670  0.00  0.00    +0.000 NA
ENDBRANCH  13  19
ENDBRANCH  12  13
ENDBRANCH   1  12
TORSDOF 3
ENDMDL
MODEL 8
REMARK VINA RESULT:      -6.9      2.714      4.843
REMARK  Name = 
REMARK  6 active torsions:
REMARK  status: ('A' for Active; 'I' for Inactive)
REMARK    1  A    between atoms: C_1  and  C_2
REMARK    2  A    between atoms: C_6  and  S_7
REMARK    3  A    between atoms: S_7  and  C_8
REMARK    4  A    between atoms: C_8  and  C_9
REMARK    5  A    between atoms: C_12  and  C_13
REMARK    6  A    between atoms: C_15  and  C_16
REMARK                            x       y       z     vdW  Elec       q    Type
REMARK                         _______ _______ _______ _____ _____    ______ ____
ROOT
ATOM      1  C   UNL     1       2.384   6.373  18.520  0.00  0.00    +0.000 A 
ATOM      2  C   UNL     1       2.422   6.968  19.763  0.00  0.00    +0.000 A 
ATOM      3  N   UNL     1       1.898   8.200  19.516  0.00  0.00    +0.000 N 
ATOM      4  C   UNL     1       1.069   8.997  20.289  0.00  0.00    +0.000 A 
ATOM      5  C   UNL     1       0.254   8.348  21.370  0.00  0.00    +0.000 C 
ATOM      6  C   UNL     1       0.840  10.252  19.860  0.00  0.00    +0.000 A 
ATOM      7  C   UNL     1       1.574  10.648  18.604  0.00  0.00    +0.000 A 
ATOM      8  C   UNL     1       1.633  12.134  18.331  0.00  0.00    +0.000 C 
ATOM      9  N   UNL     1       2.169   9.822  17.791  0.00  0.00    +0.000 NA
ATOM     10  C   UNL     1       2.207   8.511  18.198  0.00  0.00    +0.000 A 
ATOM     11  N   UNL     1       2.371   7.366  17.544  0.00  0.00    +0.000 NA
ENDROOT
BRANCH   1  12
ATOM     12  C   UNL     1       2.321   4.899  18.241  0.00  0.00    +0.000 C 
BRANCH  12  13
ATOM     13  S   UNL     1       3.643   4.028  19.206  0.00  0.00    +0.000 S 
BRANCH  13  19
ATOM     14  C   UNL     1       5.701   4.254  14.541  0.00  0.00    +0.000 C 
ATOM     15  C   UNL     1       5.919   4.367  16.021  0.00  0.00    +0.000 A 
ATOM     16  C   UNL     1       7.168   4.636  16.529  0.00  0.00    +0.000 A 
ATOM     17  C   UNL     1       7.269   4.710  17.894  0.00  0.00    +0.000 A 
ATOM     18  N   UNL     1       6.231   4.528  18.728  0.00  0.00    +0.000 NA
ATOM     19  C   UNL     1       5.050   4.258  18.163  0.00  0.00    +0.000 A 
ATOM     20  N   UNL     1       4.849   4.165  16.830  0.00  0.00    +0.000 NA
ENDBRANCH  13  19
ENDBRANCH  12  13
ENDBRANCH   1  12
TORSDOF 3
ENDMDL
MODEL 9
REMARK VINA RESULT:      -6.8      2.578      3.697
REMARK  Name = 
REMARK  6 active torsions:
REMARK  status: ('A' for Active; 'I' for Inactive)
REMARK    1  A    between atoms: C_1  and  C_2
REMARK    2  A    between atoms: C_6  and  S_7
REMARK    3  A    between atoms: S_7  and  C_8
REMARK    4  A    between atoms: C_8  and  C_9
REMARK    5  A    between atoms: C_12  and  C_13
REMARK    6  A    between atoms: C_15  and  C_16
REMARK                            x       y       z     vdW  Elec       q    Type
REMARK                         _______ _______ _______ _____ _____    ______ ____
ROOT
ATOM      1  C   UNL     1       4.290   3.774  17.259  0.00  0.00    +0.000 A 
ATOM      2  C   UNL     1       3.180   4.573  17.424  0.00  0.00    +0.000 A 
ATOM      3  N   UNL     1       2.846   4.348  18.725  0.00  0.00    +0.000 N 
ATOM      4  C   UNL     1       2.346   5.209  19.689  0.00  0.00    +0.000 A 
ATOM      5  C   UNL     1       2.548   6.686  19.505  0.00  0.00    +0.000 C 
ATOM      6  C   UNL     1       1.948   4.669  20.855  0.00  0.00    +0.000 A 
ATOM      7  C   UNL     1       2.047   3.167  20.939  0.00  0.00    +0.000 A 
ATOM      8  C   UNL     1       1.263   2.529  22.063  0.00  0.00    +0.000 C 
ATOM      9  N   UNL     1       2.712   2.413  20.111  0.00  0.00    +0.000 NA
ATOM     10  C   UNL     1       3.259   3.057  19.029  0.00  0.00    +0.000 A 
ATOM     11  N   UNL     1       4.256   2.752  18.204  0.00  0.00    +0.000 NA
ENDROOT
BRANCH   1  12
ATOM     12  C   UNL     1       5.392   3.977  16.259  0.00  0.00    +0.000 C 
BRANCH  12  13
ATOM     13  S   UNL     1       5.428   5.753  15.728  0.00  0.00    +0.000 S 
BRANCH  13  19
ATOM     14  C   UNL     1       8.227   5.305  19.971  0.00  0.00    +0.000 C 
ATOM     15  C   UNL     1       7.805   6.178  18.827  0.00  0.00    +0.000 A 
ATOM     16  C   UNL     1       8.274   7.465  18.715  0.00  0.00    +0.000 A 
ATOM     17  C   UNL     1       7.824   8.188  17.641  0.00  0.00    +0.000 A 
ATOM     18  N   UNL     1       6.965   7.706  16.727  0.00  0.00    +0.000 NA
ATOM     19  C   UNL     1       6.543   6.451  16.906  0.00  0.00    +0.000 A 
ATOM     20  N   UNL     1       6.929   5.659  17.931  0.00  0.00    +0.000 NA
ENDBRANCH  13  19
ENDBRANCH  12  13
ENDBRANCH   1  12
TORSDOF 3
ENDMDL
