MODEL 1
REMARK VINA RESULT:      -7.8      0.000      0.000
REMARK  Name = 
REMARK  12 active torsions:
REMARK  status: ('A' for Active; 'I' for Inactive)
REMARK    1  A    between atoms: C_2  and  C_15
REMARK    2  A    between atoms: N_3  and  C_4
REMARK    3  A    between atoms: C_7  and  O_8
REMARK    4  A    between atoms: O_8  and  C_9
REMARK    5  A    between atoms: C_18  and  N_19
REMARK    6  A    between atoms: N_19  and  C_20
REMARK    7  A    between atoms: N_19  and  C_23
REMARK    8  A    between atoms: C_20  and  C_21
REMARK    9  A    between atoms: C_21  and  O_22
REMARK   10  A    between atoms: C_23  and  C_24
REMARK   11  A    between atoms: C_24  and  O_25
REMARK   12  A    between atoms: C_26  and  C_27
REMARK                            x       y       z     vdW  Elec       q    Type
REMARK                         _______ _______ _______ _____ _____    ______ ____
ROOT
ATOM      1  C   UNL     1       2.116   8.067  18.763  0.00  0.00    +0.000 A 
ATOM      2  C   UNL     1       2.944   8.242  17.691  0.00  0.00    +0.000 A 
ATOM      3  N   UNL     1       3.841   7.302  17.297  0.00  0.00    +0.000 NA
ATOM      4  C   UNL     1       3.997   6.116  17.968  0.00  0.00    +0.000 A 
ATOM      5  C   UNL     1       3.139   5.842  19.073  0.00  0.00    +0.000 A 
ATOM      6  C   UNL     1       2.209   6.851  19.429  0.00  0.00    +0.000 A 
ENDROOT
BRANCH   5   7
ATOM      7  C   UNL     1       3.080   4.648  19.940  0.00  0.00    +0.000 A 
ATOM      8  C   UNL     1       2.264   4.578  21.065  0.00  0.00    +0.000 A 
ATOM      9  N   UNL     1       2.145   3.502  21.876  0.00  0.00    +0.000 NA
ATOM     10  C   UNL     1       2.888   2.441  21.541  0.00  0.00    +0.000 A 
ATOM     11  N   UNL     1       3.673   2.350  20.459  0.00  0.00    +0.000 NA
ATOM     12  C   UNL     1       3.711   3.446  19.667  0.00  0.00    +0.000 A 
ENDBRANCH   5   7
BRANCH   1  14
ATOM     13  O   UNL     1       0.600   9.781  18.529  0.00  0.00    +0.000 OA
ATOM     14  C   UNL     1       1.232   9.106  19.337  0.00  0.00    +0.000 C 
ATOM     15  N   UNL     1       1.238   9.263  20.711  0.00  0.00    +0.000 N 
ATOM     16  H   UNL     1       1.938   8.767  21.247  0.00  0.00    +0.000 HD
BRANCH  15  17
ATOM     17  C   UNL     1       0.451  10.203  21.424  0.00  0.00    +0.000 A 
ATOM     18  C   UNL     1       0.414  11.567  21.114  0.00  0.00    +0.000 A 
ATOM     19  C   UNL     1      -0.393  12.442  21.846  0.00  0.00    +0.000 A 
ATOM     20  C   UNL     1      -1.191  11.973  22.883  0.00  0.00    +0.000 A 
ATOM     21  C   UNL     1      -1.146  10.620  23.222  0.00  0.00    +0.000 A 
ATOM     22  C   UNL     1      -0.336   9.741  22.483  0.00  0.00    +0.000 A 
BRANCH  20  23
ATOM     23  O   UNL     1      -1.960  12.929  23.481  0.00  0.00    +0.000 OA
BRANCH  23  24
ATOM     24  C   UNL     1      -3.374  12.784  23.403  0.00  0.00    +0.000 C 
ATOM     25  F   UNL     1      -3.747  12.289  22.198  0.00  0.00    +0.000 F 
ATOM     26  F   UNL     1      -3.780  11.910  24.357  0.00  0.00    +0.000 F 
ATOM     27 CL   UNL     1      -4.137  14.356  23.653  0.00  0.00    +0.000 Cl
ENDBRANCH  23  24
ENDBRANCH  20  23
ENDBRANCH  15  17
ENDBRANCH   1  14
BRANCH   4  28
ATOM     28  N   UNL     1       5.086   5.354  17.512  0.00  0.00    +0.000 N 
BRANCH  28  29
ATOM     29  C   UNL     1       6.419   5.999  17.712  0.00  0.00    +0.000 C 
BRANCH  29  30
ATOM     30  C   UNL     1       7.059   5.612  19.056  0.00  0.00    +0.000 C 
BRANCH  30  31
ATOM     31  O   UNL     1       8.212   6.415  19.315  0.00  0.00    +0.000 OA
ATOM     32  H   UNL     1       8.563   6.614  18.423  0.00  0.00    +0.000 HD
ENDBRANCH  30  31
ENDBRANCH  29  30
ENDBRANCH  28  29
BRANCH  28  33
ATOM     33  C   UNL     1       4.992   4.419  16.371  0.00  0.00    +0.000 C 
BRANCH  33  34
ATOM     34  C   UNL     1       5.892   4.698  15.157  0.00  0.00    +0.000 C 
BRANCH  34  35
ATOM     35  O   UNL     1       6.239   3.501  14.477  0.00  0.00    +0.000 OA
ATOM     36  H   UNL     1       7.213   3.520  14.370  0.00  0.00    +0.000 HD
ENDBRANCH  34  35
ENDBRANCH  33  34
ENDBRANCH  28  33
ENDBRANCH   4  28
TORSDOF 12
ENDMDL
MODEL 2
REMARK VINA RESULT:      -7.8      2.286      3.176
REMARK  Name = 
REMARK  12 active torsions:
REMARK  status: ('A' for Active; 'I' for Inactive)
REMARK    1  A    between atoms: C_2  and  C_15
REMARK    2  A    between atoms: N_3  and  C_4
REMARK    3  A    between atoms: C_7  and  O_8
REMARK    4  A    between atoms: O_8  and  C_9
REMARK    5  A    between atoms: C_18  and  N_19
REMARK    6  A    between atoms: N_19  and  C_20
REMARK    7  A    between atoms: N_19  and  C_23
REMARK    8  A    between atoms: C_20  and  C_21
REMARK    9  A    between atoms: C_21  and  O_22
REMARK   10  A    between atoms: C_23  and  C_24
REMARK   11  A    between atoms: C_24  and  O_25
REMARK   12  A    between atoms: C_26  and  C_27
REMARK                            x       y       z     vdW  Elec       q    Type
REMARK                         _______ _______ _______ _____ _____    ______ ____
ROOT
ATOM      1  C   UNL     1       3.139   7.397  17.922  0.00  0.00    +0.000 A 
ATOM      2  C   UNL     1       4.193   7.827  17.168  0.00  0.00    +0.000 A 
ATOM      3  N   UNL     1       5.169   6.991  16.728  0.00  0.00    +0.000 NA
ATOM      4  C   UNL     1       5.177   5.655  17.035  0.00  0.00    +0.000 A 
ATOM      5  C   UNL     1       4.088   5.122  17.783  0.00  0.00    +0.000 A 
ATOM      6  C   UNL     1       3.088   6.036  18.201  0.00  0.00    +0.000 A 
ENDROOT
BRANCH   5   7
ATOM      7  C   UNL     1       3.841   3.733  18.220  0.00  0.00    +0.000 A 
ATOM      8  C   UNL     1       4.472   3.171  19.325  0.00  0.00    +0.000 A 
ATOM      9  N   UNL     1       4.262   1.918  19.789  0.00  0.00    +0.000 NA
ATOM     10  C   UNL     1       3.373   1.190  19.106  0.00  0.00    +0.000 A 
ATOM     11  N   UNL     1       2.653   1.620  18.060  0.00  0.00    +0.000 NA
ATOM     12  C   UNL     1       2.881   2.897  17.675  0.00  0.00    +0.000 A 
ENDBRANCH   5   7
BRANCH   1  14
ATOM     13  O   UNL     1       1.863   8.020  19.731  0.00  0.00    +0.000 OA
ATOM     14  C   UNL     1       2.134   8.275  18.561  0.00  0.00    +0.000 C 
ATOM     15  N   UNL     1       1.553   9.257  17.780  0.00  0.00    +0.000 N 
ATOM     16  H   UNL     1       1.732   9.245  16.784  0.00  0.00    +0.000 HD
BRANCH  15  17
ATOM     17  C   UNL     1       0.580  10.185  18.231  0.00  0.00    +0.000 A 
ATOM     18  C   UNL     1      -0.798   9.967  18.124  0.00  0.00    +0.000 A 
ATOM     19  C   UNL     1      -1.708  10.914  18.601  0.00  0.00    +0.000 A 
ATOM     20  C   UNL     1      -1.263  12.082  19.210  0.00  0.00    +0.000 A 
ATOM     21  C   UNL     1       0.107  12.327  19.302  0.00  0.00    +0.000 A 
ATOM     22  C   UNL     1       1.021  11.371  18.824  0.00  0.00    +0.000 A 
BRANCH  20  23
ATOM     23  O   UNL     1      -2.261  12.895  19.669  0.00  0.00    +0.000 OA
BRANCH  23  24
ATOM     24  C   UNL     1      -2.591  12.819  21.051  0.00  0.00    +0.000 C 
ATOM     25  F   UNL     1      -2.006  11.745  21.634  0.00  0.00    +0.000 F 
ATOM     26  F   UNL     1      -2.135  13.933  21.675  0.00  0.00    +0.000 F 
ATOM     27 CL   UNL     1      -4.344  12.698  21.226  0.00  0.00    +0.000 Cl
ENDBRANCH  23  24
ENDBRANCH  20  23
ENDBRANCH  15  17
ENDBRANCH   1  14
BRANCH   4  28
ATOM     28  N   UNL     1       6.351   4.996  16.633  0.00  0.00    +0.000 N 
BRANCH  28  29
ATOM     29  C   UNL     1       6.163   4.031  15.508  0.00  0.00    +0.000 C 
BRANCH  29  30
ATOM     30  C   UNL     1       6.720   4.569  14.179  0.00  0.00    +0.000 C 
BRANCH  30  31
ATOM     31  O   UNL     1       7.721   5.562  14.416  0.00  0.00    +0.000 OA
ATOM     32  H   UNL     1       8.515   5.040  14.651  0.00  0.00    +0.000 HD
ENDBRANCH  30  31
ENDBRANCH  29  30
ENDBRANCH  28  29
BRANCH  28  33
ATOM     33  C   UNL     1       7.460   4.687  17.562  0.00  0.00    +0.000 C 
BRANCH  33  34
ATOM     34  C   UNL     1       7.758   5.711  18.667  0.00  0.00    +0.000 C 
BRANCH  34  35
ATOM     35  O   UNL     1       7.196   5.317  19.910  0.00  0.00    +0.000 OA
ATOM     36  H   UNL     1       7.647   5.853  20.596  0.00  0.00    +0.000 HD
ENDBRANCH  34  35
ENDBRANCH  33  34
ENDBRANCH  28  33
ENDBRANCH   4  28
TORSDOF 12
ENDMDL
MODEL 3
REMARK VINA RESULT:      -7.7      0.855      2.262
REMARK  Name = 
REMARK  12 active torsions:
REMARK  status: ('A' for Active; 'I' for Inactive)
REMARK    1  A    between atoms: C_2  and  C_15
REMARK    2  A    between atoms: N_3  and  C_4
REMARK    3  A    between atoms: C_7  and  O_8
REMARK    4  A    between atoms: O_8  and  C_9
REMARK    5  A    between atoms: C_18  and  N_19
REMARK    6  A    between atoms: N_19  and  C_20
REMARK    7  A    between atoms: N_19  and  C_23
REMARK    8  A    between atoms: C_20  and  C_21
REMARK    9  A    between atoms: C_21  and  O_22
REMARK   10  A    between atoms: C_23  and  C_24
REMARK   11  A    between atoms: C_24  and  O_25
REMARK   12  A    between atoms: C_26  and  C_27
REMARK                            x       y       z     vdW  Elec       q    Type
REMARK                         _______ _______ _______ _____ _____    ______ ____
ROOT
ATOM      1  C   UNL     1       2.067   8.042  18.857  0.00  0.00    +0.000 A 
ATOM      2  C   UNL     1       3.057   8.219  17.934  0.00  0.00    +0.000 A 
ATOM      3  N   UNL     1       3.918   7.229  17.583  0.00  0.00    +0.000 NA
ATOM      4  C   UNL     1       3.868   5.984  18.155  0.00  0.00    +0.000 A 
ATOM      5  C   UNL     1       2.835   5.708  19.097  0.00  0.00    +0.000 A 
ATOM      6  C   UNL     1       1.953   6.773  19.412  0.00  0.00    +0.000 A 
ENDROOT
BRANCH   5   7
ATOM      7  C   UNL     1       2.543   4.460  19.831  0.00  0.00    +0.000 A 
ATOM      8  C   UNL     1       2.463   4.407  21.219  0.00  0.00    +0.000 A 
ATOM      9  N   UNL     1       2.169   3.303  21.941  0.00  0.00    +0.000 NA
ATOM     10  C   UNL     1       1.946   2.191  21.232  0.00  0.00    +0.000 A 
ATOM     11  N   UNL     1       1.936   2.109  19.894  0.00  0.00    +0.000 NA
ATOM     12  C   UNL     1       2.194   3.260  19.233  0.00  0.00    +0.000 A 
ENDBRANCH   5   7
BRANCH   1  14
ATOM     13  O   UNL     1       0.667   9.844  18.566  0.00  0.00    +0.000 OA
ATOM     14  C   UNL     1       1.202   9.115  19.397  0.00  0.00    +0.000 C 
ATOM     15  N   UNL     1       1.117   9.238  20.772  0.00  0.00    +0.000 N 
ATOM     16  H   UNL     1       1.749   8.690  21.342  0.00  0.00    +0.000 HD
BRANCH  15  17
ATOM     17  C   UNL     1       0.334  10.203  21.455  0.00  0.00    +0.000 A 
ATOM     18  C   UNL     1      -0.534   9.884  22.505  0.00  0.00    +0.000 A 
ATOM     19  C   UNL     1      -1.269  10.882  23.149  0.00  0.00    +0.000 A 
ATOM     20  C   UNL     1      -1.138  12.215  22.775  0.00  0.00    +0.000 A 
ATOM     21  C   UNL     1      -0.297  12.547  21.713  0.00  0.00    +0.000 A 
ATOM     22  C   UNL     1       0.445  11.541  21.068  0.00  0.00    +0.000 A 
BRANCH  20  23
ATOM     23  O   UNL     1      -1.881  13.086  23.518  0.00  0.00    +0.000 OA
BRANCH  23  24
ATOM     24  C   UNL     1      -3.276  13.159  23.252  0.00  0.00    +0.000 C 
ATOM     25  F   UNL     1      -3.679  14.446  23.109  0.00  0.00    +0.000 F 
ATOM     26  F   UNL     1      -3.538  12.509  22.091  0.00  0.00    +0.000 F 
ATOM     27 CL   UNL     1      -4.165  12.411  24.582  0.00  0.00    +0.000 Cl
ENDBRANCH  23  24
ENDBRANCH  20  23
ENDBRANCH  15  17
ENDBRANCH   1  14
BRANCH   4  28
ATOM     28  N   UNL     1       4.941   5.155  17.786  0.00  0.00    +0.000 N 
BRANCH  28  29
ATOM     29  C   UNL     1       4.635   4.208  16.671  0.00  0.00    +0.000 C 
BRANCH  29  30
ATOM     30  C   UNL     1       5.454   4.513  15.405  0.00  0.00    +0.000 C 
BRANCH  30  31
ATOM     31  O   UNL     1       6.141   3.344  14.954  0.00  0.00    +0.000 OA
ATOM     32  H   UNL     1       6.562   3.629  14.118  0.00  0.00    +0.000 HD
ENDBRANCH  30  31
ENDBRANCH  29  30
ENDBRANCH  28  29
BRANCH  28  33
ATOM     33  C   UNL     1       5.978   4.706  18.740  0.00  0.00    +0.000 C 
BRANCH  33  34
ATOM     34  C   UNL     1       7.132   5.677  19.032  0.00  0.00    +0.000 C 
BRANCH  34  35
ATOM     35  O   UNL     1       7.678   5.467  20.326  0.00  0.00    +0.000 OA
ATOM     36  H   UNL     1       7.714   6.349  20.754  0.00  0.00    +0.000 HD
ENDBRANCH  34  35
ENDBRANCH  33  34
ENDBRANCH  28  33
ENDBRANCH   4  28
TORSDOF 12
ENDMDL
MODEL 4
REMARK VINA RESULT:      -7.7      1.409      1.613
REMARK  Name = 
REMARK  12 active torsions:
REMARK  status: ('A' for Active; 'I' for Inactive)
REMARK    1  A    between atoms: C_2  and  C_15
REMARK    2  A    between atoms: N_3  and  C_4
REMARK    3  A    between atoms: C_7  and  O_8
REMARK    4  A    between atoms: O_8  and  C_9
REMARK    5  A    between atoms: C_18  and  N_19
REMARK    6  A    between atoms: N_19  and  C_20
REMARK    7  A    between atoms: N_19  and  C_23
REMARK    8  A    between atoms: C_20  and  C_21
REMARK    9  A    between atoms: C_21  and  O_22
REMARK   10  A    between atoms: C_23  and  C_24
REMARK   11  A    between atoms: C_24  and  O_25
REMARK   12  A    between atoms: C_26  and  C_27
REMARK                            x       y       z     vdW  Elec       q    Type
REMARK                         _______ _______ _______ _____ _____    ______ ____
ROOT
ATOM      1  C   UNL     1       1.932   8.322  18.864  0.00  0.00    +0.000 A 
ATOM      2  C   UNL     1       2.868   8.391  17.872  0.00  0.00    +0.000 A 
ATOM      3  N   UNL     1       3.608   7.320  17.487  0.00  0.00    +0.000 NA
ATOM      4  C   UNL     1       3.485   6.094  18.089  0.00  0.00    +0.000 A 
ATOM      5  C   UNL     1       2.498   5.932  19.105  0.00  0.00    +0.000 A 
ATOM      6  C   UNL     1       1.742   7.079  19.454  0.00  0.00    +0.000 A 
ENDROOT
BRANCH   5   7
ATOM      7  C   UNL     1       2.145   4.728  19.885  0.00  0.00    +0.000 A 
ATOM      8  C   UNL     1       2.602   4.515  21.182  0.00  0.00    +0.000 A 
ATOM      9  N   UNL     1       2.287   3.450  21.954  0.00  0.00    +0.000 NA
ATOM     10  C   UNL     1       1.472   2.550  21.393  0.00  0.00    +0.000 A 
ATOM     11  N   UNL     1       0.916   2.654  20.178  0.00  0.00    +0.000 NA
ATOM     12  C   UNL     1       1.238   3.765  19.477  0.00  0.00    +0.000 A 
ENDBRANCH   5   7
BRANCH   1  14
ATOM     13  O   UNL     1       0.991  10.412  18.667  0.00  0.00    +0.000 OA
ATOM     14  C   UNL     1       1.208   9.479  19.436  0.00  0.00    +0.000 C 
ATOM     15  N   UNL     1       0.892   9.436  20.781  0.00  0.00    +0.000 N 
ATOM     16  H   UNL     1       1.286   8.691  21.342  0.00  0.00    +0.000 HD
BRANCH  15  17
ATOM     17  C   UNL     1       0.198  10.451  21.487  0.00  0.00    +0.000 A 
ATOM     18  C   UNL     1       0.296  11.810  21.171  0.00  0.00    +0.000 A 
ATOM     19  C   UNL     1      -0.425  12.764  21.895  0.00  0.00    +0.000 A 
ATOM     20  C   UNL     1      -1.270  12.380  22.930  0.00  0.00    +0.000 A 
ATOM     21  C   UNL     1      -1.360  11.031  23.275  0.00  0.00    +0.000 A 
ATOM     22  C   UNL     1      -0.636  10.073  22.543  0.00  0.00    +0.000 A 
BRANCH  20  23
ATOM     23  O   UNL     1      -1.945  13.410  23.520  0.00  0.00    +0.000 OA
BRANCH  23  24
ATOM     24  C   UNL     1      -3.366  13.339  23.547  0.00  0.00    +0.000 C 
ATOM     25  F   UNL     1      -3.793  12.503  24.525  0.00  0.00    +0.000 F 
ATOM     26  F   UNL     1      -3.864  14.573  23.805  0.00  0.00    +0.000 F 
ATOM     27 CL   UNL     1      -3.951  12.760  21.984  0.00  0.00    +0.000 Cl
ENDBRANCH  23  24
ENDBRANCH  20  23
ENDBRANCH  15  17
ENDBRANCH   1  14
BRANCH   4  28
ATOM     28  N   UNL     1       4.450   5.164  17.668  0.00  0.00    +0.000 N 
BRANCH  28  29
ATOM     29  C   UNL     1       5.758   5.768  17.272  0.00  0.00    +0.000 C 
BRANCH  29  30
ATOM     30  C   UNL     1       6.840   5.574  18.348  0.00  0.00    +0.000 C 
BRANCH  30  31
ATOM     31  O   UNL     1       7.435   4.279  18.239  0.00  0.00    +0.000 OA
ATOM     32  H   UNL     1       7.782   4.259  17.323  0.00  0.00    +0.000 HD
ENDBRANCH  30  31
ENDBRANCH  29  30
ENDBRANCH  28  29
BRANCH  28  33
ATOM     33  C   UNL     1       4.105   3.891  17.000  0.00  0.00    +0.000 C 
BRANCH  33  34
ATOM     34  C   UNL     1       4.142   2.615  17.855  0.00  0.00    +0.000 C 
BRANCH  34  35
ATOM     35  O   UNL     1       4.950   2.784  19.011  0.00  0.00    +0.000 OA
ATOM     36  H   UNL     1       5.825   3.088  18.690  0.00  0.00    +0.000 HD
ENDBRANCH  34  35
ENDBRANCH  33  34
ENDBRANCH  28  33
ENDBRANCH   4  28
TORSDOF 12
ENDMDL
MODEL 5
REMARK VINA RESULT:      -7.7      1.051      1.126
REMARK  Name = 
REMARK  12 active torsions:
REMARK  status: ('A' for Active; 'I' for Inactive)
REMARK    1  A    between atoms: C_2  and  C_15
REMARK    2  A    between atoms: N_3  and  C_4
REMARK    3  A    between atoms: C_7  and  O_8
REMARK    4  A    between atoms: O_8  and  C_9
REMARK    5  A    between atoms: C_18  and  N_19
REMARK    6  A    between atoms: N_19  and  C_20
REMARK    7  A    between atoms: N_19  and  C_23
REMARK    8  A    between atoms: C_20  and  C_21
REMARK    9  A    between atoms: C_21  and  O_22
REMARK   10  A    between atoms: C_23  and  C_24
REMARK   11  A    between atoms: C_24  and  O_25
REMARK   12  A    between atoms: C_26  and  C_27
REMARK                            x       y       z     vdW  Elec       q    Type
REMARK                         _______ _______ _______ _____ _____    ______ ____
ROOT
ATOM      1  C   UNL     1       1.990   8.153  18.807  0.00  0.00    +0.000 A 
ATOM      2  C   UNL     1       2.955   8.340  17.859  0.00  0.00    +0.000 A 
ATOM      3  N   UNL     1       3.816   7.359  17.485  0.00  0.00    +0.000 NA
ATOM      4  C   UNL     1       3.793   6.113  18.056  0.00  0.00    +0.000 A 
ATOM      5  C   UNL     1       2.786   5.826  19.024  0.00  0.00    +0.000 A 
ATOM      6  C   UNL     1       1.903   6.882  19.363  0.00  0.00    +0.000 A 
ENDROOT
BRANCH   5   7
ATOM      7  C   UNL     1       2.526   4.575  19.763  0.00  0.00    +0.000 A 
ATOM      8  C   UNL     1       2.408   4.533  21.149  0.00  0.00    +0.000 A 
ATOM      9  N   UNL     1       2.139   3.424  21.876  0.00  0.00    +0.000 NA
ATOM     10  C   UNL     1       1.983   2.297  21.173  0.00  0.00    +0.000 A 
ATOM     11  N   UNL     1       2.015   2.201  19.837  0.00  0.00    +0.000 NA
ATOM     12  C   UNL     1       2.245   3.355  19.170  0.00  0.00    +0.000 A 
ENDBRANCH   5   7
BRANCH   1  14
ATOM     13  O   UNL     1       0.497   9.883  18.556  0.00  0.00    +0.000 OA
ATOM     14  C   UNL     1       1.130   9.217  19.370  0.00  0.00    +0.000 C 
ATOM     15  N   UNL     1       1.155   9.403  20.740  0.00  0.00    +0.000 N 
ATOM     16  H   UNL     1       1.855   8.908  21.278  0.00  0.00    +0.000 HD
BRANCH  15  17
ATOM     17  C   UNL     1       0.392  10.369  21.444  0.00  0.00    +0.000 A 
ATOM     18  C   UNL     1       0.445  11.740  21.168  0.00  0.00    +0.000 A 
ATOM     19  C   UNL     1      -0.343  12.642  21.887  0.00  0.00    +0.000 A 
ATOM     20  C   UNL     1      -1.211  12.195  22.876  0.00  0.00    +0.000 A 
ATOM     21  C   UNL     1      -1.258  10.834  23.181  0.00  0.00    +0.000 A 
ATOM     22  C   UNL     1      -0.466   9.928  22.454  0.00  0.00    +0.000 A 
BRANCH  20  23
ATOM     23  O   UNL     1      -1.952  13.179  23.465  0.00  0.00    +0.000 OA
BRANCH  23  24
ATOM     24  C   UNL     1      -3.355  13.183  23.227  0.00  0.00    +0.000 C 
ATOM     25  F   UNL     1      -3.822  14.448  23.088  0.00  0.00    +0.000 F 
ATOM     26  F   UNL     1      -3.608  12.516  22.074  0.00  0.00    +0.000 F 
ATOM     27 CL   UNL     1      -4.179  12.399  24.578  0.00  0.00    +0.000 Cl
ENDBRANCH  23  24
ENDBRANCH  20  23
ENDBRANCH  15  17
ENDBRANCH   1  14
BRANCH   4  28
ATOM     28  N   UNL     1       4.864   5.295  17.659  0.00  0.00    +0.000 N 
BRANCH  28  29
ATOM     29  C   UNL     1       6.212   5.813  18.043  0.00  0.00    +0.000 C 
BRANCH  29  30
ATOM     30  C   UNL     1       7.098   4.724  18.670  0.00  0.00    +0.000 C 
BRANCH  30  31
ATOM     31  O   UNL     1       8.000   4.186  17.701  0.00  0.00    +0.000 OA
ATOM     32  H   UNL     1       7.666   3.278  17.550  0.00  0.00    +0.000 HD
ENDBRANCH  30  31
ENDBRANCH  29  30
ENDBRANCH  28  29
BRANCH  28  33
ATOM     33  C   UNL     1       4.826   4.449  16.446  0.00  0.00    +0.000 C 
BRANCH  33  34
ATOM     34  C   UNL     1       5.572   4.963  15.206  0.00  0.00    +0.000 C 
BRANCH  34  35
ATOM     35  O   UNL     1       5.336   6.347  14.991  0.00  0.00    +0.000 OA
ATOM     36  H   UNL     1       4.729   6.635  15.705  0.00  0.00    +0.000 HD
ENDBRANCH  34  35
ENDBRANCH  33  34
ENDBRANCH  28  33
ENDBRANCH   4  28
TORSDOF 12
ENDMDL
MODEL 6
REMARK VINA RESULT:      -7.6      1.820      2.109
REMARK  Name = 
REMARK  12 active torsions:
REMARK  status: ('A' for Active; 'I' for Inactive)
REMARK    1  A    between atoms: C_2  and  C_15
REMARK    2  A    between atoms: N_3  and  C_4
REMARK    3  A    between atoms: C_7  and  O_8
REMARK    4  A    between atoms: O_8  and  C_9
REMARK    5  A    between atoms: C_18  and  N_19
REMARK    6  A    between atoms: N_19  and  C_20
REMARK    7  A    between atoms: N_19  and  C_23
REMARK    8  A    between atoms: C_20  and  C_21
REMARK    9  A    between atoms: C_21  and  O_22
REMARK   10  A    between atoms: C_23  and  C_24
REMARK   11  A    between atoms: C_24  and  O_25
REMARK   12  A    between atoms: C_26  and  C_27
REMARK                            x       y       z     vdW  Elec       q    Type
REMARK                         _______ _______ _______ _____ _____    ______ ____
ROOT
ATOM      1  C   UNL     1       2.702   8.029  17.891  0.00  0.00    +0.000 A 
ATOM      2  C   UNL     1       3.936   7.985  17.307  0.00  0.00    +0.000 A 
ATOM      3  N   UNL     1       4.630   6.828  17.148  0.00  0.00    +0.000 NA
ATOM      4  C   UNL     1       4.149   5.623  17.589  0.00  0.00    +0.000 A 
ATOM      5  C   UNL     1       2.848   5.581  18.172  0.00  0.00    +0.000 A 
ATOM      6  C   UNL     1       2.161   6.815  18.296  0.00  0.00    +0.000 A 
ENDROOT
BRANCH   5   7
ATOM      7  C   UNL     1       2.093   4.426  18.698  0.00  0.00    +0.000 A 
ATOM      8  C   UNL     1       1.733   3.341  17.905  0.00  0.00    +0.000 A 
ATOM      9  N   UNL     1       1.070   2.245  18.338  0.00  0.00    +0.000 NA
ATOM     10  C   UNL     1       0.750   2.239  19.636  0.00  0.00    +0.000 A 
ATOM     11  N   UNL     1       1.079   3.187  20.525  0.00  0.00    +0.000 NA
ATOM     12  C   UNL     1       1.780   4.234  20.033  0.00  0.00    +0.000 A 
ENDBRANCH   5   7
BRANCH   1  14
ATOM     13  O   UNL     1       2.176  10.236  17.513  0.00  0.00    +0.000 OA
ATOM     14  C   UNL     1       1.966   9.266  18.235  0.00  0.00    +0.000 C 
ATOM     15  N   UNL     1       1.158   9.239  19.358  0.00  0.00    +0.000 N 
ATOM     16  H   UNL     1       1.213   8.434  19.968  0.00  0.00    +0.000 HD
BRANCH  15  17
ATOM     17  C   UNL     1       0.381  10.328  19.826  0.00  0.00    +0.000 A 
ATOM     18  C   UNL     1      -0.903  10.617  19.351  0.00  0.00    +0.000 A 
ATOM     19  C   UNL     1      -1.627  11.697  19.863  0.00  0.00    +0.000 A 
ATOM     20  C   UNL     1      -1.094  12.494  20.870  0.00  0.00    +0.000 A 
ATOM     21  C   UNL     1       0.194  12.236  21.338  0.00  0.00    +0.000 A 
ATOM     22  C   UNL     1       0.919  11.147  20.823  0.00  0.00    +0.000 A 
BRANCH  20  23
ATOM     23  O   UNL     1      -1.927  13.484  21.307  0.00  0.00    +0.000 OA
BRANCH  23  24
ATOM     24  C   UNL     1      -2.236  13.524  22.695  0.00  0.00    +0.000 C 
ATOM     25  F   UNL     1      -1.195  14.015  23.411  0.00  0.00    +0.000 F 
ATOM     26  F   UNL     1      -3.299  14.343  22.888  0.00  0.00    +0.000 F 
ATOM     27 CL   UNL     1      -2.615  11.893  23.256  0.00  0.00    +0.000 Cl
ENDBRANCH  23  24
ENDBRANCH  20  23
ENDBRANCH  15  17
ENDBRANCH   1  14
BRANCH   4  28
ATOM     28  N   UNL     1       5.081   4.576  17.486  0.00  0.00    +0.000 N 
BRANCH  28  29
ATOM     29  C   UNL     1       6.208   4.655  18.464  0.00  0.00    +0.000 C 
BRANCH  29  30
ATOM     30  C   UNL     1       7.570   4.830  17.771  0.00  0.00    +0.000 C 
BRANCH  30  31
ATOM     31  O   UNL     1       7.726   6.168  17.294  0.00  0.00    +0.000 OA
ATOM     32  H   UNL     1       8.661   6.379  17.494  0.00  0.00    +0.000 HD
ENDBRANCH  30  31
ENDBRANCH  29  30
ENDBRANCH  28  29
BRANCH  28  33
ATOM     33  C   UNL     1       5.386   3.891  16.212  0.00  0.00    +0.000 C 
BRANCH  33  34
ATOM     34  C   UNL     1       5.242   4.711  14.921  0.00  0.00    +0.000 C 
BRANCH  34  35
ATOM     35  O   UNL     1       6.267   5.687  14.804  0.00  0.00    +0.000 OA
ATOM     36  H   UNL     1       7.116   5.198  14.849  0.00  0.00    +0.000 HD
ENDBRANCH  34  35
ENDBRANCH  33  34
ENDBRANCH  28  33
ENDBRANCH   4  28
TORSDOF 12
ENDMDL
MODEL 7
REMARK VINA RESULT:      -7.6      1.270      2.198
REMARK  Name = 
REMARK  12 active torsions:
REMARK  status: ('A' for Active; 'I' for Inactive)
REMARK    1  A    between atoms: C_2  and  C_15
REMARK    2  A    between atoms: N_3  and  C_4
REMARK    3  A    between atoms: C_7  and  O_8
REMARK    4  A    between atoms: O_8  and  C_9
REMARK    5  A    between atoms: C_18  and  N_19
REMARK    6  A    between atoms: N_19  and  C_20
REMARK    7  A    between atoms: N_19  and  C_23
REMARK    8  A    between atoms: C_20  and  C_21
REMARK    9  A    between atoms: C_21  and  O_22
REMARK   10  A    between atoms: C_23  and  C_24
REMARK   11  A    between atoms: C_24  and  O_25
REMARK   12  A    between atoms: C_26  and  C_27
REMARK                            x       y       z     vdW  Elec       q    Type
REMARK                         _______ _______ _______ _____ _____    ______ ____
ROOT
ATOM      1  C   UNL     1       2.268   8.140  18.329  0.00  0.00    +0.000 A 
ATOM      2  C   UNL     1       3.364   8.201  17.516  0.00  0.00    +0.000 A 
ATOM      3  N   UNL     1       4.217   7.156  17.356  0.00  0.00    +0.000 NA
ATOM      4  C   UNL     1       4.050   5.971  18.024  0.00  0.00    +0.000 A 
ATOM      5  C   UNL     1       2.905   5.815  18.859  0.00  0.00    +0.000 A 
ATOM      6  C   UNL     1       2.039   6.932  18.975  0.00  0.00    +0.000 A 
ENDROOT
BRANCH   5   7
ATOM      7  C   UNL     1       2.480   4.649  19.659  0.00  0.00    +0.000 A 
ATOM      8  C   UNL     1       2.507   4.644  21.051  0.00  0.00    +0.000 A 
ATOM      9  N   UNL     1       2.101   3.619  21.834  0.00  0.00    +0.000 NA
ATOM     10  C   UNL     1       1.646   2.541  21.186  0.00  0.00    +0.000 A 
ATOM     11  N   UNL     1       1.513   2.429  19.857  0.00  0.00    +0.000 NA
ATOM     12  C   UNL     1       1.896   3.507  19.136  0.00  0.00    +0.000 A 
ENDBRANCH   5   7
BRANCH   1  14
ATOM     13  O   UNL     1       1.236  10.122  17.784  0.00  0.00    +0.000 OA
ATOM     14  C   UNL     1       1.393   9.285  18.667  0.00  0.00    +0.000 C 
ATOM     15  N   UNL     1       0.880   9.341  19.951  0.00  0.00    +0.000 N 
ATOM     16  H   UNL     1       1.232   8.684  20.636  0.00  0.00    +0.000 HD
BRANCH  15  17
ATOM     17  C   UNL     1       0.024  10.359  20.440  0.00  0.00    +0.000 A 
ATOM     18  C   UNL     1      -1.025  10.907  19.693  0.00  0.00    +0.000 A 
ATOM     19  C   UNL     1      -1.844  11.899  20.236  0.00  0.00    +0.000 A 
ATOM     20  C   UNL     1      -1.649  12.347  21.538  0.00  0.00    +0.000 A 
ATOM     21  C   UNL     1      -0.593  11.831  22.288  0.00  0.00    +0.000 A 
ATOM     22  C   UNL     1       0.229  10.830  21.740  0.00  0.00    +0.000 A 
BRANCH  20  23
ATOM     23  O   UNL     1      -2.550  13.285  21.954  0.00  0.00    +0.000 OA
BRANCH  23  24
ATOM     24  C   UNL     1      -3.617  12.852  22.789  0.00  0.00    +0.000 C 
ATOM     25  F   UNL     1      -3.299  11.698  23.426  0.00  0.00    +0.000 F 
ATOM     26  F   UNL     1      -3.851  13.797  23.732  0.00  0.00    +0.000 F 
ATOM     27 CL   UNL     1      -5.063  12.600  21.807  0.00  0.00    +0.000 Cl
ENDBRANCH  23  24
ENDBRANCH  20  23
ENDBRANCH  15  17
ENDBRANCH   1  14
BRANCH   4  28
ATOM     28  N   UNL     1       5.123   5.079  17.858  0.00  0.00    +0.000 N 
BRANCH  28  29
ATOM     29  C   UNL     1       4.894   4.024  16.824  0.00  0.00    +0.000 C 
BRANCH  29  30
ATOM     30  C   UNL     1       5.891   4.124  15.657  0.00  0.00    +0.000 C 
BRANCH  30  31
ATOM     31  O   UNL     1       6.165   5.491  15.343  0.00  0.00    +0.000 OA
ATOM     32  H   UNL     1       6.865   5.740  15.979  0.00  0.00    +0.000 HD
ENDBRANCH  30  31
ENDBRANCH  29  30
ENDBRANCH  28  29
BRANCH  28  33
ATOM     33  C   UNL     1       6.042   4.710  18.956  0.00  0.00    +0.000 C 
BRANCH  33  34
ATOM     34  C   UNL     1       7.314   5.555  19.122  0.00  0.00    +0.000 C 
BRANCH  34  35
ATOM     35  O   UNL     1       7.866   5.418  20.423  0.00  0.00    +0.000 OA
ATOM     36  H   UNL     1       7.418   6.086  20.982  0.00  0.00    +0.000 HD
ENDBRANCH  34  35
ENDBRANCH  33  34
ENDBRANCH  28  33
ENDBRANCH   4  28
TORSDOF 12
ENDMDL
MODEL 8
REMARK VINA RESULT:      -7.6      1.783      2.761
REMARK  Name = 
REMARK  12 active torsions:
REMARK  status: ('A' for Active; 'I' for Inactive)
REMARK    1  A    between atoms: C_2  and  C_15
REMARK    2  A    between atoms: N_3  and  C_4
REMARK    3  A    between atoms: C_7  and  O_8
REMARK    4  A    between atoms: O_8  and  C_9
REMARK    5  A    between atoms: C_18  and  N_19
REMARK    6  A    between atoms: N_19  and  C_20
REMARK    7  A    between atoms: N_19  and  C_23
REMARK    8  A    between atoms: C_20  and  C_21
REMARK    9  A    between atoms: C_21  and  O_22
REMARK   10  A    between atoms: C_23  and  C_24
REMARK   11  A    between atoms: C_24  and  O_25
REMARK   12  A    between atoms: C_26  and  C_27
REMARK                            x       y       z     vdW  Elec       q    Type
REMARK                         _______ _______ _______ _____ _____    ______ ____
ROOT
ATOM      1  C   UNL     1       2.286   8.398  18.182  0.00  0.00    +0.000 A 
ATOM      2  C   UNL     1       3.431   8.385  17.438  0.00  0.00    +0.000 A 
ATOM      3  N   UNL     1       4.236   7.294  17.351  0.00  0.00    +0.000 NA
ATOM      4  C   UNL     1       3.967   6.134  18.030  0.00  0.00    +0.000 A 
ATOM      5  C   UNL     1       2.767   6.056  18.795  0.00  0.00    +0.000 A 
ATOM      6  C   UNL     1       1.955   7.217  18.836  0.00  0.00    +0.000 A 
ENDROOT
BRANCH   5   7
ATOM      7  C   UNL     1       2.233   4.931  19.590  0.00  0.00    +0.000 A 
ATOM      8  C   UNL     1       1.471   3.911  19.028  0.00  0.00    +0.000 A 
ATOM      9  N   UNL     1       0.983   2.843  19.699  0.00  0.00    +0.000 NA
ATOM     10  C   UNL     1       1.274   2.798  21.003  0.00  0.00    +0.000 A 
ATOM     11  N   UNL     1       2.040   3.679  21.662  0.00  0.00    +0.000 NA
ATOM     12  C   UNL     1       2.531   4.698  20.922  0.00  0.00    +0.000 A 
ENDBRANCH   5   7
BRANCH   1  14
ATOM     13  O   UNL     1       1.905  10.662  18.044  0.00  0.00    +0.000 OA
ATOM     14  C   UNL     1       1.453   9.593  18.444  0.00  0.00    +0.000 C 
ATOM     15  N   UNL     1       0.281   9.413  19.156  0.00  0.00    +0.000 N 
ATOM     16  H   UNL     1       0.115   8.511  19.584  0.00  0.00    +0.000 HD
BRANCH  15  17
ATOM     17  C   UNL     1      -0.634  10.443  19.489  0.00  0.00    +0.000 A 
ATOM     18  C   UNL     1      -1.712  10.806  18.674  0.00  0.00    +0.000 A 
ATOM     19  C   UNL     1      -2.590  11.821  19.064  0.00  0.00    +0.000 A 
ATOM     20  C   UNL     1      -2.423  12.477  20.279  0.00  0.00    +0.000 A 
ATOM     21  C   UNL     1      -1.339  12.145  21.092  0.00  0.00    +0.000 A 
ATOM     22  C   UNL     1      -0.459  11.121  20.699  0.00  0.00    +0.000 A 
BRANCH  20  23
ATOM     23  O   UNL     1      -3.378  13.413  20.552  0.00  0.00    +0.000 OA
BRANCH  23  24
ATOM     24  C   UNL     1      -4.404  13.062  21.472  0.00  0.00    +0.000 C 
ATOM     25  F   UNL     1      -3.926  12.255  22.451  0.00  0.00    +0.000 F 
ATOM     26  F   UNL     1      -4.879  14.190  22.056  0.00  0.00    +0.000 F 
ATOM     27 CL   UNL     1      -5.702  12.230  20.610  0.00  0.00    +0.000 Cl
ENDBRANCH  23  24
ENDBRANCH  20  23
ENDBRANCH  15  17
ENDBRANCH   1  14
BRANCH   4  28
ATOM     28  N   UNL     1       5.000   5.185  17.947  0.00  0.00    +0.000 N 
BRANCH  28  29
ATOM     29  C   UNL     1       4.723   4.051  17.014  0.00  0.00    +0.000 C 
BRANCH  29  30
ATOM     30  C   UNL     1       5.244   4.325  15.593  0.00  0.00    +0.000 C 
BRANCH  30  31
ATOM     31  O   UNL     1       6.170   3.314  15.191  0.00  0.00    +0.000 OA
ATOM     32  H   UNL     1       5.917   3.120  14.266  0.00  0.00    +0.000 HD
ENDBRANCH  30  31
ENDBRANCH  29  30
ENDBRANCH  28  29
BRANCH  28  33
ATOM     33  C   UNL     1       5.904   4.878  19.076  0.00  0.00    +0.000 C 
BRANCH  33  34
ATOM     34  C   UNL     1       7.221   5.665  19.156  0.00  0.00    +0.000 C 
BRANCH  34  35
ATOM     35  O   UNL     1       7.914   5.403  20.368  0.00  0.00    +0.000 OA
ATOM     36  H   UNL     1       8.479   6.187  20.534  0.00  0.00    +0.000 HD
ENDBRANCH  34  35
ENDBRANCH  33  34
ENDBRANCH  28  33
ENDBRANCH   4  28
TORSDOF 12
ENDMDL
MODEL 9
REMARK VINA RESULT:      -7.6      1.421      1.853
REMARK  Name = 
REMARK  12 active torsions:
REMARK  status: ('A' for Active; 'I' for Inactive)
REMARK    1  A    between atoms: C_2  and  C_15
REMARK    2  A    between atoms: N_3  and  C_4
REMARK    3  A    between atoms: C_7  and  O_8
REMARK    4  A    between atoms: O_8  and  C_9
REMARK    5  A    between atoms: C_18  and  N_19
REMARK    6  A    between atoms: N_19  and  C_20
REMARK    7  A    between atoms: N_19  and  C_23
REMARK    8  A    between atoms: C_20  and  C_21
REMARK    9  A    between atoms: C_21  and  O_22
REMARK   10  A    between atoms: C_23  and  C_24
REMARK   11  A    between atoms: C_24  and  O_25
REMARK   12  A    between atoms: C_26  and  C_27
REMARK                            x       y       z     vdW  Elec       q    Type
REMARK                         _______ _______ _______ _____ _____    ______ ____
ROOT
ATOM      1  C   UNL     1       2.004   8.194  18.805  0.00  0.00    +0.000 A 
ATOM      2  C   UNL     1       2.961   8.214  17.832  0.00  0.00    +0.000 A 
ATOM      3  N   UNL     1       3.693   7.119  17.501  0.00  0.00    +0.000 NA
ATOM      4  C   UNL     1       3.538   5.918  18.143  0.00  0.00    +0.000 A 
ATOM      5  C   UNL     1       2.528   5.806  19.143  0.00  0.00    +0.000 A 
ATOM      6  C   UNL     1       1.782   6.976  19.435  0.00  0.00    +0.000 A 
ENDROOT
BRANCH   5   7
ATOM      7  C   UNL     1       2.139   4.636  19.957  0.00  0.00    +0.000 A 
ATOM      8  C   UNL     1       2.590   4.447  21.260  0.00  0.00    +0.000 A 
ATOM      9  N   UNL     1       2.244   3.415  22.062  0.00  0.00    +0.000 NA
ATOM     10  C   UNL     1       1.403   2.524  21.526  0.00  0.00    +0.000 A 
ATOM     11  N   UNL     1       0.849   2.608  20.309  0.00  0.00    +0.000 NA
ATOM     12  C   UNL     1       1.205   3.689  19.576  0.00  0.00    +0.000 A 
ENDBRANCH   5   7
BRANCH   1  14
ATOM     13  O   UNL     1       1.517  10.441  18.744  0.00  0.00    +0.000 OA
ATOM     14  C   UNL     1       1.286   9.382  19.320  0.00  0.00    +0.000 C 
ATOM     15  N   UNL     1       0.471   9.209  20.424  0.00  0.00    +0.000 N 
ATOM     16  H   UNL     1       0.509   8.324  20.913  0.00  0.00    +0.000 HD
BRANCH  15  17
ATOM     17  C   UNL     1      -0.291  10.233  21.041  0.00  0.00    +0.000 A 
ATOM     18  C   UNL     1      -0.439  10.352  22.427  0.00  0.00    +0.000 A 
ATOM     19  C   UNL     1      -1.192  11.393  22.976  0.00  0.00    +0.000 A 
ATOM     20  C   UNL     1      -1.790  12.345  22.158  0.00  0.00    +0.000 A 
ATOM     21  C   UNL     1      -1.674  12.227  20.773  0.00  0.00    +0.000 A 
ATOM     22  C   UNL     1      -0.913  11.180  20.223  0.00  0.00    +0.000 A 
BRANCH  20  23
ATOM     23  O   UNL     1      -2.456  13.330  22.830  0.00  0.00    +0.000 OA
BRANCH  23  24
ATOM     24  C   UNL     1      -3.811  13.085  23.188  0.00  0.00    +0.000 C 
ATOM     25  F   UNL     1      -4.423  12.296  22.271  0.00  0.00    +0.000 F 
ATOM     26  F   UNL     1      -3.843  12.440  24.380  0.00  0.00    +0.000 F 
ATOM     27 CL   UNL     1      -4.671  14.623  23.305  0.00  0.00    +0.000 Cl
ENDBRANCH  23  24
ENDBRANCH  20  23
ENDBRANCH  15  17
ENDBRANCH   1  14
BRANCH   4  28
ATOM     28  N   UNL     1       4.497   4.958  17.776  0.00  0.00    +0.000 N 
BRANCH  28  29
ATOM     29  C   UNL     1       5.825   5.528  17.397  0.00  0.00    +0.000 C 
BRANCH  29  30
ATOM     30  C   UNL     1       6.461   4.784  16.210  0.00  0.00    +0.000 C 
BRANCH  30  31
ATOM     31  O   UNL     1       7.878   4.692  16.373  0.00  0.00    +0.000 OA
ATOM     32  H   UNL     1       8.230   4.933  15.491  0.00  0.00    +0.000 HD
ENDBRANCH  30  31
ENDBRANCH  29  30
ENDBRANCH  28  29
BRANCH  28  33
ATOM     33  C   UNL     1       4.146   3.671  17.138  0.00  0.00    +0.000 C 
BRANCH  33  34
ATOM     34  C   UNL     1       4.144   2.421  18.031  0.00  0.00    +0.000 C 
BRANCH  34  35
ATOM     35  O   UNL     1       4.951   2.602  19.185  0.00  0.00    +0.000 OA
ATOM     36  H   UNL     1       5.617   1.882  19.168  0.00  0.00    +0.000 HD
ENDBRANCH  34  35
ENDBRANCH  33  34
ENDBRANCH  28  33
ENDBRANCH   4  28
TORSDOF 12
ENDMDL
