MODEL 1
REMARK VINA RESULT:      -7.3      0.000      0.000
REMARK  Name = 
REMARK  3 active torsions:
REMARK  status: ('A' for Active; 'I' for Inactive)
REMARK    1  A    between atoms: C_1  and  C_2
REMARK    2  A    between atoms: C_6  and  C_7
REMARK    3  A    between atoms: C_12  and  C_13
REMARK                            x       y       z     vdW  Elec       q    Type
REMARK                         _______ _______ _______ _____ _____    ______ ____
ROOT
ATOM      1  C   UNL     1       5.792   4.031  16.447  0.00  0.00    +0.000 C 
ATOM      2  C   UNL     1       4.861   4.911  17.160  0.00  0.00    +0.000 C 
ATOM      3  C   UNL     1       4.194   4.523  18.230  0.00  0.00    +0.000 C 
ATOM      4  O   UNL     1       4.478   3.252  18.544  0.00  0.00    +0.000 OA
ATOM      5  C   UNL     1       3.969   2.475  19.569  0.00  0.00    +0.000 C 
ATOM      6  C   UNL     1       3.084   3.169  20.330  0.00  0.00    +0.000 C 
ATOM      7  C   UNL     1       2.662   4.676  20.082  0.00  0.00    +0.000 A 
ATOM      8  C   UNL     1       1.737   5.499  20.808  0.00  0.00    +0.000 A 
ATOM      9  C   UNL     1       1.485   6.889  20.403  0.00  0.00    +0.000 A 
ATOM     10  C   UNL     1       2.119   7.470  19.292  0.00  0.00    +0.000 A 
ATOM     11  C   UNL     1       1.871   8.905  18.867  0.00  0.00    +0.000 C 
ATOM     12  C   UNL     1       3.013   6.641  18.597  0.00  0.00    +0.000 A 
ATOM     13  C   UNL     1       3.254   5.300  19.000  0.00  0.00    +0.000 A 
ATOM     14  C   UNL     1       3.741   7.172  17.403  0.00  0.00    +0.000 C 
ATOM     15  O   UNL     1       3.603   8.306  16.993  0.00  0.00    +0.000 OA
ATOM     16  C   UNL     1       4.668   6.290  16.693  0.00  0.00    +0.000 C 
ATOM     17  O   UNL     1       5.270   6.689  15.707  0.00  0.00    +0.000 OA
ENDROOT
BRANCH   6  18
ATOM     18  C   UNL     1       2.397   2.626  21.473  0.00  0.00    +0.000 C 
ATOM     19  N   UNL     1       1.631   2.360  22.302  0.00  0.00    +0.000 NA
ENDBRANCH   6  18
TORSDOF 1
ENDMDL
MODEL 2
REMARK VINA RESULT:      -6.9      2.070      4.300
REMARK  Name = 
REMARK  3 active torsions:
REMARK  status: ('A' for Active; 'I' for Inactive)
REMARK    1  A    between atoms: C_1  and  C_2
REMARK    2  A    between atoms: C_6  and  C_7
REMARK    3  A    between atoms: C_12  and  C_13
REMARK                            x       y       z     vdW  Elec       q    Type
REMARK                         _______ _______ _______ _____ _____    ______ ____
ROOT
ATOM      1  C   UNL     1       5.205   6.266  15.766  0.00  0.00    +0.000 C 
ATOM      2  C   UNL     1       4.567   5.687  16.952  0.00  0.00    +0.000 C 
ATOM      3  C   UNL     1       3.718   6.361  17.704  0.00  0.00    +0.000 C 
ATOM      4  O   UNL     1       3.546   7.607  17.243  0.00  0.00    +0.000 OA
ATOM      5  C   UNL     1       2.769   8.627  17.761  0.00  0.00    +0.000 C 
ATOM      6  C   UNL     1       2.102   8.229  18.875  0.00  0.00    +0.000 C 
ATOM      7  C   UNL     1       2.201   6.788  19.526  0.00  0.00    +0.000 A 
ATOM      8  C   UNL     1       1.557   6.265  20.697  0.00  0.00    +0.000 A 
ATOM      9  C   UNL     1       1.793   4.883  21.134  0.00  0.00    +0.000 A 
ATOM     10  C   UNL     1       2.659   4.018  20.444  0.00  0.00    +0.000 A 
ATOM     11  C   UNL     1       2.906   2.587  20.882  0.00  0.00    +0.000 C 
ATOM     12  C   UNL     1       3.280   4.557  19.306  0.00  0.00    +0.000 A 
ATOM     13  C   UNL     1       3.042   5.894  18.888  0.00  0.00    +0.000 A 
ATOM     14  C   UNL     1       4.215   3.712  18.502  0.00  0.00    +0.000 C 
ATOM     15  O   UNL     1       4.472   2.558  18.780  0.00  0.00    +0.000 OA
ATOM     16  C   UNL     1       4.852   4.294  17.319  0.00  0.00    +0.000 C 
ATOM     17  O   UNL     1       5.630   3.634  16.647  0.00  0.00    +0.000 OA
ENDROOT
BRANCH   6  18
ATOM     18  C   UNL     1       1.209   9.071  19.629  0.00  0.00    +0.000 C 
ATOM     19  N   UNL     1       0.715   9.930  20.233  0.00  0.00    +0.000 NA
ENDBRANCH   6  18
TORSDOF 1
ENDMDL
MODEL 3
REMARK VINA RESULT:      -6.9      2.706      5.109
REMARK  Name = 
REMARK  3 active torsions:
REMARK  status: ('A' for Active; 'I' for Inactive)
REMARK    1  A    between atoms: C_1  and  C_2
REMARK    2  A    between atoms: C_6  and  C_7
REMARK    3  A    between atoms: C_12  and  C_13
REMARK                            x       y       z     vdW  Elec       q    Type
REMARK                         _______ _______ _______ _____ _____    ______ ____
ROOT
ATOM      1  C   UNL     1       2.784   8.908  18.100  0.00  0.00    +0.000 C 
ATOM      2  C   UNL     1       2.829   7.491  18.471  0.00  0.00    +0.000 C 
ATOM      3  C   UNL     1       3.527   6.600  17.794  0.00  0.00    +0.000 C 
ATOM      4  O   UNL     1       4.151   7.163  16.751  0.00  0.00    +0.000 OA
ATOM      5  C   UNL     1       4.948   6.569  15.790  0.00  0.00    +0.000 C 
ATOM      6  C   UNL     1       5.088   5.237  16.012  0.00  0.00    +0.000 C 
ATOM      7  C   UNL     1       4.418   4.440  17.206  0.00  0.00    +0.000 A 
ATOM      8  C   UNL     1       4.486   3.044  17.529  0.00  0.00    +0.000 A 
ATOM      9  C   UNL     1       3.776   2.503  18.695  0.00  0.00    +0.000 A 
ATOM     10  C   UNL     1       2.995   3.313  19.536  0.00  0.00    +0.000 A 
ATOM     11  C   UNL     1       2.262   2.768  20.747  0.00  0.00    +0.000 C 
ATOM     12  C   UNL     1       2.940   4.673  19.194  0.00  0.00    +0.000 A 
ATOM     13  C   UNL     1       3.634   5.187  18.066  0.00  0.00    +0.000 A 
ATOM     14  C   UNL     1       2.138   5.616  20.032  0.00  0.00    +0.000 C 
ATOM     15  O   UNL     1       1.519   5.267  21.017  0.00  0.00    +0.000 OA
ATOM     16  C   UNL     1       2.094   7.031  19.657  0.00  0.00    +0.000 C 
ATOM     17  O   UNL     1       1.438   7.826  20.314  0.00  0.00    +0.000 OA
ENDROOT
BRANCH   6  18
ATOM     18  C   UNL     1       5.868   4.355  15.182  0.00  0.00    +0.000 C 
ATOM     19  N   UNL     1       6.337   3.761  14.302  0.00  0.00    +0.000 NA
ENDBRANCH   6  18
TORSDOF 1
ENDMDL
MODEL 4
REMARK VINA RESULT:      -6.7      2.936      4.617
REMARK  Name = 
REMARK  3 active torsions:
REMARK  status: ('A' for Active; 'I' for Inactive)
REMARK    1  A    between atoms: C_1  and  C_2
REMARK    2  A    between atoms: C_6  and  C_7
REMARK    3  A    between atoms: C_12  and  C_13
REMARK                            x       y       z     vdW  Elec       q    Type
REMARK                         _______ _______ _______ _____ _____    ______ ____
ROOT
ATOM      1  C   UNL     1       2.898   1.398  18.950  0.00  0.00    +0.000 C 
ATOM      2  C   UNL     1       2.837   2.863  18.928  0.00  0.00    +0.000 C 
ATOM      3  C   UNL     1       3.535   3.591  18.079  0.00  0.00    +0.000 C 
ATOM      4  O   UNL     1       4.288   2.820  17.283  0.00  0.00    +0.000 OA
ATOM      5  C   UNL     1       5.175   3.198  16.292  0.00  0.00    +0.000 C 
ATOM      6  C   UNL     1       5.219   4.548  16.149  0.00  0.00    +0.000 C 
ATOM      7  C   UNL     1       4.381   5.579  17.011  0.00  0.00    +0.000 A 
ATOM      8  C   UNL     1       4.356   7.012  16.957  0.00  0.00    +0.000 A 
ATOM      9  C   UNL     1       3.497   7.788  17.862  0.00  0.00    +0.000 A 
ATOM     10  C   UNL     1       2.676   7.173  18.822  0.00  0.00    +0.000 A 
ATOM     11  C   UNL     1       1.780   7.962  19.758  0.00  0.00    +0.000 C 
ATOM     12  C   UNL     1       2.724   5.771  18.858  0.00  0.00    +0.000 A 
ATOM     13  C   UNL     1       3.554   5.030  17.976  0.00  0.00    +0.000 A 
ATOM     14  C   UNL     1       1.881   5.025  19.843  0.00  0.00    +0.000 C 
ATOM     15  O   UNL     1       1.137   5.575  20.630  0.00  0.00    +0.000 OA
ATOM     16  C   UNL     1       1.948   3.563  19.864  0.00  0.00    +0.000 C 
ATOM     17  O   UNL     1       1.280   2.924  20.664  0.00  0.00    +0.000 OA
ENDROOT
BRANCH   6  18
ATOM     18  C   UNL     1       6.045   5.235  15.191  0.00  0.00    +0.000 C 
ATOM     19  N   UNL     1       6.885   5.562  14.460  0.00  0.00    +0.000 NA
ENDBRANCH   6  18
TORSDOF 1
ENDMDL
MODEL 5
REMARK VINA RESULT:      -6.7      2.582      4.851
REMARK  Name = 
REMARK  3 active torsions:
REMARK  status: ('A' for Active; 'I' for Inactive)
REMARK    1  A    between atoms: C_1  and  C_2
REMARK    2  A    between atoms: C_6  and  C_7
REMARK    3  A    between atoms: C_12  and  C_13
REMARK                            x       y       z     vdW  Elec       q    Type
REMARK                         _______ _______ _______ _____ _____    ______ ____
ROOT
ATOM      1  C   UNL     1       1.692   3.115  21.258  0.00  0.00    +0.000 C 
ATOM      2  C   UNL     1       2.355   3.830  20.163  0.00  0.00    +0.000 C 
ATOM      3  C   UNL     1       2.227   5.130  19.982  0.00  0.00    +0.000 C 
ATOM      4  O   UNL     1       1.422   5.671  20.905  0.00  0.00    +0.000 OA
ATOM      5  C   UNL     1       1.015   6.986  21.041  0.00  0.00    +0.000 C 
ATOM      6  C   UNL     1       1.563   7.780  20.086  0.00  0.00    +0.000 C 
ATOM      7  C   UNL     1       2.537   7.280  18.941  0.00  0.00    +0.000 A 
ATOM      8  C   UNL     1       3.162   8.019  17.881  0.00  0.00    +0.000 A 
ATOM      9  C   UNL     1       4.038   7.352  16.909  0.00  0.00    +0.000 A 
ATOM     10  C   UNL     1       4.297   5.972  16.961  0.00  0.00    +0.000 A 
ATOM     11  C   UNL     1       5.204   5.272  15.967  0.00  0.00    +0.000 C 
ATOM     12  C   UNL     1       3.668   5.272  18.002  0.00  0.00    +0.000 A 
ATOM     13  C   UNL     1       2.826   5.927  18.940  0.00  0.00    +0.000 A 
ATOM     14  C   UNL     1       3.886   3.799  18.143  0.00  0.00    +0.000 C 
ATOM     15  O   UNL     1       4.595   3.159  17.393  0.00  0.00    +0.000 OA
ATOM     16  C   UNL     1       3.220   3.089  19.236  0.00  0.00    +0.000 C 
ATOM     17  O   UNL     1       3.369   1.883  19.372  0.00  0.00    +0.000 OA
ENDROOT
BRANCH   6  18
ATOM     18  C   UNL     1       1.330   9.197  19.977  0.00  0.00    +0.000 C 
ATOM     19  N   UNL     1       0.932  10.253  19.710  0.00  0.00    +0.000 NA
ENDBRANCH   6  18
TORSDOF 1
ENDMDL
MODEL 6
REMARK VINA RESULT:      -6.4      2.723      5.317
REMARK  Name = 
REMARK  3 active torsions:
REMARK  status: ('A' for Active; 'I' for Inactive)
REMARK    1  A    between atoms: C_1  and  C_2
REMARK    2  A    between atoms: C_6  and  C_7
REMARK    3  A    between atoms: C_12  and  C_13
REMARK                            x       y       z     vdW  Elec       q    Type
REMARK                         _______ _______ _______ _____ _____    ______ ____
ROOT
ATOM      1  C   UNL     1       1.493   3.805  20.956  0.00  0.00    +0.000 C 
ATOM      2  C   UNL     1       2.362   4.081  19.808  0.00  0.00    +0.000 C 
ATOM      3  C   UNL     1       2.513   5.291  19.306  0.00  0.00    +0.000 C 
ATOM      4  O   UNL     1       1.771   6.188  19.969  0.00  0.00    +0.000 OA
ATOM      5  C   UNL     1       1.630   7.544  19.736  0.00  0.00    +0.000 C 
ATOM      6  C   UNL     1       2.394   7.952  18.690  0.00  0.00    +0.000 C 
ATOM      7  C   UNL     1       3.324   7.007  17.822  0.00  0.00    +0.000 A 
ATOM      8  C   UNL     1       4.158   7.323  16.698  0.00  0.00    +0.000 A 
ATOM      9  C   UNL     1       4.947   6.282  16.027  0.00  0.00    +0.000 A 
ATOM     10  C   UNL     1       4.916   4.939  16.439  0.00  0.00    +0.000 A 
ATOM     11  C   UNL     1       5.731   3.856  15.758  0.00  0.00    +0.000 C 
ATOM     12  C   UNL     1       4.088   4.657  17.536  0.00  0.00    +0.000 A 
ATOM     13  C   UNL     1       3.332   5.672  18.182  0.00  0.00    +0.000 A 
ATOM     14  C   UNL     1       3.992   3.256  18.051  0.00  0.00    +0.000 C 
ATOM     15  O   UNL     1       4.608   2.328  17.567  0.00  0.00    +0.000 OA
ATOM     16  C   UNL     1       3.122   2.984  19.196  0.00  0.00    +0.000 C 
ATOM     17  O   UNL     1       3.013   1.848  19.635  0.00  0.00    +0.000 OA
ENDROOT
BRANCH   6  18
ATOM     18  C   UNL     1       2.461   9.311  18.217  0.00  0.00    +0.000 C 
ATOM     19  N   UNL     1       2.238  10.357  17.768  0.00  0.00    +0.000 NA
ENDBRANCH   6  18
TORSDOF 1
ENDMDL
MODEL 7
REMARK VINA RESULT:      -6.0      1.663      3.752
REMARK  Name = 
REMARK  3 active torsions:
REMARK  status: ('A' for Active; 'I' for Inactive)
REMARK    1  A    between atoms: C_1  and  C_2
REMARK    2  A    between atoms: C_6  and  C_7
REMARK    3  A    between atoms: C_12  and  C_13
REMARK                            x       y       z     vdW  Elec       q    Type
REMARK                         _______ _______ _______ _____ _____    ______ ____
ROOT
ATOM      1  C   UNL     1       0.891   7.393  21.141  0.00  0.00    +0.000 C 
ATOM      2  C   UNL     1       1.824   7.071  20.057  0.00  0.00    +0.000 C 
ATOM      3  C   UNL     1       2.475   5.926  19.995  0.00  0.00    +0.000 C 
ATOM      4  O   UNL     1       2.176   5.141  21.038  0.00  0.00    +0.000 OA
ATOM      5  C   UNL     1       2.666   3.887  21.352  0.00  0.00    +0.000 C 
ATOM      6  C   UNL     1       3.550   3.449  20.419  0.00  0.00    +0.000 C 
ATOM      7  C   UNL     1       3.990   4.263  19.133  0.00  0.00    +0.000 A 
ATOM      8  C   UNL     1       4.916   3.908  18.096  0.00  0.00    +0.000 A 
ATOM      9  C   UNL     1       5.186   4.824  16.979  0.00  0.00    +0.000 A 
ATOM     10  C   UNL     1       4.569   6.082  16.879  0.00  0.00    +0.000 A 
ATOM     11  C   UNL     1       4.835   7.034  15.728  0.00  0.00    +0.000 C 
ATOM     12  C   UNL     1       3.674   6.407  17.910  0.00  0.00    +0.000 A 
ATOM     13  C   UNL     1       3.415   5.512  18.983  0.00  0.00    +0.000 A 
ATOM     14  C   UNL     1       2.964   7.723  17.888  0.00  0.00    +0.000 C 
ATOM     15  O   UNL     1       3.117   8.545  17.008  0.00  0.00    +0.000 OA
ATOM     16  C   UNL     1       2.035   8.041  18.974  0.00  0.00    +0.000 C 
ATOM     17  O   UNL     1       1.447   9.112  18.992  0.00  0.00    +0.000 OA
ENDROOT
BRANCH   6  18
ATOM     18  C   UNL     1       4.220   2.175  20.472  0.00  0.00    +0.000 C 
ATOM     19  N   UNL     1       4.996   1.313  20.502  0.00  0.00    +0.000 NA
ENDBRANCH   6  18
TORSDOF 1
ENDMDL
MODEL 8
REMARK VINA RESULT:      -6.0      6.168      9.179
REMARK  Name = 
REMARK  3 active torsions:
REMARK  status: ('A' for Active; 'I' for Inactive)
REMARK    1  A    between atoms: C_1  and  C_2
REMARK    2  A    between atoms: C_6  and  C_7
REMARK    3  A    between atoms: C_12  and  C_13
REMARK                            x       y       z     vdW  Elec       q    Type
REMARK                         _______ _______ _______ _____ _____    ______ ____
ROOT
ATOM      1  C   UNL     1      -1.326  12.846  22.599  0.00  0.00    +0.000 C 
ATOM      2  C   UNL     1      -1.952  12.453  21.333  0.00  0.00    +0.000 C 
ATOM      3  C   UNL     1      -1.330  11.725  20.427  0.00  0.00    +0.000 C 
ATOM      4  O   UNL     1      -0.085  11.423  20.819  0.00  0.00    +0.000 OA
ATOM      5  C   UNL     1       0.890  10.709  20.148  0.00  0.00    +0.000 C 
ATOM      6  C   UNL     1       0.445  10.268  18.943  0.00  0.00    +0.000 C 
ATOM      7  C   UNL     1      -1.001  10.540  18.355  0.00  0.00    +0.000 A 
ATOM      8  C   UNL     1      -1.572  10.138  17.102  0.00  0.00    +0.000 A 
ATOM      9  C   UNL     1      -2.949  10.504  16.747  0.00  0.00    +0.000 A 
ATOM     10  C   UNL     1      -3.763  11.268  17.601  0.00  0.00    +0.000 A 
ATOM     11  C   UNL     1      -5.188  11.648  17.248  0.00  0.00    +0.000 C 
ATOM     12  C   UNL     1      -3.178  11.654  18.816  0.00  0.00    +0.000 A 
ATOM     13  C   UNL     1      -1.846  11.290  19.153  0.00  0.00    +0.000 A 
ATOM     14  C   UNL     1      -3.967  12.465  19.794  0.00  0.00    +0.000 C 
ATOM     15  O   UNL     1      -5.113  12.814  19.594  0.00  0.00    +0.000 OA
ATOM     16  C   UNL     1      -3.337  12.857  21.056  0.00  0.00    +0.000 C 
ATOM     17  O   UNL     1      -3.951  13.529  21.872  0.00  0.00    +0.000 OA
ENDROOT
BRANCH   6  18
ATOM     18  C   UNL     1       1.233   9.490  18.022  0.00  0.00    +0.000 C 
ATOM     19  N   UNL     1       2.003   8.780  17.523  0.00  0.00    +0.000 NA
ENDBRANCH   6  18
TORSDOF 1
ENDMDL
MODEL 9
REMARK VINA RESULT:      -6.0      2.299      4.494
REMARK  Name = 
REMARK  3 active torsions:
REMARK  status: ('A' for Active; 'I' for Inactive)
REMARK    1  A    between atoms: C_1  and  C_2
REMARK    2  A    between atoms: C_6  and  C_7
REMARK    3  A    between atoms: C_12  and  C_13
REMARK                            x       y       z     vdW  Elec       q    Type
REMARK                         _______ _______ _______ _____ _____    ______ ____
ROOT
ATOM      1  C   UNL     1       5.205   3.740  15.979  0.00  0.00    +0.000 C 
ATOM      2  C   UNL     1       4.330   3.892  17.145  0.00  0.00    +0.000 C 
ATOM      3  C   UNL     1       3.828   5.055  17.511  0.00  0.00    +0.000 C 
ATOM      4  O   UNL     1       4.235   6.037  16.696  0.00  0.00    +0.000 OA
ATOM      5  C   UNL     1       3.957   7.390  16.757  0.00  0.00    +0.000 C 
ATOM      6  C   UNL     1       3.138   7.685  17.799  0.00  0.00    +0.000 C 
ATOM      7  C   UNL     1       2.573   6.628  18.836  0.00  0.00    +0.000 A 
ATOM      8  C   UNL     1       1.717   6.824  19.971  0.00  0.00    +0.000 A 
ATOM      9  C   UNL     1       1.310   5.693  20.815  0.00  0.00    +0.000 A 
ATOM     10  C   UNL     1       1.742   4.380  20.562  0.00  0.00    +0.000 A 
ATOM     11  C   UNL     1       1.324   3.203  21.422  0.00  0.00    +0.000 C 
ATOM     12  C   UNL     1       2.582   4.217  19.451  0.00  0.00    +0.000 A 
ATOM     13  C   UNL     1       2.967   5.317  18.638  0.00  0.00    +0.000 A 
ATOM     14  C   UNL     1       3.090   2.855  19.098  0.00  0.00    +0.000 C 
ATOM     15  O   UNL     1       2.807   1.858  19.731  0.00  0.00    +0.000 OA
ATOM     16  C   UNL     1       3.966   2.708  17.934  0.00  0.00    +0.000 C 
ATOM     17  O   UNL     1       4.407   1.611  17.626  0.00  0.00    +0.000 OA
ENDROOT
BRANCH   6  18
ATOM     18  C   UNL     1       2.669   9.010  18.113  0.00  0.00    +0.000 C 
ATOM     19  N   UNL     1       2.050   9.983  18.239  0.00  0.00    +0.000 NA
ENDBRANCH   6  18
TORSDOF 1
ENDMDL
