MODEL 1
REMARK VINA RESULT:      -8.1      0.000      0.000
REMARK  Name = 
REMARK  9 active torsions:
REMARK  status: ('A' for Active; 'I' for Inactive)
REMARK    1  A    between atoms: C_1  and  O_2
REMARK    2  A    between atoms: O_2  and  C_3
REMARK    3  A    between atoms: C_5  and  C_6
REMARK    4  A    between atoms: C_9  and  O_10
REMARK    5  A    between atoms: O_10  and  C_11
REMARK    6  A    between atoms: C_13  and  C_14
REMARK    7  A    between atoms: C_17  and  C_18
REMARK    8  A    between atoms: N_19  and  O_20
REMARK    9  A    between atoms: N_21  and  C_22
REMARK                            x       y       z     vdW  Elec       q    Type
REMARK                         _______ _______ _______ _____ _____    ______ ____
ROOT
ATOM      1  C   UNL     1       3.309   5.413  19.458  0.00  0.00    +0.000 A 
ATOM      2  N   UNL     1       3.419   4.054  19.408  0.00  0.00    +0.000 NA
ATOM      3  C   UNL     1       2.469   3.312  20.011  0.00  0.00    +0.000 A 
ATOM      4  C   UNL     1       2.697   1.832  20.082  0.00  0.00    +0.000 C 
ATOM      5  C   UNL     1       1.348   3.876  20.607  0.00  0.00    +0.000 A 
ATOM      6  C   UNL     1       1.197   5.257  20.558  0.00  0.00    +0.000 A 
ATOM      7  C   UNL     1       2.181   6.060  19.966  0.00  0.00    +0.000 A 
ENDROOT
BRANCH   7   8
ATOM      8  C   UNL     1       1.933   7.548  19.912  0.00  0.00    +0.000 C 
ATOM      9  N   UNL     1       1.827   8.033  18.700  0.00  0.00    +0.000 NA
ATOM     10  N   UNL     1       1.976   8.265  21.099  0.00  0.00    +0.000 N 
ATOM     11  H   UNL     1       2.396   7.804  21.898  0.00  0.00    +0.000 HD
BRANCH  10  12
ATOM     12  C   UNL     1       1.078   9.277  21.511  0.00  0.00    +0.000 A 
ATOM     13  C   UNL     1       1.088  10.574  20.984  0.00  0.00    +0.000 A 
ATOM     14  C   UNL     1       0.181  11.542  21.431  0.00  0.00    +0.000 A 
ATOM     15  C   UNL     1      -0.735  11.234  22.433  0.00  0.00    +0.000 A 
ATOM     16  C   UNL     1      -0.739   9.960  22.994  0.00  0.00    +0.000 A 
ATOM     17  C   UNL     1       0.163   8.993  22.539  0.00  0.00    +0.000 A 
ENDBRANCH  10  12
BRANCH   9  18
ATOM     18  O   UNL     1       1.859   9.432  18.678  0.00  0.00    +0.000 OA
ATOM     19  H   UNL     1       1.723   9.631  17.736  0.00  0.00    +0.000 HD
ENDBRANCH   9  18
ENDBRANCH   7   8
BRANCH   1  20
ATOM     20  O   UNL     1       4.372   6.171  18.999  0.00  0.00    +0.000 OA
BRANCH  20  27
ATOM     21  C   UNL     1       6.320   5.030  17.954  0.00  0.00    +0.000 A 
ATOM     22  C   UNL     1       6.967   4.705  16.750  0.00  0.00    +0.000 A 
ATOM     23  C   UNL     1       6.457   5.123  15.512  0.00  0.00    +0.000 A 
ATOM     24  C   UNL     1       7.216   4.866  14.242  0.00  0.00    +0.000 C 
ATOM     25  C   UNL     1       5.249   5.825  15.480  0.00  0.00    +0.000 A 
ATOM     26  C   UNL     1       4.570   6.112  16.665  0.00  0.00    +0.000 A 
ATOM     27  C   UNL     1       5.088   5.715  17.904  0.00  0.00    +0.000 A 
BRANCH  21  29
ATOM     28  C   UNL     1       7.812   5.636  19.716  0.00  0.00    +0.000 C 
ATOM     29  O   UNL     1       6.844   4.742  19.188  0.00  0.00    +0.000 OA
ENDBRANCH  21  29
ENDBRANCH  20  27
ENDBRANCH   1  20
TORSDOF 6
ENDMDL
MODEL 2
REMARK VINA RESULT:      -8.0      1.168      1.416
REMARK  Name = 
REMARK  9 active torsions:
REMARK  status: ('A' for Active; 'I' for Inactive)
REMARK    1  A    between atoms: C_1  and  O_2
REMARK    2  A    between atoms: O_2  and  C_3
REMARK    3  A    between atoms: C_5  and  C_6
REMARK    4  A    between atoms: C_9  and  O_10
REMARK    5  A    between atoms: O_10  and  C_11
REMARK    6  A    between atoms: C_13  and  C_14
REMARK    7  A    between atoms: C_17  and  C_18
REMARK    8  A    between atoms: N_19  and  O_20
REMARK    9  A    between atoms: N_21  and  C_22
REMARK                            x       y       z     vdW  Elec       q    Type
REMARK                         _______ _______ _______ _____ _____    ______ ____
ROOT
ATOM      1  C   UNL     1       3.533   5.775  19.396  0.00  0.00    +0.000 A 
ATOM      2  N   UNL     1       3.670   4.459  19.735  0.00  0.00    +0.000 NA
ATOM      3  C   UNL     1       2.685   3.877  20.449  0.00  0.00    +0.000 A 
ATOM      4  C   UNL     1       2.931   2.484  20.946  0.00  0.00    +0.000 C 
ATOM      5  C   UNL     1       1.510   4.540  20.778  0.00  0.00    +0.000 A 
ATOM      6  C   UNL     1       1.341   5.847  20.335  0.00  0.00    +0.000 A 
ATOM      7  C   UNL     1       2.356   6.492  19.618  0.00  0.00    +0.000 A 
ENDROOT
BRANCH   7   8
ATOM      8  C   UNL     1       2.089   7.896  19.133  0.00  0.00    +0.000 C 
ATOM      9  N   UNL     1       2.300   8.074  17.853  0.00  0.00    +0.000 NA
ATOM     10  N   UNL     1       1.790   8.871  20.074  0.00  0.00    +0.000 N 
ATOM     11  H   UNL     1       1.992   8.650  21.043  0.00  0.00    +0.000 HD
BRANCH  10  12
ATOM     12  C   UNL     1       0.785   9.862  19.978  0.00  0.00    +0.000 A 
ATOM     13  C   UNL     1      -0.414   9.674  19.279  0.00  0.00    +0.000 A 
ATOM     14  C   UNL     1      -1.374  10.690  19.208  0.00  0.00    +0.000 A 
ATOM     15  C   UNL     1      -1.139  11.920  19.816  0.00  0.00    +0.000 A 
ATOM     16  C   UNL     1       0.061  12.138  20.488  0.00  0.00    +0.000 A 
ATOM     17  C   UNL     1       1.014  11.118  20.563  0.00  0.00    +0.000 A 
ENDBRANCH  10  12
BRANCH   9  18
ATOM     18  O   UNL     1       2.296   9.426  17.491  0.00  0.00    +0.000 OA
ATOM     19  H   UNL     1       1.354   9.659  17.557  0.00  0.00    +0.000 HD
ENDBRANCH   9  18
ENDBRANCH   7   8
BRANCH   1  20
ATOM     20  O   UNL     1       4.617   6.416  18.824  0.00  0.00    +0.000 OA
BRANCH  20  27
ATOM     21  C   UNL     1       6.409   5.049  17.769  0.00  0.00    +0.000 A 
ATOM     22  C   UNL     1       6.962   4.592  16.561  0.00  0.00    +0.000 A 
ATOM     23  C   UNL     1       6.422   4.969  15.323  0.00  0.00    +0.000 A 
ATOM     24  C   UNL     1       7.088   4.566  14.039  0.00  0.00    +0.000 C 
ATOM     25  C   UNL     1       5.274   5.767  15.300  0.00  0.00    +0.000 A 
ATOM     26  C   UNL     1       4.685   6.187  16.493  0.00  0.00    +0.000 A 
ATOM     27  C   UNL     1       5.235   5.830  17.731  0.00  0.00    +0.000 A 
BRANCH  21  29
ATOM     28  C   UNL     1       7.939   5.724  19.472  0.00  0.00    +0.000 C 
ATOM     29  O   UNL     1       6.973   4.800  18.994  0.00  0.00    +0.000 OA
ENDBRANCH  21  29
ENDBRANCH  20  27
ENDBRANCH   1  20
TORSDOF 6
ENDMDL
MODEL 3
REMARK VINA RESULT:      -8.0      1.555      1.758
REMARK  Name = 
REMARK  9 active torsions:
REMARK  status: ('A' for Active; 'I' for Inactive)
REMARK    1  A    between atoms: C_1  and  O_2
REMARK    2  A    between atoms: O_2  and  C_3
REMARK    3  A    between atoms: C_5  and  C_6
REMARK    4  A    between atoms: C_9  and  O_10
REMARK    5  A    between atoms: O_10  and  C_11
REMARK    6  A    between atoms: C_13  and  C_14
REMARK    7  A    between atoms: C_17  and  C_18
REMARK    8  A    between atoms: N_19  and  O_20
REMARK    9  A    between atoms: N_21  and  C_22
REMARK                            x       y       z     vdW  Elec       q    Type
REMARK                         _______ _______ _______ _____ _____    ______ ____
ROOT
ATOM      1  C   UNL     1       4.453   4.546  19.305  0.00  0.00    +0.000 A 
ATOM      2  N   UNL     1       4.919   3.297  19.597  0.00  0.00    +0.000 NA
ATOM      3  C   UNL     1       4.193   2.521  20.427  0.00  0.00    +0.000 A 
ATOM      4  C   UNL     1       4.803   1.222  20.860  0.00  0.00    +0.000 C 
ATOM      5  C   UNL     1       2.958   2.914  20.926  0.00  0.00    +0.000 A 
ATOM      6  C   UNL     1       2.447   4.147  20.534  0.00  0.00    +0.000 A 
ATOM      7  C   UNL     1       3.189   4.991  19.697  0.00  0.00    +0.000 A 
ENDROOT
BRANCH   7   8
ATOM      8  C   UNL     1       2.558   6.296  19.280  0.00  0.00    +0.000 C 
ATOM      9  N   UNL     1       2.151   6.325  18.036  0.00  0.00    +0.000 NA
ATOM     10  N   UNL     1       2.588   7.357  20.175  0.00  0.00    +0.000 N 
ATOM     11  H   UNL     1       3.227   7.278  20.957  0.00  0.00    +0.000 HD
BRANCH  10  12
ATOM     12  C   UNL     1       1.528   8.246  20.471  0.00  0.00    +0.000 A 
ATOM     13  C   UNL     1       1.319   9.447  19.784  0.00  0.00    +0.000 A 
ATOM     14  C   UNL     1       0.259  10.296  20.121  0.00  0.00    +0.000 A 
ATOM     15  C   UNL     1      -0.596   9.967  21.169  0.00  0.00    +0.000 A 
ATOM     16  C   UNL     1      -0.385   8.794  21.887  0.00  0.00    +0.000 A 
ATOM     17  C   UNL     1       0.671   7.944  21.542  0.00  0.00    +0.000 A 
ENDBRANCH  10  12
BRANCH   9  18
ATOM     18  O   UNL     1       1.814   7.615  17.611  0.00  0.00    +0.000 OA
ATOM     19  H   UNL     1       1.544   7.469  16.688  0.00  0.00    +0.000 HD
ENDBRANCH   9  18
ENDBRANCH   7   8
BRANCH   1  20
ATOM     20  O   UNL     1       5.282   5.403  18.603  0.00  0.00    +0.000 OA
BRANCH  20  27
ATOM     21  C   UNL     1       6.941   5.393  16.749  0.00  0.00    +0.000 A 
ATOM     22  C   UNL     1       7.203   4.997  15.427  0.00  0.00    +0.000 A 
ATOM     23  C   UNL     1       6.240   4.321  14.663  0.00  0.00    +0.000 A 
ATOM     24  C   UNL     1       6.490   4.003  13.218  0.00  0.00    +0.000 C 
ATOM     25  C   UNL     1       5.019   3.987  15.256  0.00  0.00    +0.000 A 
ATOM     26  C   UNL     1       4.764   4.331  16.585  0.00  0.00    +0.000 A 
ATOM     27  C   UNL     1       5.716   5.024  17.343  0.00  0.00    +0.000 A 
BRANCH  21  29
ATOM     28  C   UNL     1       7.637   7.563  17.460  0.00  0.00    +0.000 C 
ATOM     29  O   UNL     1       7.809   6.154  17.490  0.00  0.00    +0.000 OA
ENDBRANCH  21  29
ENDBRANCH  20  27
ENDBRANCH   1  20
TORSDOF 6
ENDMDL
MODEL 4
REMARK VINA RESULT:      -7.9      2.589      7.343
REMARK  Name = 
REMARK  9 active torsions:
REMARK  status: ('A' for Active; 'I' for Inactive)
REMARK    1  A    between atoms: C_1  and  O_2
REMARK    2  A    between atoms: O_2  and  C_3
REMARK    3  A    between atoms: C_5  and  C_6
REMARK    4  A    between atoms: C_9  and  O_10
REMARK    5  A    between atoms: O_10  and  C_11
REMARK    6  A    between atoms: C_13  and  C_14
REMARK    7  A    between atoms: C_17  and  C_18
REMARK    8  A    between atoms: N_19  and  O_20
REMARK    9  A    between atoms: N_21  and  C_22
REMARK                            x       y       z     vdW  Elec       q    Type
REMARK                         _______ _______ _______ _____ _____    ______ ____
ROOT
ATOM      1  C   UNL     1       3.765   4.335  18.863  0.00  0.00    +0.000 A 
ATOM      2  N   UNL     1       2.805   3.788  19.665  0.00  0.00    +0.000 NA
ATOM      3  C   UNL     1       2.253   2.615  19.295  0.00  0.00    +0.000 A 
ATOM      4  C   UNL     1       1.092   2.118  20.102  0.00  0.00    +0.000 C 
ATOM      5  C   UNL     1       2.681   1.910  18.177  0.00  0.00    +0.000 A 
ATOM      6  C   UNL     1       3.732   2.429  17.429  0.00  0.00    +0.000 A 
ATOM      7  C   UNL     1       4.307   3.660  17.769  0.00  0.00    +0.000 A 
ENDROOT
BRANCH   7   8
ATOM      8  C   UNL     1       5.470   4.143  16.938  0.00  0.00    +0.000 C 
ATOM      9  N   UNL     1       6.631   4.065  17.538  0.00  0.00    +0.000 NA
ATOM     10  N   UNL     1       5.201   4.735  15.711  0.00  0.00    +0.000 N 
ATOM     11  H   UNL     1       4.243   5.021  15.541  0.00  0.00    +0.000 HD
BRANCH  10  12
ATOM     12  C   UNL     1       5.890   4.516  14.495  0.00  0.00    +0.000 A 
ATOM     13  C   UNL     1       7.048   5.213  14.133  0.00  0.00    +0.000 A 
ATOM     14  C   UNL     1       7.688   4.964  12.914  0.00  0.00    +0.000 A 
ATOM     15  C   UNL     1       7.165   4.029  12.025  0.00  0.00    +0.000 A 
ATOM     16  C   UNL     1       5.995   3.349  12.353  0.00  0.00    +0.000 A 
ATOM     17  C   UNL     1       5.363   3.595  13.575  0.00  0.00    +0.000 A 
ENDBRANCH  10  12
BRANCH   9  18
ATOM     18  O   UNL     1       7.638   4.753  16.851  0.00  0.00    +0.000 OA
ATOM     19  H   UNL     1       7.932   4.098  16.195  0.00  0.00    +0.000 HD
ENDBRANCH   9  18
ENDBRANCH   7   8
BRANCH   1  20
ATOM     20  O   UNL     1       4.198   5.618  19.148  0.00  0.00    +0.000 OA
BRANCH  20  27
ATOM     21  C   UNL     1       3.459   7.530  17.737  0.00  0.00    +0.000 A 
ATOM     22  C   UNL     1       2.580   8.621  17.627  0.00  0.00    +0.000 A 
ATOM     23  C   UNL     1       1.670   8.930  18.649  0.00  0.00    +0.000 A 
ATOM     24  C   UNL     1       0.816  10.162  18.569  0.00  0.00    +0.000 C 
ATOM     25  C   UNL     1       1.601   8.097  19.769  0.00  0.00    +0.000 A 
ATOM     26  C   UNL     1       2.433   6.981  19.869  0.00  0.00    +0.000 A 
ATOM     27  C   UNL     1       3.358   6.682  18.860  0.00  0.00    +0.000 A 
BRANCH  21  29
ATOM     28  C   UNL     1       5.760   7.687  17.121  0.00  0.00    +0.000 C 
ATOM     29  O   UNL     1       4.440   7.261  16.817  0.00  0.00    +0.000 OA
ENDBRANCH  21  29
ENDBRANCH  20  27
ENDBRANCH   1  20
TORSDOF 6
ENDMDL
MODEL 5
REMARK VINA RESULT:      -7.8      2.575      6.786
REMARK  Name = 
REMARK  9 active torsions:
REMARK  status: ('A' for Active; 'I' for Inactive)
REMARK    1  A    between atoms: C_1  and  O_2
REMARK    2  A    between atoms: O_2  and  C_3
REMARK    3  A    between atoms: C_5  and  C_6
REMARK    4  A    between atoms: C_9  and  O_10
REMARK    5  A    between atoms: O_10  and  C_11
REMARK    6  A    between atoms: C_13  and  C_14
REMARK    7  A    between atoms: C_17  and  C_18
REMARK    8  A    between atoms: N_19  and  O_20
REMARK    9  A    between atoms: N_21  and  C_22
REMARK                            x       y       z     vdW  Elec       q    Type
REMARK                         _______ _______ _______ _____ _____    ______ ____
ROOT
ATOM      1  C   UNL     1       5.428   6.594  17.685  0.00  0.00    +0.000 A 
ATOM      2  N   UNL     1       6.156   7.685  17.307  0.00  0.00    +0.000 NA
ATOM      3  C   UNL     1       7.424   7.794  17.753  0.00  0.00    +0.000 A 
ATOM      4  C   UNL     1       8.146   9.075  17.460  0.00  0.00    +0.000 C 
ATOM      5  C   UNL     1       8.036   6.804  18.511  0.00  0.00    +0.000 A 
ATOM      6  C   UNL     1       7.316   5.650  18.799  0.00  0.00    +0.000 A 
ATOM      7  C   UNL     1       5.987   5.517  18.377  0.00  0.00    +0.000 A 
ENDROOT
BRANCH   7   8
ATOM      8  C   UNL     1       5.278   4.223  18.690  0.00  0.00    +0.000 C 
ATOM      9  N   UNL     1       5.732   3.601  19.749  0.00  0.00    +0.000 NA
ATOM     10  N   UNL     1       4.336   3.753  17.785  0.00  0.00    +0.000 N 
ATOM     11  H   UNL     1       4.340   4.172  16.861  0.00  0.00    +0.000 HD
BRANCH  10  12
ATOM     12  C   UNL     1       3.069   3.203  18.088  0.00  0.00    +0.000 A 
ATOM     13  C   UNL     1       2.898   1.930  18.646  0.00  0.00    +0.000 A 
ATOM     14  C   UNL     1       1.621   1.429  18.921  0.00  0.00    +0.000 A 
ATOM     15  C   UNL     1       0.491   2.184  18.619  0.00  0.00    +0.000 A 
ATOM     16  C   UNL     1       0.639   3.438  18.033  0.00  0.00    +0.000 A 
ATOM     17  C   UNL     1       1.917   3.939  17.767  0.00  0.00    +0.000 A 
ENDBRANCH  10  12
BRANCH   9  18
ATOM     18  O   UNL     1       5.238   2.297  19.859  0.00  0.00    +0.000 OA
ATOM     19  H   UNL     1       4.969   2.251  20.793  0.00  0.00    +0.000 HD
ENDBRANCH   9  18
ENDBRANCH   7   8
BRANCH   1  20
ATOM     20  O   UNL     1       4.079   6.572  17.378  0.00  0.00    +0.000 OA
BRANCH  20  27
ATOM     21  C   UNL     1       2.666   7.086  19.361  0.00  0.00    +0.000 A 
ATOM     22  C   UNL     1       1.743   7.980  19.929  0.00  0.00    +0.000 A 
ATOM     23  C   UNL     1       1.300   9.113  19.231  0.00  0.00    +0.000 A 
ATOM     24  C   UNL     1       0.231   9.998  19.802  0.00  0.00    +0.000 C 
ATOM     25  C   UNL     1       1.838   9.384  17.969  0.00  0.00    +0.000 A 
ATOM     26  C   UNL     1       2.793   8.531  17.414  0.00  0.00    +0.000 A 
ATOM     27  C   UNL     1       3.221   7.387  18.100  0.00  0.00    +0.000 A 
BRANCH  21  29
ATOM     28  C   UNL     1       2.152   5.355  20.922  0.00  0.00    +0.000 C 
ATOM     29  O   UNL     1       3.037   5.909  19.960  0.00  0.00    +0.000 OA
ENDBRANCH  21  29
ENDBRANCH  20  27
ENDBRANCH   1  20
TORSDOF 6
ENDMDL
MODEL 6
REMARK VINA RESULT:      -7.7      1.516      1.687
REMARK  Name = 
REMARK  9 active torsions:
REMARK  status: ('A' for Active; 'I' for Inactive)
REMARK    1  A    between atoms: C_1  and  O_2
REMARK    2  A    between atoms: O_2  and  C_3
REMARK    3  A    between atoms: C_5  and  C_6
REMARK    4  A    between atoms: C_9  and  O_10
REMARK    5  A    between atoms: O_10  and  C_11
REMARK    6  A    between atoms: C_13  and  C_14
REMARK    7  A    between atoms: C_17  and  C_18
REMARK    8  A    between atoms: N_19  and  O_20
REMARK    9  A    between atoms: N_21  and  C_22
REMARK                            x       y       z     vdW  Elec       q    Type
REMARK                         _______ _______ _______ _____ _____    ______ ____
ROOT
ATOM      1  C   UNL     1       3.560   5.734  19.405  0.00  0.00    +0.000 A 
ATOM      2  N   UNL     1       3.686   4.434  19.803  0.00  0.00    +0.000 NA
ATOM      3  C   UNL     1       2.700   3.895  20.549  0.00  0.00    +0.000 A 
ATOM      4  C   UNL     1       2.936   2.524  21.108  0.00  0.00    +0.000 C 
ATOM      5  C   UNL     1       1.535   4.586  20.856  0.00  0.00    +0.000 A 
ATOM      6  C   UNL     1       1.375   5.872  20.354  0.00  0.00    +0.000 A 
ATOM      7  C   UNL     1       2.392   6.473  19.601  0.00  0.00    +0.000 A 
ENDROOT
BRANCH   7   8
ATOM      8  C   UNL     1       2.136   7.856  19.054  0.00  0.00    +0.000 C 
ATOM      9  N   UNL     1       2.371   7.981  17.771  0.00  0.00    +0.000 NA
ATOM     10  N   UNL     1       1.819   8.869  19.948  0.00  0.00    +0.000 N 
ATOM     11  H   UNL     1       2.003   8.688  20.929  0.00  0.00    +0.000 HD
BRANCH  10  12
ATOM     12  C   UNL     1       0.818   9.855  19.793  0.00  0.00    +0.000 A 
ATOM     13  C   UNL     1       0.918  11.143  20.331  0.00  0.00    +0.000 A 
ATOM     14  C   UNL     1      -0.106  12.081  20.154  0.00  0.00    +0.000 A 
ATOM     15  C   UNL     1      -1.259  11.736  19.455  0.00  0.00    +0.000 A 
ATOM     16  C   UNL     1      -1.392  10.450  18.940  0.00  0.00    +0.000 A 
ATOM     17  C   UNL     1      -0.364   9.518  19.112  0.00  0.00    +0.000 A 
ENDBRANCH  10  12
BRANCH   9  18
ATOM     18  O   UNL     1       2.375   9.317  17.354  0.00  0.00    +0.000 OA
ATOM     19  H   UNL     1       3.168   9.360  16.793  0.00  0.00    +0.000 HD
ENDBRANCH   9  18
ENDBRANCH   7   8
BRANCH   1  20
ATOM     20  O   UNL     1       4.647   6.337  18.797  0.00  0.00    +0.000 OA
BRANCH  20  27
ATOM     21  C   UNL     1       6.570   5.840  17.298  0.00  0.00    +0.000 A 
ATOM     22  C   UNL     1       6.986   5.213  16.111  0.00  0.00    +0.000 A 
ATOM     23  C   UNL     1       6.074   4.547  15.280  0.00  0.00    +0.000 A 
ATOM     24  C   UNL     1       6.510   3.980  13.960  0.00  0.00    +0.000 C 
ATOM     25  C   UNL     1       4.736   4.458  15.676  0.00  0.00    +0.000 A 
ATOM     26  C   UNL     1       4.318   5.033  16.878  0.00  0.00    +0.000 A 
ATOM     27  C   UNL     1       5.223   5.717  17.699  0.00  0.00    +0.000 A 
BRANCH  21  29
ATOM     28  C   UNL     1       7.712   7.909  17.630  0.00  0.00    +0.000 C 
ATOM     29  O   UNL     1       7.405   6.598  18.079  0.00  0.00    +0.000 OA
ENDBRANCH  21  29
ENDBRANCH  20  27
ENDBRANCH   1  20
TORSDOF 6
ENDMDL
MODEL 7
REMARK VINA RESULT:      -7.7      1.165      1.594
REMARK  Name = 
REMARK  9 active torsions:
REMARK  status: ('A' for Active; 'I' for Inactive)
REMARK    1  A    between atoms: C_1  and  O_2
REMARK    2  A    between atoms: O_2  and  C_3
REMARK    3  A    between atoms: C_5  and  C_6
REMARK    4  A    between atoms: C_9  and  O_10
REMARK    5  A    between atoms: O_10  and  C_11
REMARK    6  A    between atoms: C_13  and  C_14
REMARK    7  A    between atoms: C_17  and  C_18
REMARK    8  A    between atoms: N_19  and  O_20
REMARK    9  A    between atoms: N_21  and  C_22
REMARK                            x       y       z     vdW  Elec       q    Type
REMARK                         _______ _______ _______ _____ _____    ______ ____
ROOT
ATOM      1  C   UNL     1       4.348   4.797  19.300  0.00  0.00    +0.000 A 
ATOM      2  N   UNL     1       4.804   3.529  19.513  0.00  0.00    +0.000 NA
ATOM      3  C   UNL     1       4.063   2.702  20.279  0.00  0.00    +0.000 A 
ATOM      4  C   UNL     1       4.661   1.374  20.631  0.00  0.00    +0.000 C 
ATOM      5  C   UNL     1       2.824   3.069  20.789  0.00  0.00    +0.000 A 
ATOM      6  C   UNL     1       2.325   4.328  20.475  0.00  0.00    +0.000 A 
ATOM      7  C   UNL     1       3.082   5.222  19.707  0.00  0.00    +0.000 A 
ENDROOT
BRANCH   7   8
ATOM      8  C   UNL     1       2.463   6.556  19.371  0.00  0.00    +0.000 C 
ATOM      9  N   UNL     1       2.078   6.674  18.125  0.00  0.00    +0.000 NA
ATOM     10  N   UNL     1       2.480   7.552  20.338  0.00  0.00    +0.000 N 
ATOM     11  H   UNL     1       3.105   7.415  21.125  0.00  0.00    +0.000 HD
BRANCH  10  12
ATOM     12  C   UNL     1       1.419   8.423  20.678  0.00  0.00    +0.000 A 
ATOM     13  C   UNL     1       0.451   8.115  21.642  0.00  0.00    +0.000 A 
ATOM     14  C   UNL     1      -0.584   9.010  21.936  0.00  0.00    +0.000 A 
ATOM     15  C   UNL     1      -0.682  10.218  21.251  0.00  0.00    +0.000 A 
ATOM     16  C   UNL     1       0.250  10.527  20.265  0.00  0.00    +0.000 A 
ATOM     17  C   UNL     1       1.288   9.635  19.980  0.00  0.00    +0.000 A 
ENDBRANCH  10  12
BRANCH   9  18
ATOM     18  O   UNL     1       1.754   7.993  17.786  0.00  0.00    +0.000 OA
ATOM     19  H   UNL     1       2.627   8.391  17.627  0.00  0.00    +0.000 HD
ENDBRANCH   9  18
ENDBRANCH   7   8
BRANCH   1  20
ATOM     20  O   UNL     1       5.190   5.695  18.668  0.00  0.00    +0.000 OA
BRANCH  20  27
ATOM     21  C   UNL     1       7.032   4.821  17.242  0.00  0.00    +0.000 A 
ATOM     22  C   UNL     1       7.475   4.591  15.928  0.00  0.00    +0.000 A 
ATOM     23  C   UNL     1       6.694   4.951  14.821  0.00  0.00    +0.000 A 
ATOM     24  C   UNL     1       7.225   4.804  13.425  0.00  0.00    +0.000 C 
ATOM     25  C   UNL     1       5.424   5.494  15.037  0.00  0.00    +0.000 A 
ATOM     26  C   UNL     1       4.950   5.682  16.337  0.00  0.00    +0.000 A 
ATOM     27  C   UNL     1       5.738   5.343  17.444  0.00  0.00    +0.000 A 
BRANCH  21  29
ATOM     28  C   UNL     1       8.121   5.701  19.175  0.00  0.00    +0.000 C 
ATOM     29  O   UNL     1       7.811   4.591  18.347  0.00  0.00    +0.000 OA
ENDBRANCH  21  29
ENDBRANCH  20  27
ENDBRANCH   1  20
TORSDOF 6
ENDMDL
MODEL 8
REMARK VINA RESULT:      -7.4      3.960      6.970
REMARK  Name = 
REMARK  9 active torsions:
REMARK  status: ('A' for Active; 'I' for Inactive)
REMARK    1  A    between atoms: C_1  and  O_2
REMARK    2  A    between atoms: O_2  and  C_3
REMARK    3  A    between atoms: C_5  and  C_6
REMARK    4  A    between atoms: C_9  and  O_10
REMARK    5  A    between atoms: O_10  and  C_11
REMARK    6  A    between atoms: C_13  and  C_14
REMARK    7  A    between atoms: C_17  and  C_18
REMARK    8  A    between atoms: N_19  and  O_20
REMARK    9  A    between atoms: N_21  and  C_22
REMARK                            x       y       z     vdW  Elec       q    Type
REMARK                         _______ _______ _______ _____ _____    ______ ____
ROOT
ATOM      1  C   UNL     1       0.047  10.968  18.636  0.00  0.00    +0.000 A 
ATOM      2  N   UNL     1      -0.898  10.213  18.004  0.00  0.00    +0.000 NA
ATOM      3  C   UNL     1      -2.194  10.559  18.147  0.00  0.00    +0.000 A 
ATOM      4  C   UNL     1      -3.219   9.625  17.579  0.00  0.00    +0.000 C 
ATOM      5  C   UNL     1      -2.590  11.694  18.844  0.00  0.00    +0.000 A 
ATOM      6  C   UNL     1      -1.608  12.510  19.393  0.00  0.00    +0.000 A 
ATOM      7  C   UNL     1      -0.254  12.164  19.289  0.00  0.00    +0.000 A 
ENDROOT
BRANCH   7   8
ATOM      8  C   UNL     1       0.760  13.116  19.874  0.00  0.00    +0.000 C 
ATOM      9  N   UNL     1       1.180  12.788  21.070  0.00  0.00    +0.000 NA
ATOM     10  N   UNL     1       1.044  14.283  19.179  0.00  0.00    +0.000 N 
ATOM     11  H   UNL     1       0.396  14.548  18.445  0.00  0.00    +0.000 HD
BRANCH  10  12
ATOM     12  C   UNL     1       2.321  14.849  18.959  0.00  0.00    +0.000 A 
ATOM     13  C   UNL     1       2.637  16.177  19.271  0.00  0.00    +0.000 A 
ATOM     14  C   UNL     1       3.915  16.691  19.027  0.00  0.00    +0.000 A 
ATOM     15  C   UNL     1       4.893  15.890  18.442  0.00  0.00    +0.000 A 
ATOM     16  C   UNL     1       4.589  14.578  18.093  0.00  0.00    +0.000 A 
ATOM     17  C   UNL     1       3.313  14.065  18.346  0.00  0.00    +0.000 A 
ENDBRANCH  10  12
BRANCH   9  18
ATOM     18  O   UNL     1       1.910  13.813  21.682  0.00  0.00    +0.000 OA
ATOM     19  H   UNL     1       1.569  14.609  21.238  0.00  0.00    +0.000 HD
ENDBRANCH   9  18
ENDBRANCH   7   8
BRANCH   1  20
ATOM     20  O   UNL     1       1.353  10.509  18.637  0.00  0.00    +0.000 OA
BRANCH  20  27
ATOM     21  C   UNL     1       1.438   8.630  20.266  0.00  0.00    +0.000 A 
ATOM     22  C   UNL     1       1.802   7.289  20.474  0.00  0.00    +0.000 A 
ATOM     23  C   UNL     1       2.394   6.527  19.457  0.00  0.00    +0.000 A 
ATOM     24  C   UNL     1       2.881   5.133  19.725  0.00  0.00    +0.000 C 
ATOM     25  C   UNL     1       2.567   7.102  18.194  0.00  0.00    +0.000 A 
ATOM     26  C   UNL     1       2.165   8.418  17.959  0.00  0.00    +0.000 A 
ATOM     27  C   UNL     1       1.593   9.188  18.980  0.00  0.00    +0.000 A 
BRANCH  21  29
ATOM     28  C   UNL     1      -0.267   9.085  21.873  0.00  0.00    +0.000 C 
ATOM     29  O   UNL     1       0.964   9.443  21.264  0.00  0.00    +0.000 OA
ENDBRANCH  21  29
ENDBRANCH  20  27
ENDBRANCH   1  20
TORSDOF 6
ENDMDL
MODEL 9
REMARK VINA RESULT:      -7.4      5.525      8.316
REMARK  Name = 
REMARK  9 active torsions:
REMARK  status: ('A' for Active; 'I' for Inactive)
REMARK    1  A    between atoms: C_1  and  O_2
REMARK    2  A    between atoms: O_2  and  C_3
REMARK    3  A    between atoms: C_5  and  C_6
REMARK    4  A    between atoms: C_9  and  O_10
REMARK    5  A    between atoms: O_10  and  C_11
REMARK    6  A    between atoms: C_13  and  C_14
REMARK    7  A    between atoms: C_17  and  C_18
REMARK    8  A    between atoms: N_19  and  O_20
REMARK    9  A    between atoms: N_21  and  C_22
REMARK                            x       y       z     vdW  Elec       q    Type
REMARK                         _______ _______ _______ _____ _____    ______ ____
ROOT
ATOM      1  C   UNL     1      -2.500  11.480  18.291  0.00  0.00    +0.000 A 
ATOM      2  N   UNL     1      -2.235  11.004  17.039  0.00  0.00    +0.000 NA
ATOM      3  C   UNL     1      -3.264  10.855  16.180  0.00  0.00    +0.000 A 
ATOM      4  C   UNL     1      -2.973  10.180  14.873  0.00  0.00    +0.000 C 
ATOM      5  C   UNL     1      -4.560  11.241  16.495  0.00  0.00    +0.000 A 
ATOM      6  C   UNL     1      -4.795  11.822  17.736  0.00  0.00    +0.000 A 
ATOM      7  C   UNL     1      -3.755  11.965  18.663  0.00  0.00    +0.000 A 
ENDROOT
BRANCH   7   8
ATOM      8  C   UNL     1      -4.072  12.640  19.975  0.00  0.00    +0.000 C 
ATOM      9  N   UNL     1      -5.105  12.138  20.604  0.00  0.00    +0.000 NA
ATOM     10  N   UNL     1      -3.356  13.778  20.319  0.00  0.00    +0.000 N 
ATOM     11  H   UNL     1      -2.828  14.228  19.579  0.00  0.00    +0.000 HD
BRANCH  10  12
ATOM     12  C   UNL     1      -2.818  14.089  21.589  0.00  0.00    +0.000 A 
ATOM     13  C   UNL     1      -3.037  15.310  22.238  0.00  0.00    +0.000 A 
ATOM     14  C   UNL     1      -2.475  15.572  23.493  0.00  0.00    +0.000 A 
ATOM     15  C   UNL     1      -1.664  14.623  24.109  0.00  0.00    +0.000 A 
ATOM     16  C   UNL     1      -1.407  13.416  23.465  0.00  0.00    +0.000 A 
ATOM     17  C   UNL     1      -1.976  13.155  22.215  0.00  0.00    +0.000 A 
ENDBRANCH  10  12
BRANCH   9  18
ATOM     18  O   UNL     1      -5.526  12.940  21.670  0.00  0.00    +0.000 OA
ATOM     19  H   UNL     1      -4.686  13.276  22.027  0.00  0.00    +0.000 HD
ENDBRANCH   9  18
ENDBRANCH   7   8
BRANCH   1  20
ATOM     20  O   UNL     1      -1.479  11.463  19.224  0.00  0.00    +0.000 OA
BRANCH  20  27
ATOM     21  C   UNL     1       0.946  11.317  18.686  0.00  0.00    +0.000 A 
ATOM     22  C   UNL     1       2.123  12.039  18.426  0.00  0.00    +0.000 A 
ATOM     23  C   UNL     1       2.140  13.441  18.447  0.00  0.00    +0.000 A 
ATOM     24  C   UNL     1       3.425  14.197  18.279  0.00  0.00    +0.000 C 
ATOM     25  C   UNL     1       0.943  14.128  18.673  0.00  0.00    +0.000 A 
ATOM     26  C   UNL     1      -0.244  13.425  18.883  0.00  0.00    +0.000 A 
ATOM     27  C   UNL     1      -0.258  12.024  18.884  0.00  0.00    +0.000 A 
BRANCH  21  29
ATOM     28  C   UNL     1       1.773   9.206  17.941  0.00  0.00    +0.000 C 
ATOM     29  O   UNL     1       0.911   9.950  18.788  0.00  0.00    +0.000 OA
ENDBRANCH  21  29
ENDBRANCH  20  27
ENDBRANCH   1  20
TORSDOF 6
ENDMDL
