MODEL 1
REMARK VINA RESULT:      -6.6      0.000      0.000
REMARK  Name = 
REMARK  7 active torsions:
REMARK  status: ('A' for Active; 'I' for Inactive)
REMARK    1  A    between atoms: C_1  and  O_2
REMARK    2  A    between atoms: O_2  and  C_3
REMARK    3  A    between atoms: C_3  and  C_5
REMARK    4  A    between atoms: N_12  and  C_13
REMARK    5  A    between atoms: C_13  and  C_14
REMARK    6  A    between atoms: N_16  and  C_17
REMARK    7  A    between atoms: N_16  and  C_18
REMARK                            x       y       z     vdW  Elec       q    Type
REMARK                         _______ _______ _______ _____ _____    ______ ____
ROOT
ATOM      1  C   UNL     1       3.128   4.376  17.621  0.00  0.00    +0.000 A 
ATOM      2  C   UNL     1       4.146   3.723  16.904  0.00  0.00    +0.000 A 
ATOM      3  C   UNL     1       5.203   4.617  16.852  0.00  0.00    +0.000 A 
ATOM      4  C   UNL     1       6.487   4.560  16.318  0.00  0.00    +0.000 A 
ATOM      5  C   UNL     1       7.124   5.767  16.584  0.00  0.00    +0.000 A 
ATOM      6  S   UNL     1       6.118   6.880  17.469  0.00  0.00    +0.000 S 
ATOM      7  C   UNL     1       4.885   5.757  17.471  0.00  0.00    +0.000 A 
ATOM      8  N   UNL     1       3.631   5.641  17.971  0.00  0.00    +0.000 N 
ENDROOT
BRANCH   1   9
ATOM      9  C   UNL     1       1.814   3.873  17.968  0.00  0.00    +0.000 C 
ATOM     10  O   UNL     1       0.790   4.013  17.309  0.00  0.00    +0.000 OA
BRANCH   9  12
ATOM     11  C   UNL     1       0.890   3.644  20.125  0.00  0.00    +0.000 C 
ATOM     12  O   UNL     1       1.870   3.234  19.173  0.00  0.00    +0.000 OA
ENDBRANCH   9  12
ENDBRANCH   1   9
BRANCH   8  13
ATOM     13  C   UNL     1       3.034   6.580  18.909  0.00  0.00    +0.000 C 
BRANCH  13  14
ATOM     14  C   UNL     1       2.554   7.878  18.275  0.00  0.00    +0.000 C 
ATOM     15  O   UNL     1       2.803   8.167  17.104  0.00  0.00    +0.000 OA
ATOM     16  N   UNL     1       1.805   8.731  19.116  0.00  0.00    +0.000 N 
ATOM     17  C   UNL     1       1.527   8.324  20.487  0.00  0.00    +0.000 C 
BRANCH  16  18
ATOM     18  C   UNL     1       0.960   9.754  18.447  0.00  0.00    +0.000 C 
ATOM     19  C   UNL     1      -0.491   9.868  18.951  0.00  0.00    +0.000 C 
ATOM     20  C   UNL     1      -0.679  10.707  20.216  0.00  0.00    +0.000 C 
ATOM     21  C   UNL     1       0.026  12.054  20.150  0.00  0.00    +0.000 C 
ATOM     22  C   UNL     1       1.471  11.953  19.670  0.00  0.00    +0.000 C 
ATOM     23  C   UNL     1       1.608  11.152  18.379  0.00  0.00    +0.000 C 
ENDBRANCH  16  18
ENDBRANCH  13  14
ENDBRANCH   8  13
TORSDOF 5
ENDMDL
MODEL 2
REMARK VINA RESULT:      -6.3      4.203      5.904
REMARK  Name = 
REMARK  7 active torsions:
REMARK  status: ('A' for Active; 'I' for Inactive)
REMARK    1  A    between atoms: C_1  and  O_2
REMARK    2  A    between atoms: O_2  and  C_3
REMARK    3  A    between atoms: C_3  and  C_5
REMARK    4  A    between atoms: N_12  and  C_13
REMARK    5  A    between atoms: C_13  and  C_14
REMARK    6  A    between atoms: N_16  and  C_17
REMARK    7  A    between atoms: N_16  and  C_18
REMARK                            x       y       z     vdW  Elec       q    Type
REMARK                         _______ _______ _______ _____ _____    ______ ____
ROOT
ATOM      1  C   UNL     1       7.209   4.900  16.132  0.00  0.00    +0.000 A 
ATOM      2  C   UNL     1       7.899   5.476  15.051  0.00  0.00    +0.000 A 
ATOM      3  C   UNL     1       7.358   4.905  13.910  0.00  0.00    +0.000 A 
ATOM      4  C   UNL     1       7.585   5.073  12.548  0.00  0.00    +0.000 A 
ATOM      5  C   UNL     1       6.721   4.233  11.854  0.00  0.00    +0.000 A 
ATOM      6  S   UNL     1       5.690   3.306  12.909  0.00  0.00    +0.000 S 
ATOM      7  C   UNL     1       6.407   4.024  14.233  0.00  0.00    +0.000 A 
ATOM      8  N   UNL     1       6.274   4.007  15.582  0.00  0.00    +0.000 N 
ENDROOT
BRANCH   1   9
ATOM      9  C   UNL     1       7.383   5.163  17.546  0.00  0.00    +0.000 C 
ATOM     10  O   UNL     1       7.796   4.369  18.382  0.00  0.00    +0.000 OA
BRANCH   9  12
ATOM     11  C   UNL     1       8.010   7.306  18.305  0.00  0.00    +0.000 C 
ATOM     12  O   UNL     1       6.983   6.438  17.829  0.00  0.00    +0.000 OA
ENDBRANCH   9  12
ENDBRANCH   1   9
BRANCH   8  13
ATOM     13  C   UNL     1       5.181   3.354  16.287  0.00  0.00    +0.000 C 
BRANCH  13  14
ATOM     14  C   UNL     1       4.286   4.305  17.069  0.00  0.00    +0.000 C 
ATOM     15  O   UNL     1       4.074   5.460  16.699  0.00  0.00    +0.000 OA
ATOM     16  N   UNL     1       3.714   3.778  18.249  0.00  0.00    +0.000 N 
ATOM     17  C   UNL     1       3.988   2.397  18.625  0.00  0.00    +0.000 C 
BRANCH  16  18
ATOM     18  C   UNL     1       2.521   4.483  18.785  0.00  0.00    +0.000 C 
ATOM     19  C   UNL     1       1.166   3.782  18.564  0.00  0.00    +0.000 C 
ATOM     20  C   UNL     1       0.827   2.684  19.574  0.00  0.00    +0.000 C 
ATOM     21  C   UNL     1       1.038   3.115  21.018  0.00  0.00    +0.000 C 
ATOM     22  C   UNL     1       2.384   3.792  21.254  0.00  0.00    +0.000 C 
ATOM     23  C   UNL     1       2.660   4.915  20.258  0.00  0.00    +0.000 C 
ENDBRANCH  16  18
ENDBRANCH  13  14
ENDBRANCH   8  13
TORSDOF 5
ENDMDL
MODEL 3
REMARK VINA RESULT:      -6.2      2.256      3.661
REMARK  Name = 
REMARK  7 active torsions:
REMARK  status: ('A' for Active; 'I' for Inactive)
REMARK    1  A    between atoms: C_1  and  O_2
REMARK    2  A    between atoms: O_2  and  C_3
REMARK    3  A    between atoms: C_3  and  C_5
REMARK    4  A    between atoms: N_12  and  C_13
REMARK    5  A    between atoms: C_13  and  C_14
REMARK    6  A    between atoms: N_16  and  C_17
REMARK    7  A    between atoms: N_16  and  C_18
REMARK                            x       y       z     vdW  Elec       q    Type
REMARK                         _______ _______ _______ _____ _____    ______ ____
ROOT
ATOM      1  C   UNL     1       4.542   4.579  18.846  0.00  0.00    +0.000 A 
ATOM      2  C   UNL     1       4.297   3.340  18.228  0.00  0.00    +0.000 A 
ATOM      3  C   UNL     1       2.973   3.037  18.503  0.00  0.00    +0.000 A 
ATOM      4  C   UNL     1       2.135   1.982  18.156  0.00  0.00    +0.000 A 
ATOM      5  C   UNL     1       0.882   2.220  18.710  0.00  0.00    +0.000 A 
ATOM      6  S   UNL     1       0.813   3.712  19.606  0.00  0.00    +0.000 S 
ATOM      7  C   UNL     1       2.418   3.995  19.249  0.00  0.00    +0.000 A 
ATOM      8  N   UNL     1       3.340   4.965  19.464  0.00  0.00    +0.000 N 
ENDROOT
BRANCH   1   9
ATOM      9  C   UNL     1       5.770   5.348  18.852  0.00  0.00    +0.000 C 
ATOM     10  O   UNL     1       6.570   5.422  19.777  0.00  0.00    +0.000 OA
BRANCH   9  12
ATOM     11  C   UNL     1       7.042   6.866  17.573  0.00  0.00    +0.000 C 
ATOM     12  O   UNL     1       5.898   6.020  17.671  0.00  0.00    +0.000 OA
ENDBRANCH   9  12
ENDBRANCH   1   9
BRANCH   8  13
ATOM     13  C   UNL     1       3.036   6.272  20.026  0.00  0.00    +0.000 C 
BRANCH  13  14
ATOM     14  C   UNL     1       2.601   7.309  19.000  0.00  0.00    +0.000 C 
ATOM     15  O   UNL     1       2.895   7.214  17.808  0.00  0.00    +0.000 OA
ATOM     16  N   UNL     1       1.841   8.388  19.502  0.00  0.00    +0.000 N 
ATOM     17  C   UNL     1       1.508   8.434  20.920  0.00  0.00    +0.000 C 
BRANCH  16  18
ATOM     18  C   UNL     1       1.037   9.155  18.515  0.00  0.00    +0.000 C 
ATOM     19  C   UNL     1      -0.327   9.673  19.010  0.00  0.00    +0.000 C 
ATOM     20  C   UNL     1      -0.279  10.976  19.810  0.00  0.00    +0.000 C 
ATOM     21  C   UNL     1       0.552  12.060  19.138  0.00  0.00    +0.000 C 
ATOM     22  C   UNL     1       1.914  11.564  18.661  0.00  0.00    +0.000 C 
ATOM     23  C   UNL     1       1.817  10.292  17.824  0.00  0.00    +0.000 C 
ENDBRANCH  16  18
ENDBRANCH  13  14
ENDBRANCH   8  13
TORSDOF 5
ENDMDL
MODEL 4
REMARK VINA RESULT:      -6.2      3.986      6.003
REMARK  Name = 
REMARK  7 active torsions:
REMARK  status: ('A' for Active; 'I' for Inactive)
REMARK    1  A    between atoms: C_1  and  O_2
REMARK    2  A    between atoms: O_2  and  C_3
REMARK    3  A    between atoms: C_3  and  C_5
REMARK    4  A    between atoms: N_12  and  C_13
REMARK    5  A    between atoms: C_13  and  C_14
REMARK    6  A    between atoms: N_16  and  C_17
REMARK    7  A    between atoms: N_16  and  C_18
REMARK                            x       y       z     vdW  Elec       q    Type
REMARK                         _______ _______ _______ _____ _____    ______ ____
ROOT
ATOM      1  C   UNL     1       7.338   6.510  17.264  0.00  0.00    +0.000 A 
ATOM      2  C   UNL     1       7.454   6.377  15.869  0.00  0.00    +0.000 A 
ATOM      3  C   UNL     1       6.662   5.293  15.527  0.00  0.00    +0.000 A 
ATOM      4  C   UNL     1       6.338   4.679  14.320  0.00  0.00    +0.000 A 
ATOM      5  C   UNL     1       5.469   3.626  14.586  0.00  0.00    +0.000 A 
ATOM      6  S   UNL     1       5.105   3.464  16.281  0.00  0.00    +0.000 S 
ATOM      7  C   UNL     1       6.094   4.764  16.614  0.00  0.00    +0.000 A 
ATOM      8  N   UNL     1       6.469   5.493  17.694  0.00  0.00    +0.000 N 
ENDROOT
BRANCH   1   9
ATOM      9  C   UNL     1       7.958   7.499  18.122  0.00  0.00    +0.000 C 
ATOM     10  O   UNL     1       8.625   7.268  19.124  0.00  0.00    +0.000 OA
BRANCH   9  12
ATOM     11  C   UNL     1       8.542   9.783  18.114  0.00  0.00    +0.000 C 
ATOM     12  O   UNL     1       7.662   8.752  17.669  0.00  0.00    +0.000 OA
ENDBRANCH   9  12
ENDBRANCH   1   9
BRANCH   8  13
ATOM     13  C   UNL     1       5.865   5.370  19.012  0.00  0.00    +0.000 C 
BRANCH  13  14
ATOM     14  C   UNL     1       4.378   5.694  19.052  0.00  0.00    +0.000 C 
ATOM     15  O   UNL     1       3.928   6.764  18.640  0.00  0.00    +0.000 OA
ATOM     16  N   UNL     1       3.546   4.689  19.593  0.00  0.00    +0.000 N 
ATOM     17  C   UNL     1       4.135   3.435  20.047  0.00  0.00    +0.000 C 
BRANCH  16  18
ATOM     18  C   UNL     1       2.101   4.762  19.252  0.00  0.00    +0.000 C 
ATOM     19  C   UNL     1       1.675   4.043  17.958  0.00  0.00    +0.000 C 
ATOM     20  C   UNL     1       1.447   2.536  18.094  0.00  0.00    +0.000 C 
ATOM     21  C   UNL     1       0.575   2.168  19.285  0.00  0.00    +0.000 C 
ATOM     22  C   UNL     1       0.999   2.859  20.577  0.00  0.00    +0.000 C 
ATOM     23  C   UNL     1       1.165   4.366  20.411  0.00  0.00    +0.000 C 
ENDBRANCH  16  18
ENDBRANCH  13  14
ENDBRANCH   8  13
TORSDOF 5
ENDMDL
MODEL 5
REMARK VINA RESULT:      -6.1      2.196      3.826
REMARK  Name = 
REMARK  7 active torsions:
REMARK  status: ('A' for Active; 'I' for Inactive)
REMARK    1  A    between atoms: C_1  and  O_2
REMARK    2  A    between atoms: O_2  and  C_3
REMARK    3  A    between atoms: C_3  and  C_5
REMARK    4  A    between atoms: N_12  and  C_13
REMARK    5  A    between atoms: C_13  and  C_14
REMARK    6  A    between atoms: N_16  and  C_17
REMARK    7  A    between atoms: N_16  and  C_18
REMARK                            x       y       z     vdW  Elec       q    Type
REMARK                         _______ _______ _______ _____ _____    ______ ____
ROOT
ATOM      1  C   UNL     1       4.402   5.418  17.060  0.00  0.00    +0.000 A 
ATOM      2  C   UNL     1       4.626   4.030  17.033  0.00  0.00    +0.000 A 
ATOM      3  C   UNL     1       3.530   3.459  17.661  0.00  0.00    +0.000 A 
ATOM      4  C   UNL     1       3.146   2.148  17.924  0.00  0.00    +0.000 A 
ATOM      5  C   UNL     1       1.920   2.176  18.579  0.00  0.00    +0.000 A 
ATOM      6  S   UNL     1       1.320   3.793  18.820  0.00  0.00    +0.000 S 
ATOM      7  C   UNL     1       2.680   4.404  18.070  0.00  0.00    +0.000 A 
ATOM      8  N   UNL     1       3.169   5.614  17.704  0.00  0.00    +0.000 N 
ENDROOT
BRANCH   1   9
ATOM      9  C   UNL     1       5.242   6.470  16.523  0.00  0.00    +0.000 C 
ATOM     10  O   UNL     1       5.336   6.786  15.344  0.00  0.00    +0.000 OA
BRANCH   9  12
ATOM     11  C   UNL     1       7.371   6.994  17.389  0.00  0.00    +0.000 C 
ATOM     12  O   UNL     1       5.953   7.051  17.534  0.00  0.00    +0.000 OA
ENDBRANCH   9  12
ENDBRANCH   1   9
BRANCH   8  13
ATOM     13  C   UNL     1       2.410   6.854  17.763  0.00  0.00    +0.000 C 
BRANCH  13  14
ATOM     14  C   UNL     1       2.230   7.412  19.168  0.00  0.00    +0.000 C 
ATOM     15  O   UNL     1       2.679   6.841  20.162  0.00  0.00    +0.000 OA
ATOM     16  N   UNL     1       1.513   8.625  19.259  0.00  0.00    +0.000 N 
ATOM     17  C   UNL     1       1.023   9.263  18.044  0.00  0.00    +0.000 C 
BRANCH  16  18
ATOM     18  C   UNL     1       1.693   9.416  20.505  0.00  0.00    +0.000 C 
ATOM     19  C   UNL     1       1.171  10.865  20.467  0.00  0.00    +0.000 C 
ATOM     20  C   UNL     1      -0.329  11.025  20.720  0.00  0.00    +0.000 C 
ATOM     21  C   UNL     1      -0.814  10.258  21.941  0.00  0.00    +0.000 C 
ATOM     22  C   UNL     1      -0.320   8.815  21.980  0.00  0.00    +0.000 C 
ATOM     23  C   UNL     1       1.187   8.704  21.775  0.00  0.00    +0.000 C 
ENDBRANCH  16  18
ENDBRANCH  13  14
ENDBRANCH   8  13
TORSDOF 5
ENDMDL
MODEL 6
REMARK VINA RESULT:      -6.1      1.001      1.130
REMARK  Name = 
REMARK  7 active torsions:
REMARK  status: ('A' for Active; 'I' for Inactive)
REMARK    1  A    between atoms: C_1  and  O_2
REMARK    2  A    between atoms: O_2  and  C_3
REMARK    3  A    between atoms: C_3  and  C_5
REMARK    4  A    between atoms: N_12  and  C_13
REMARK    5  A    between atoms: C_13  and  C_14
REMARK    6  A    between atoms: N_16  and  C_17
REMARK    7  A    between atoms: N_16  and  C_18
REMARK                            x       y       z     vdW  Elec       q    Type
REMARK                         _______ _______ _______ _____ _____    ______ ____
ROOT
ATOM      1  C   UNL     1       2.644   4.202  18.576  0.00  0.00    +0.000 A 
ATOM      2  C   UNL     1       3.339   3.453  17.611  0.00  0.00    +0.000 A 
ATOM      3  C   UNL     1       4.192   4.346  16.982  0.00  0.00    +0.000 A 
ATOM      4  C   UNL     1       5.145   4.222  15.976  0.00  0.00    +0.000 A 
ATOM      5  C   UNL     1       5.716   5.471  15.759  0.00  0.00    +0.000 A 
ATOM      6  S   UNL     1       5.057   6.703  16.799  0.00  0.00    +0.000 S 
ATOM      7  C   UNL     1       4.046   5.572  17.492  0.00  0.00    +0.000 A 
ATOM      8  N   UNL     1       3.122   5.520  18.482  0.00  0.00    +0.000 N 
ENDROOT
BRANCH   1   9
ATOM      9  C   UNL     1       1.641   3.741  19.515  0.00  0.00    +0.000 C 
ATOM     10  O   UNL     1       0.468   3.503  19.257  0.00  0.00    +0.000 OA
BRANCH   9  12
ATOM     11  C   UNL     1       1.537   2.724  21.639  0.00  0.00    +0.000 C 
ATOM     12  O   UNL     1       2.190   3.638  20.761  0.00  0.00    +0.000 OA
ENDBRANCH   9  12
ENDBRANCH   1   9
BRANCH   8  13
ATOM     13  C   UNL     1       2.874   6.601  19.425  0.00  0.00    +0.000 C 
BRANCH  13  14
ATOM     14  C   UNL     1       2.228   7.834  18.808  0.00  0.00    +0.000 C 
ATOM     15  O   UNL     1       2.266   8.057  17.598  0.00  0.00    +0.000 OA
ATOM     16  N   UNL     1       1.585   8.707  19.713  0.00  0.00    +0.000 N 
ATOM     17  C   UNL     1       1.558   8.378  21.133  0.00  0.00    +0.000 C 
BRANCH  16  18
ATOM     18  C   UNL     1       0.590   9.649  19.139  0.00  0.00    +0.000 C 
ATOM     19  C   UNL     1      -0.686   9.876  19.973  0.00  0.00    +0.000 C 
ATOM     20  C   UNL     1      -0.551  10.893  21.107  0.00  0.00    +0.000 C 
ATOM     21  C   UNL     1       0.103  12.195  20.669  0.00  0.00    +0.000 C 
ATOM     22  C   UNL     1       1.378  11.984  19.858  0.00  0.00    +0.000 C 
ATOM     23  C   UNL     1       1.187  11.002  18.706  0.00  0.00    +0.000 C 
ENDBRANCH  16  18
ENDBRANCH  13  14
ENDBRANCH   8  13
TORSDOF 5
ENDMDL
MODEL 7
REMARK VINA RESULT:      -6.0      3.312      6.197
REMARK  Name = 
REMARK  7 active torsions:
REMARK  status: ('A' for Active; 'I' for Inactive)
REMARK    1  A    between atoms: C_1  and  O_2
REMARK    2  A    between atoms: O_2  and  C_3
REMARK    3  A    between atoms: C_3  and  C_5
REMARK    4  A    between atoms: N_12  and  C_13
REMARK    5  A    between atoms: C_13  and  C_14
REMARK    6  A    between atoms: N_16  and  C_17
REMARK    7  A    between atoms: N_16  and  C_18
REMARK                            x       y       z     vdW  Elec       q    Type
REMARK                         _______ _______ _______ _____ _____    ______ ____
ROOT
ATOM      1  C   UNL     1       6.061   5.708  16.660  0.00  0.00    +0.000 A 
ATOM      2  C   UNL     1       5.755   7.063  16.879  0.00  0.00    +0.000 A 
ATOM      3  C   UNL     1       4.430   7.090  17.283  0.00  0.00    +0.000 A 
ATOM      4  C   UNL     1       3.561   8.105  17.670  0.00  0.00    +0.000 A 
ATOM      5  C   UNL     1       2.335   7.532  17.990  0.00  0.00    +0.000 A 
ATOM      6  S   UNL     1       2.331   5.801  17.804  0.00  0.00    +0.000 S 
ATOM      7  C   UNL     1       3.922   5.855  17.306  0.00  0.00    +0.000 A 
ATOM      8  N   UNL     1       4.894   4.981  16.950  0.00  0.00    +0.000 N 
ENDROOT
BRANCH   1   9
ATOM      9  C   UNL     1       7.322   5.134  16.237  0.00  0.00    +0.000 C 
ATOM     10  O   UNL     1       8.061   4.434  16.919  0.00  0.00    +0.000 OA
BRANCH   9  12
ATOM     11  C   UNL     1       6.956   4.742  13.941  0.00  0.00    +0.000 C 
ATOM     12  O   UNL     1       7.595   5.516  14.955  0.00  0.00    +0.000 OA
ENDBRANCH   9  12
ENDBRANCH   1   9
BRANCH   8  13
ATOM     13  C   UNL     1       4.788   3.536  17.092  0.00  0.00    +0.000 C 
BRANCH  13  14
ATOM     14  C   UNL     1       4.496   3.067  18.510  0.00  0.00    +0.000 C 
ATOM     15  O   UNL     1       5.249   3.317  19.451  0.00  0.00    +0.000 OA
ATOM     16  N   UNL     1       3.306   2.324  18.677  0.00  0.00    +0.000 N 
ATOM     17  C   UNL     1       2.446   2.076  17.527  0.00  0.00    +0.000 C 
BRANCH  16  18
ATOM     18  C   UNL     1       2.763   2.235  20.057  0.00  0.00    +0.000 C 
ATOM     19  C   UNL     1       3.182   3.361  21.023  0.00  0.00    +0.000 C 
ATOM     20  C   UNL     1       2.369   4.652  20.910  0.00  0.00    +0.000 C 
ATOM     21  C   UNL     1       0.867   4.414  20.903  0.00  0.00    +0.000 C 
ATOM     22  C   UNL     1       0.437   3.315  19.936  0.00  0.00    +0.000 C 
ATOM     23  C   UNL     1       1.236   2.028  20.116  0.00  0.00    +0.000 C 
ENDBRANCH  16  18
ENDBRANCH  13  14
ENDBRANCH   8  13
TORSDOF 5
ENDMDL
MODEL 8
REMARK VINA RESULT:      -6.0      3.816      5.932
REMARK  Name = 
REMARK  7 active torsions:
REMARK  status: ('A' for Active; 'I' for Inactive)
REMARK    1  A    between atoms: C_1  and  O_2
REMARK    2  A    between atoms: O_2  and  C_3
REMARK    3  A    between atoms: C_3  and  C_5
REMARK    4  A    between atoms: N_12  and  C_13
REMARK    5  A    between atoms: C_13  and  C_14
REMARK    6  A    between atoms: N_16  and  C_17
REMARK    7  A    between atoms: N_16  and  C_18
REMARK                            x       y       z     vdW  Elec       q    Type
REMARK                         _______ _______ _______ _____ _____    ______ ____
ROOT
ATOM      1  C   UNL     1       6.936   5.434  15.641  0.00  0.00    +0.000 A 
ATOM      2  C   UNL     1       7.807   5.176  14.568  0.00  0.00    +0.000 A 
ATOM      3  C   UNL     1       7.060   4.472  13.637  0.00  0.00    +0.000 A 
ATOM      4  C   UNL     1       7.332   3.960  12.372  0.00  0.00    +0.000 A 
ATOM      5  C   UNL     1       6.178   3.352  11.890  0.00  0.00    +0.000 A 
ATOM      6  S   UNL     1       4.845   3.455  13.006  0.00  0.00    +0.000 S 
ATOM      7  C   UNL     1       5.815   4.280  14.083  0.00  0.00    +0.000 A 
ATOM      8  N   UNL     1       5.696   4.871  15.297  0.00  0.00    +0.000 N 
ENDROOT
BRANCH   1   9
ATOM      9  C   UNL     1       7.217   6.152  16.868  0.00  0.00    +0.000 C 
ATOM     10  O   UNL     1       7.227   7.369  17.006  0.00  0.00    +0.000 OA
BRANCH   9  12
ATOM     11  C   UNL     1       6.943   5.571  19.137  0.00  0.00    +0.000 C 
ATOM     12  O   UNL     1       7.508   5.263  17.864  0.00  0.00    +0.000 OA
ENDBRANCH   9  12
ENDBRANCH   1   9
BRANCH   8  13
ATOM     13  C   UNL     1       4.429   5.080  15.983  0.00  0.00    +0.000 C 
BRANCH  13  14
ATOM     14  C   UNL     1       4.184   4.131  17.148  0.00  0.00    +0.000 C 
ATOM     15  O   UNL     1       4.666   2.999  17.183  0.00  0.00    +0.000 OA
ATOM     16  N   UNL     1       3.368   4.632  18.185  0.00  0.00    +0.000 N 
ATOM     17  C   UNL     1       2.842   5.989  18.095  0.00  0.00    +0.000 C 
BRANCH  16  18
ATOM     18  C   UNL     1       3.464   3.948  19.501  0.00  0.00    +0.000 C 
ATOM     19  C   UNL     1       2.713   4.617  20.668  0.00  0.00    +0.000 C 
ATOM     20  C   UNL     1       1.218   4.305  20.746  0.00  0.00    +0.000 C 
ATOM     21  C   UNL     1       0.910   2.820  20.624  0.00  0.00    +0.000 C 
ATOM     22  C   UNL     1       1.633   2.149  19.460  0.00  0.00    +0.000 C 
ATOM     23  C   UNL     1       3.129   2.444  19.449  0.00  0.00    +0.000 C 
ENDBRANCH  16  18
ENDBRANCH  13  14
ENDBRANCH   8  13
TORSDOF 5
ENDMDL
MODEL 9
REMARK VINA RESULT:      -5.9      4.629      6.339
REMARK  Name = 
REMARK  7 active torsions:
REMARK  status: ('A' for Active; 'I' for Inactive)
REMARK    1  A    between atoms: C_1  and  O_2
REMARK    2  A    between atoms: O_2  and  C_3
REMARK    3  A    between atoms: C_3  and  C_5
REMARK    4  A    between atoms: N_12  and  C_13
REMARK    5  A    between atoms: C_13  and  C_14
REMARK    6  A    between atoms: N_16  and  C_17
REMARK    7  A    between atoms: N_16  and  C_18
REMARK                            x       y       z     vdW  Elec       q    Type
REMARK                         _______ _______ _______ _____ _____    ______ ____
ROOT
ATOM      1  C   UNL     1       7.105   5.874  16.251  0.00  0.00    +0.000 A 
ATOM      2  C   UNL     1       7.813   5.710  15.047  0.00  0.00    +0.000 A 
ATOM      3  C   UNL     1       7.035   4.873  14.263  0.00  0.00    +0.000 A 
ATOM      4  C   UNL     1       7.167   4.363  12.975  0.00  0.00    +0.000 A 
ATOM      5  C   UNL     1       6.052   3.578  12.701  0.00  0.00    +0.000 A 
ATOM      6  S   UNL     1       4.923   3.523  14.026  0.00  0.00    +0.000 S 
ATOM      7  C   UNL     1       5.925   4.517  14.915  0.00  0.00    +0.000 A 
ATOM      8  N   UNL     1       5.923   5.124  16.126  0.00  0.00    +0.000 N 
ENDROOT
BRANCH   1   9
ATOM      9  C   UNL     1       7.476   6.666  17.406  0.00  0.00    +0.000 C 
ATOM     10  O   UNL     1       7.803   6.232  18.503  0.00  0.00    +0.000 OA
BRANCH   9  12
ATOM     11  C   UNL     1       8.135   8.866  17.940  0.00  0.00    +0.000 C 
ATOM     12  O   UNL     1       7.376   7.994  17.104  0.00  0.00    +0.000 OA
ENDBRANCH   9  12
ENDBRANCH   1   9
BRANCH   8  13
ATOM     13  C   UNL     1       4.771   5.170  17.016  0.00  0.00    +0.000 C 
BRANCH  13  14
ATOM     14  C   UNL     1       4.706   4.022  18.014  0.00  0.00    +0.000 C 
ATOM     15  O   UNL     1       5.601   3.814  18.833  0.00  0.00    +0.000 OA
ATOM     16  N   UNL     1       3.553   3.210  17.939  0.00  0.00    +0.000 N 
ATOM     17  C   UNL     1       2.518   3.518  16.960  0.00  0.00    +0.000 C 
BRANCH  16  18
ATOM     18  C   UNL     1       3.236   2.388  19.137  0.00  0.00    +0.000 C 
ATOM     19  C   UNL     1       3.496   3.055  20.502  0.00  0.00    +0.000 C 
ATOM     20  C   UNL     1       2.388   3.989  20.993  0.00  0.00    +0.000 C 
ATOM     21  C   UNL     1       1.000   3.373  20.894  0.00  0.00    +0.000 C 
ATOM     22  C   UNL     1       0.724   2.727  19.541  0.00  0.00    +0.000 C 
ATOM     23  C   UNL     1       1.827   1.765  19.112  0.00  0.00    +0.000 C 
ENDBRANCH  16  18
ENDBRANCH  13  14
ENDBRANCH   8  13
TORSDOF 5
ENDMDL
