MODEL 1
REMARK VINA RESULT:      -8.8      0.000      0.000
REMARK  Name = 
REMARK  8 active torsions:
REMARK  status: ('A' for Active; 'I' for Inactive)
REMARK    1  A    between atoms: C_1  and  C_2
REMARK    2  A    between atoms: C_2  and  C_3
REMARK    3  A    between atoms: C_2  and  C_4
REMARK    4  A    between atoms: C_2  and  N_29
REMARK    5  A    between atoms: C_4  and  N_5
REMARK    6  A    between atoms: C_6  and  C_8
REMARK    7  A    between atoms: C_16  and  C_17
REMARK    8  A    between atoms: C_25  and  C_26
REMARK                            x       y       z     vdW  Elec       q    Type
REMARK                         _______ _______ _______ _____ _____    ______ ____
ROOT
ATOM      1  C   UNL     1      -0.812  11.069  22.437  0.00  0.00    +0.000 A 
ATOM      2  C   UNL     1      -0.412   9.934  23.171  0.00  0.00    +0.000 A 
ATOM      3  N   UNL     1       0.359   9.105  22.479  0.00  0.00    +0.000 NA
ATOM      4  N   UNL     1       0.459   9.674  21.244  0.00  0.00    +0.000 N 
ATOM      5  C   UNL     1       1.170   9.001  20.179  0.00  0.00    +0.000 A 
ATOM      6  N   UNL     1       1.275   9.635  18.996  0.00  0.00    +0.000 NA
ATOM      7  C   UNL     1       1.961   9.001  18.035  0.00  0.00    +0.000 A 
ATOM      8  C   UNL     1       2.517   7.762  18.192  0.00  0.00    +0.000 A 
ATOM      9  C   UNL     1       2.321   7.143  19.412  0.00  0.00    +0.000 A 
ATOM     10  N   UNL     1       1.682   7.773  20.421  0.00  0.00    +0.000 NA
ATOM     11  C   UNL     1      -0.235  10.895  21.184  0.00  0.00    +0.000 A 
ENDROOT
BRANCH   9  12
ATOM     12  C   UNL     1       2.750   5.761  19.676  0.00  0.00    +0.000 A 
ATOM     13  C   UNL     1       1.920   4.850  20.354  0.00  0.00    +0.000 A 
ATOM     14  C   UNL     1       2.316   3.525  20.561  0.00  0.00    +0.000 A 
ATOM     15  C   UNL     1       3.549   3.080  20.101  0.00  0.00    +0.000 A 
ATOM     16  C   UNL     1       4.392   3.963  19.423  0.00  0.00    +0.000 A 
ATOM     17  C   UNL     1       3.990   5.280  19.222  0.00  0.00    +0.000 A 
ATOM     18  F   UNL     1       4.827   6.083  18.544  0.00  0.00    +0.000 F 
ENDBRANCH   9  12
BRANCH   1  20
ATOM     19  N   UNL     1      -2.937  11.854  23.161  0.00  0.00    +0.000 N 
ATOM     20  C   UNL     1      -1.606  12.141  23.018  0.00  0.00    +0.000 C 
ATOM     21  O   UNL     1      -1.117  13.229  23.292  0.00  0.00    +0.000 OA
ATOM     22  H   UNL     1      -3.180  10.899  22.974  0.00  0.00    +0.000 HD
BRANCH  19  23
ATOM     23  C   UNL     1      -3.789  12.652  24.028  0.00  0.00    +0.000 C 
BRANCH  23  25
ATOM     24  C   UNL     1      -6.222  12.512  24.361  0.00  0.00    +0.000 C 
ATOM     25  C   UNL     1      -5.155  13.154  23.421  0.00  0.00    +0.000 C 
ATOM     26  C   UNL     1      -5.214  14.674  23.664  0.00  0.00    +0.000 C 
BRANCH  25  27
ATOM     27  N   UNL     1      -5.407  12.686  22.016  0.00  0.00    +0.000 NA
ATOM     28  C   UNL     1      -4.920  13.489  20.880  0.00  0.00    +0.000 C 
ATOM     29  C   UNL     1      -5.796  14.678  20.477  0.00  0.00    +0.000 C 
ATOM     30  O   UNL     1      -7.118  14.250  20.158  0.00  0.00    +0.000 OA
ATOM     31  C   UNL     1      -7.689  13.511  21.245  0.00  0.00    +0.000 C 
ATOM     32  C   UNL     1      -6.802  12.320  21.656  0.00  0.00    +0.000 C 
ENDBRANCH  25  27
ENDBRANCH  23  25
ENDBRANCH  19  23
ENDBRANCH   1  20
BRANCH  11  33
ATOM     33  C   UNL     1      -0.301  11.791  19.938  0.00  0.00    +0.000 C 
ATOM     34  C   UNL     1      -1.510  11.684  19.036  0.00  0.00    +0.000 C 
ATOM     35  C   UNL     1      -1.219  12.964  19.738  0.00  0.00    +0.000 C 
ENDBRANCH  11  33
TORSDOF 6
ENDMDL
MODEL 2
REMARK VINA RESULT:      -8.7      1.642      2.302
REMARK  Name = 
REMARK  8 active torsions:
REMARK  status: ('A' for Active; 'I' for Inactive)
REMARK    1  A    between atoms: C_1  and  C_2
REMARK    2  A    between atoms: C_2  and  C_3
REMARK    3  A    between atoms: C_2  and  C_4
REMARK    4  A    between atoms: C_2  and  N_29
REMARK    5  A    between atoms: C_4  and  N_5
REMARK    6  A    between atoms: C_6  and  C_8
REMARK    7  A    between atoms: C_16  and  C_17
REMARK    8  A    between atoms: C_25  and  C_26
REMARK                            x       y       z     vdW  Elec       q    Type
REMARK                         _______ _______ _______ _____ _____    ______ ____
ROOT
ATOM      1  C   UNL     1      -0.475  10.891  22.377  0.00  0.00    +0.000 A 
ATOM      2  C   UNL     1      -0.035   9.772  23.110  0.00  0.00    +0.000 A 
ATOM      3  N   UNL     1       0.688   8.922  22.392  0.00  0.00    +0.000 NA
ATOM      4  N   UNL     1       0.713   9.462  21.140  0.00  0.00    +0.000 N 
ATOM      5  C   UNL     1       1.354   8.761  20.049  0.00  0.00    +0.000 A 
ATOM      6  N   UNL     1       1.387   9.366  18.847  0.00  0.00    +0.000 NA
ATOM      7  C   UNL     1       2.010   8.706  17.861  0.00  0.00    +0.000 A 
ATOM      8  C   UNL     1       2.570   7.468  18.011  0.00  0.00    +0.000 A 
ATOM      9  C   UNL     1       2.447   6.879  19.256  0.00  0.00    +0.000 A 
ATOM     10  N   UNL     1       1.875   7.536  20.288  0.00  0.00    +0.000 NA
ATOM     11  C   UNL     1       0.022  10.685  21.094  0.00  0.00    +0.000 A 
ENDROOT
BRANCH   9  12
ATOM     12  C   UNL     1       2.887   5.501  19.526  0.00  0.00    +0.000 A 
ATOM     13  C   UNL     1       4.163   5.050  19.147  0.00  0.00    +0.000 A 
ATOM     14  C   UNL     1       4.592   3.752  19.448  0.00  0.00    +0.000 A 
ATOM     15  C   UNL     1       3.754   2.876  20.127  0.00  0.00    +0.000 A 
ATOM     16  C   UNL     1       2.482   3.300  20.516  0.00  0.00    +0.000 A 
ATOM     17  C   UNL     1       2.064   4.592  20.213  0.00  0.00    +0.000 A 
ATOM     18  F   UNL     1       0.840   4.958  20.629  0.00  0.00    +0.000 F 
ENDBRANCH   9  12
BRANCH   1  20
ATOM     19  N   UNL     1      -2.588  11.828  22.939  0.00  0.00    +0.000 N 
ATOM     20  C   UNL     1      -1.228  11.980  22.980  0.00  0.00    +0.000 C 
ATOM     21  O   UNL     1      -0.673  12.976  23.428  0.00  0.00    +0.000 OA
ATOM     22  H   UNL     1      -2.898  10.929  22.619  0.00  0.00    +0.000 HD
BRANCH  19  23
ATOM     23  C   UNL     1      -3.460  12.624  23.788  0.00  0.00    +0.000 C 
BRANCH  23  25
ATOM     24  C   UNL     1      -4.739  12.740  21.690  0.00  0.00    +0.000 C 
ATOM     25  C   UNL     1      -4.592  13.454  23.070  0.00  0.00    +0.000 C 
ATOM     26  C   UNL     1      -5.896  13.184  23.844  0.00  0.00    +0.000 C 
BRANCH  25  27
ATOM     27  N   UNL     1      -4.235  14.893  22.832  0.00  0.00    +0.000 NA
ATOM     28  C   UNL     1      -3.220  15.545  23.680  0.00  0.00    +0.000 C 
ATOM     29  C   UNL     1      -3.709  16.050  25.040  0.00  0.00    +0.000 C 
ATOM     30  O   UNL     1      -4.786  16.973  24.882  0.00  0.00    +0.000 OA
ATOM     31  C   UNL     1      -5.847  16.388  24.117  0.00  0.00    +0.000 C 
ATOM     32  C   UNL     1      -5.352  15.871  22.752  0.00  0.00    +0.000 C 
ENDBRANCH  25  27
ENDBRANCH  23  25
ENDBRANCH  19  23
ENDBRANCH   1  20
BRANCH  11  33
ATOM     33  C   UNL     1      -0.119  11.551  19.834  0.00  0.00    +0.000 C 
ATOM     34  C   UNL     1      -1.423  11.505  19.069  0.00  0.00    +0.000 C 
ATOM     35  C   UNL     1      -0.974  12.780  19.694  0.00  0.00    +0.000 C 
ENDBRANCH  11  33
TORSDOF 6
ENDMDL
MODEL 3
REMARK VINA RESULT:      -8.7      1.459      2.033
REMARK  Name = 
REMARK  8 active torsions:
REMARK  status: ('A' for Active; 'I' for Inactive)
REMARK    1  A    between atoms: C_1  and  C_2
REMARK    2  A    between atoms: C_2  and  C_3
REMARK    3  A    between atoms: C_2  and  C_4
REMARK    4  A    between atoms: C_2  and  N_29
REMARK    5  A    between atoms: C_4  and  N_5
REMARK    6  A    between atoms: C_6  and  C_8
REMARK    7  A    between atoms: C_16  and  C_17
REMARK    8  A    between atoms: C_25  and  C_26
REMARK                            x       y       z     vdW  Elec       q    Type
REMARK                         _______ _______ _______ _____ _____    ______ ____
ROOT
ATOM      1  C   UNL     1      -0.464  10.921  22.351  0.00  0.00    +0.000 A 
ATOM      2  C   UNL     1      -0.031   9.801  23.089  0.00  0.00    +0.000 A 
ATOM      3  N   UNL     1       0.692   8.947  22.375  0.00  0.00    +0.000 NA
ATOM      4  N   UNL     1       0.724   9.484  21.122  0.00  0.00    +0.000 N 
ATOM      5  C   UNL     1       1.366   8.779  20.035  0.00  0.00    +0.000 A 
ATOM      6  N   UNL     1       1.406   9.381  18.832  0.00  0.00    +0.000 NA
ATOM      7  C   UNL     1       2.031   8.717  17.850  0.00  0.00    +0.000 A 
ATOM      8  C   UNL     1       2.585   7.477  18.005  0.00  0.00    +0.000 A 
ATOM      9  C   UNL     1       2.456   6.891  19.250  0.00  0.00    +0.000 A 
ATOM     10  N   UNL     1       1.882   7.552  20.278  0.00  0.00    +0.000 NA
ATOM     11  C   UNL     1       0.037  10.710  21.071  0.00  0.00    +0.000 A 
ENDROOT
BRANCH   9  12
ATOM     12  C   UNL     1       2.889   5.512  19.524  0.00  0.00    +0.000 A 
ATOM     13  C   UNL     1       2.006   4.557  20.057  0.00  0.00    +0.000 A 
ATOM     14  C   UNL     1       2.412   3.235  20.272  0.00  0.00    +0.000 A 
ATOM     15  C   UNL     1       3.708   2.840  19.964  0.00  0.00    +0.000 A 
ATOM     16  C   UNL     1       4.604   3.769  19.432  0.00  0.00    +0.000 A 
ATOM     17  C   UNL     1       4.192   5.081  19.222  0.00  0.00    +0.000 A 
ATOM     18  F   UNL     1       5.086   5.930  18.686  0.00  0.00    +0.000 F 
ENDBRANCH   9  12
BRANCH   1  20
ATOM     19  N   UNL     1      -2.574  11.854  22.929  0.00  0.00    +0.000 N 
ATOM     20  C   UNL     1      -1.215  12.013  22.949  0.00  0.00    +0.000 C 
ATOM     21  O   UNL     1      -0.660  13.019  23.376  0.00  0.00    +0.000 OA
ATOM     22  H   UNL     1      -2.883  10.948  22.627  0.00  0.00    +0.000 HD
BRANCH  19  23
ATOM     23  C   UNL     1      -3.439  12.656  23.779  0.00  0.00    +0.000 C 
BRANCH  23  25
ATOM     24  C   UNL     1      -4.705  12.789  21.674  0.00  0.00    +0.000 C 
ATOM     25  C   UNL     1      -4.571  13.488  23.062  0.00  0.00    +0.000 C 
ATOM     26  C   UNL     1      -5.878  13.203  23.825  0.00  0.00    +0.000 C 
BRANCH  25  27
ATOM     27  N   UNL     1      -4.219  14.932  22.843  0.00  0.00    +0.000 NA
ATOM     28  C   UNL     1      -3.151  15.555  23.645  0.00  0.00    +0.000 C 
ATOM     29  C   UNL     1      -3.554  16.025  25.045  0.00  0.00    +0.000 C 
ATOM     30  O   UNL     1      -4.632  16.957  24.977  0.00  0.00    +0.000 OA
ATOM     31  C   UNL     1      -5.741  16.399  24.262  0.00  0.00    +0.000 C 
ATOM     32  C   UNL     1      -5.332  15.917  22.856  0.00  0.00    +0.000 C 
ENDBRANCH  25  27
ENDBRANCH  23  25
ENDBRANCH  19  23
ENDBRANCH   1  20
BRANCH  11  33
ATOM     33  C   UNL     1      -0.095  11.575  19.809  0.00  0.00    +0.000 C 
ATOM     34  C   UNL     1      -1.389  11.518  19.028  0.00  0.00    +0.000 C 
ATOM     35  C   UNL     1      -0.957  12.797  19.658  0.00  0.00    +0.000 C 
ENDBRANCH  11  33
TORSDOF 6
ENDMDL
MODEL 4
REMARK VINA RESULT:      -8.7      1.304      1.927
REMARK  Name = 
REMARK  8 active torsions:
REMARK  status: ('A' for Active; 'I' for Inactive)
REMARK    1  A    between atoms: C_1  and  C_2
REMARK    2  A    between atoms: C_2  and  C_3
REMARK    3  A    between atoms: C_2  and  C_4
REMARK    4  A    between atoms: C_2  and  N_29
REMARK    5  A    between atoms: C_4  and  N_5
REMARK    6  A    between atoms: C_6  and  C_8
REMARK    7  A    between atoms: C_16  and  C_17
REMARK    8  A    between atoms: C_25  and  C_26
REMARK                            x       y       z     vdW  Elec       q    Type
REMARK                         _______ _______ _______ _____ _____    ______ ____
ROOT
ATOM      1  C   UNL     1      -0.824  11.111  22.487  0.00  0.00    +0.000 A 
ATOM      2  C   UNL     1      -0.429   9.974  23.219  0.00  0.00    +0.000 A 
ATOM      3  N   UNL     1       0.329   9.136  22.523  0.00  0.00    +0.000 NA
ATOM      4  N   UNL     1       0.424   9.702  21.286  0.00  0.00    +0.000 N 
ATOM      5  C   UNL     1       1.120   9.021  20.217  0.00  0.00    +0.000 A 
ATOM      6  N   UNL     1       1.221   9.651  19.031  0.00  0.00    +0.000 NA
ATOM      7  C   UNL     1       1.894   9.009  18.067  0.00  0.00    +0.000 A 
ATOM      8  C   UNL     1       2.440   7.765  18.221  0.00  0.00    +0.000 A 
ATOM      9  C   UNL     1       2.247   7.150  19.445  0.00  0.00    +0.000 A 
ATOM     10  N   UNL     1       1.623   7.788  20.457  0.00  0.00    +0.000 NA
ATOM     11  C   UNL     1      -0.259  10.929  21.229  0.00  0.00    +0.000 A 
ENDROOT
BRANCH   9  12
ATOM     12  C   UNL     1       2.666   5.765  19.708  0.00  0.00    +0.000 A 
ATOM     13  C   UNL     1       1.843   4.870  20.414  0.00  0.00    +0.000 A 
ATOM     14  C   UNL     1       2.228   3.541  20.621  0.00  0.00    +0.000 A 
ATOM     15  C   UNL     1       3.442   3.078  20.131  0.00  0.00    +0.000 A 
ATOM     16  C   UNL     1       4.278   3.945  19.425  0.00  0.00    +0.000 A 
ATOM     17  C   UNL     1       3.888   5.265  19.224  0.00  0.00    +0.000 A 
ATOM     18  F   UNL     1       4.716   6.053  18.518  0.00  0.00    +0.000 F 
ENDBRANCH   9  12
BRANCH   1  20
ATOM     19  N   UNL     1      -2.961  12.013  23.017  0.00  0.00    +0.000 N 
ATOM     20  C   UNL     1      -1.605  12.190  23.072  0.00  0.00    +0.000 C 
ATOM     21  O   UNL     1      -1.074  13.201  23.516  0.00  0.00    +0.000 OA
ATOM     22  H   UNL     1      -3.249  11.105  22.703  0.00  0.00    +0.000 HD
BRANCH  19  23
ATOM     23  C   UNL     1      -3.856  12.799  23.849  0.00  0.00    +0.000 C 
BRANCH  23  25
ATOM     24  C   UNL     1      -5.126  12.710  21.744  0.00  0.00    +0.000 C 
ATOM     25  C   UNL     1      -5.158  13.364  23.161  0.00  0.00    +0.000 C 
ATOM     26  C   UNL     1      -6.356  12.742  23.903  0.00  0.00    +0.000 C 
BRANCH  25  27
ATOM     27  N   UNL     1      -5.165  14.857  23.002  0.00  0.00    +0.000 NA
ATOM     28  C   UNL     1      -4.470  15.474  21.858  0.00  0.00    +0.000 C 
ATOM     29  C   UNL     1      -2.957  15.651  22.010  0.00  0.00    +0.000 C 
ATOM     30  O   UNL     1      -2.650  16.432  23.164  0.00  0.00    +0.000 OA
ATOM     31  C   UNL     1      -3.241  15.858  24.337  0.00  0.00    +0.000 C 
ATOM     32  C   UNL     1      -4.763  15.672  24.179  0.00  0.00    +0.000 C 
ENDBRANCH  25  27
ENDBRANCH  23  25
ENDBRANCH  19  23
ENDBRANCH   1  20
BRANCH  11  33
ATOM     33  C   UNL     1      -0.328  11.823  19.982  0.00  0.00    +0.000 C 
ATOM     34  C   UNL     1      -1.586  11.796  19.144  0.00  0.00    +0.000 C 
ATOM     35  C   UNL     1      -1.171  13.056  19.821  0.00  0.00    +0.000 C 
ENDBRANCH  11  33
TORSDOF 6
ENDMDL
MODEL 5
REMARK VINA RESULT:      -8.6      2.175      3.903
REMARK  Name = 
REMARK  8 active torsions:
REMARK  status: ('A' for Active; 'I' for Inactive)
REMARK    1  A    between atoms: C_1  and  C_2
REMARK    2  A    between atoms: C_2  and  C_3
REMARK    3  A    between atoms: C_2  and  C_4
REMARK    4  A    between atoms: C_2  and  N_29
REMARK    5  A    between atoms: C_4  and  N_5
REMARK    6  A    between atoms: C_6  and  C_8
REMARK    7  A    between atoms: C_16  and  C_17
REMARK    8  A    between atoms: C_25  and  C_26
REMARK                            x       y       z     vdW  Elec       q    Type
REMARK                         _______ _______ _______ _____ _____    ______ ____
ROOT
ATOM      1  C   UNL     1       0.711  10.463  19.329  0.00  0.00    +0.000 A 
ATOM      2  C   UNL     1       1.529  10.386  18.184  0.00  0.00    +0.000 A 
ATOM      3  N   UNL     1       2.154   9.222  18.060  0.00  0.00    +0.000 NA
ATOM      4  N   UNL     1       1.775   8.507  19.158  0.00  0.00    +0.000 N 
ATOM      5  C   UNL     1       2.329   7.195  19.409  0.00  0.00    +0.000 A 
ATOM      6  N   UNL     1       1.881   6.519  20.484  0.00  0.00    +0.000 NA
ATOM      7  C   UNL     1       2.391   5.295  20.678  0.00  0.00    +0.000 A 
ATOM      8  C   UNL     1       3.341   4.732  19.872  0.00  0.00    +0.000 A 
ATOM      9  C   UNL     1       3.801   5.505  18.821  0.00  0.00    +0.000 A 
ATOM     10  N   UNL     1       3.271   6.720  18.563  0.00  0.00    +0.000 NA
ATOM     11  C   UNL     1       0.872   9.231  19.956  0.00  0.00    +0.000 A 
ENDROOT
BRANCH   9  12
ATOM     12  C   UNL     1       4.910   5.081  17.954  0.00  0.00    +0.000 A 
ATOM     13  C   UNL     1       4.688   4.657  16.632  0.00  0.00    +0.000 A 
ATOM     14  C   UNL     1       5.752   4.299  15.797  0.00  0.00    +0.000 A 
ATOM     15  C   UNL     1       7.060   4.351  16.266  0.00  0.00    +0.000 A 
ATOM     16  C   UNL     1       7.308   4.769  17.574  0.00  0.00    +0.000 A 
ATOM     17  C   UNL     1       6.243   5.123  18.398  0.00  0.00    +0.000 A 
ATOM     18  F   UNL     1       6.537   5.541  19.640  0.00  0.00    +0.000 F 
ENDBRANCH   9  12
BRANCH   1  20
ATOM     19  N   UNL     1       0.222  12.284  20.779  0.00  0.00    +0.000 N 
ATOM     20  C   UNL     1      -0.115  11.622  19.629  0.00  0.00    +0.000 C 
ATOM     21  O   UNL     1      -1.071  11.930  18.928  0.00  0.00    +0.000 OA
ATOM     22  H   UNL     1       1.074  11.971  21.205  0.00  0.00    +0.000 HD
BRANCH  19  23
ATOM     23  C   UNL     1      -0.254  13.633  21.037  0.00  0.00    +0.000 C 
BRANCH  23  25
ATOM     24  C   UNL     1      -0.941  14.033  23.365  0.00  0.00    +0.000 C 
ATOM     25  C   UNL     1      -1.535  13.777  21.945  0.00  0.00    +0.000 C 
ATOM     26  C   UNL     1      -2.233  15.083  21.520  0.00  0.00    +0.000 C 
BRANCH  25  27
ATOM     27  N   UNL     1      -2.389  12.542  21.995  0.00  0.00    +0.000 NA
ATOM     28  C   UNL     1      -3.634  12.481  21.209  0.00  0.00    +0.000 C 
ATOM     29  C   UNL     1      -4.853  13.164  21.833  0.00  0.00    +0.000 C 
ATOM     30  O   UNL     1      -5.138  12.618  23.120  0.00  0.00    +0.000 OA
ATOM     31  C   UNL     1      -3.987  12.698  23.971  0.00  0.00    +0.000 C 
ATOM     32  C   UNL     1      -2.758  12.019  23.337  0.00  0.00    +0.000 C 
ENDBRANCH  25  27
ENDBRANCH  23  25
ENDBRANCH  19  23
ENDBRANCH   1  20
BRANCH  11  33
ATOM     33  C   UNL     1       0.245   8.699  21.253  0.00  0.00    +0.000 C 
ATOM     34  C   UNL     1       0.837   9.137  22.573  0.00  0.00    +0.000 C 
ATOM     35  C   UNL     1      -0.569   9.494  22.235  0.00  0.00    +0.000 C 
ENDBRANCH  11  33
TORSDOF 6
ENDMDL
MODEL 6
REMARK VINA RESULT:      -8.6      3.968      6.048
REMARK  Name = 
REMARK  8 active torsions:
REMARK  status: ('A' for Active; 'I' for Inactive)
REMARK    1  A    between atoms: C_1  and  C_2
REMARK    2  A    between atoms: C_2  and  C_3
REMARK    3  A    between atoms: C_2  and  C_4
REMARK    4  A    between atoms: C_2  and  N_29
REMARK    5  A    between atoms: C_4  and  N_5
REMARK    6  A    between atoms: C_6  and  C_8
REMARK    7  A    between atoms: C_16  and  C_17
REMARK    8  A    between atoms: C_25  and  C_26
REMARK                            x       y       z     vdW  Elec       q    Type
REMARK                         _______ _______ _______ _____ _____    ______ ____
ROOT
ATOM      1  C   UNL     1       0.960  10.374  19.332  0.00  0.00    +0.000 A 
ATOM      2  C   UNL     1       1.636  10.403  18.096  0.00  0.00    +0.000 A 
ATOM      3  N   UNL     1       2.250   9.263  17.804  0.00  0.00    +0.000 NA
ATOM      4  N   UNL     1       2.010   8.456  18.877  0.00  0.00    +0.000 N 
ATOM      5  C   UNL     1       2.598   7.137  18.953  0.00  0.00    +0.000 A 
ATOM      6  N   UNL     1       2.286   6.370  20.014  0.00  0.00    +0.000 NA
ATOM      7  C   UNL     1       2.825   5.143  20.045  0.00  0.00    +0.000 A 
ATOM      8  C   UNL     1       3.676   4.662  19.090  0.00  0.00    +0.000 A 
ATOM      9  C   UNL     1       4.001   5.525  18.059  0.00  0.00    +0.000 A 
ATOM     10  N   UNL     1       3.436   6.747  17.965  0.00  0.00    +0.000 NA
ATOM     11  C   UNL     1       1.203   9.098  19.833  0.00  0.00    +0.000 A 
ENDROOT
BRANCH   9  12
ATOM     12  C   UNL     1       5.002   5.190  17.034  0.00  0.00    +0.000 A 
ATOM     13  C   UNL     1       4.701   4.323  15.969  0.00  0.00    +0.000 A 
ATOM     14  C   UNL     1       5.643   4.045  14.973  0.00  0.00    +0.000 A 
ATOM     15  C   UNL     1       6.906   4.622  15.020  0.00  0.00    +0.000 A 
ATOM     16  C   UNL     1       7.230   5.488  16.066  0.00  0.00    +0.000 A 
ATOM     17  C   UNL     1       6.287   5.759  17.053  0.00  0.00    +0.000 A 
ATOM     18  F   UNL     1       6.640   6.617  18.025  0.00  0.00    +0.000 F 
ENDBRANCH   9  12
BRANCH   1  20
ATOM     19  N   UNL     1       0.864  12.406  20.564  0.00  0.00    +0.000 N 
ATOM     20  C   UNL     1       0.168  11.491  19.821  0.00  0.00    +0.000 C 
ATOM     21  O   UNL     1      -1.040  11.558  19.627  0.00  0.00    +0.000 OA
ATOM     22  H   UNL     1       1.858  12.268  20.570  0.00  0.00    +0.000 HD
BRANCH  19  23
ATOM     23  C   UNL     1       0.326  13.731  20.822  0.00  0.00    +0.000 C 
BRANCH  23  25
ATOM     24  C   UNL     1       0.001  14.943  18.706  0.00  0.00    +0.000 C 
ATOM     25  C   UNL     1       0.916  14.920  19.971  0.00  0.00    +0.000 C 
ATOM     26  C   UNL     1       0.615  16.214  20.751  0.00  0.00    +0.000 C 
BRANCH  25  27
ATOM     27  N   UNL     1       2.337  14.711  19.534  0.00  0.00    +0.000 NA
ATOM     28  C   UNL     1       3.439  15.273  20.336  0.00  0.00    +0.000 C 
ATOM     29  C   UNL     1       3.747  16.754  20.103  0.00  0.00    +0.000 C 
ATOM     30  O   UNL     1       4.052  17.000  18.731  0.00  0.00    +0.000 OA
ATOM     31  C   UNL     1       2.993  16.536  17.884  0.00  0.00    +0.000 C 
ATOM     32  C   UNL     1       2.677  15.047  18.126  0.00  0.00    +0.000 C 
ENDBRANCH  25  27
ENDBRANCH  23  25
ENDBRANCH  19  23
ENDBRANCH   1  20
BRANCH  11  33
ATOM     33  C   UNL     1       0.739   8.453  21.147  0.00  0.00    +0.000 C 
ATOM     34  C   UNL     1       1.139   9.105  22.451  0.00  0.00    +0.000 C 
ATOM     35  C   UNL     1      -0.301   9.001  22.084  0.00  0.00    +0.000 C 
ENDBRANCH  11  33
TORSDOF 6
ENDMDL
MODEL 7
REMARK VINA RESULT:      -8.5      0.904      1.478
REMARK  Name = 
REMARK  8 active torsions:
REMARK  status: ('A' for Active; 'I' for Inactive)
REMARK    1  A    between atoms: C_1  and  C_2
REMARK    2  A    between atoms: C_2  and  C_3
REMARK    3  A    between atoms: C_2  and  C_4
REMARK    4  A    between atoms: C_2  and  N_29
REMARK    5  A    between atoms: C_4  and  N_5
REMARK    6  A    between atoms: C_6  and  C_8
REMARK    7  A    between atoms: C_16  and  C_17
REMARK    8  A    between atoms: C_25  and  C_26
REMARK                            x       y       z     vdW  Elec       q    Type
REMARK                         _______ _______ _______ _____ _____    ______ ____
ROOT
ATOM      1  C   UNL     1      -0.430  10.925  22.312  0.00  0.00    +0.000 A 
ATOM      2  C   UNL     1      -0.072   9.775  23.043  0.00  0.00    +0.000 A 
ATOM      3  N   UNL     1       0.627   8.896  22.336  0.00  0.00    +0.000 NA
ATOM      4  N   UNL     1       0.718   9.447  21.092  0.00  0.00    +0.000 N 
ATOM      5  C   UNL     1       1.352   8.726  20.011  0.00  0.00    +0.000 A 
ATOM      6  N   UNL     1       1.453   9.342  18.818  0.00  0.00    +0.000 NA
ATOM      7  C   UNL     1       2.069   8.661  17.842  0.00  0.00    +0.000 A 
ATOM      8  C   UNL     1       2.558   7.393  17.993  0.00  0.00    +0.000 A 
ATOM      9  C   UNL     1       2.367   6.797  19.226  0.00  0.00    +0.000 A 
ATOM     10  N   UNL     1       1.800   7.472  20.249  0.00  0.00    +0.000 NA
ATOM     11  C   UNL     1       0.094  10.706  21.041  0.00  0.00    +0.000 A 
ENDROOT
BRANCH   9  12
ATOM     12  C   UNL     1       2.724   5.395  19.490  0.00  0.00    +0.000 A 
ATOM     13  C   UNL     1       1.747   4.434  19.803  0.00  0.00    +0.000 A 
ATOM     14  C   UNL     1       2.089   3.093  20.007  0.00  0.00    +0.000 A 
ATOM     15  C   UNL     1       3.413   2.683  19.910  0.00  0.00    +0.000 A 
ATOM     16  C   UNL     1       4.403   3.617  19.600  0.00  0.00    +0.000 A 
ATOM     17  C   UNL     1       4.055   4.949  19.398  0.00  0.00    +0.000 A 
ATOM     18  F   UNL     1       5.041   5.803  19.079  0.00  0.00    +0.000 F 
ENDBRANCH   9  12
BRANCH   1  20
ATOM     19  N   UNL     1      -2.506  11.949  22.857  0.00  0.00    +0.000 N 
ATOM     20  C   UNL     1      -1.141  12.045  22.907  0.00  0.00    +0.000 C 
ATOM     21  O   UNL     1      -0.549  13.019  23.355  0.00  0.00    +0.000 OA
ATOM     22  H   UNL     1      -2.850  11.063  22.538  0.00  0.00    +0.000 HD
BRANCH  19  23
ATOM     23  C   UNL     1      -3.349  12.782  23.698  0.00  0.00    +0.000 C 
BRANCH  23  25
ATOM     24  C   UNL     1      -3.226  15.208  23.306  0.00  0.00    +0.000 C 
ATOM     25  C   UNL     1      -4.116  13.965  22.991  0.00  0.00    +0.000 C 
ATOM     26  C   UNL     1      -4.004  13.720  21.474  0.00  0.00    +0.000 C 
BRANCH  25  27
ATOM     27  N   UNL     1      -5.495  14.209  23.535  0.00  0.00    +0.000 NA
ATOM     28  C   UNL     1      -6.399  13.070  23.771  0.00  0.00    +0.000 C 
ATOM     29  C   UNL     1      -7.144  12.541  22.543  0.00  0.00    +0.000 C 
ATOM     30  O   UNL     1      -7.914  13.574  21.932  0.00  0.00    +0.000 OA
ATOM     31  C   UNL     1      -7.088  14.700  21.611  0.00  0.00    +0.000 C 
ATOM     32  C   UNL     1      -6.332  15.226  22.846  0.00  0.00    +0.000 C 
ENDBRANCH  25  27
ENDBRANCH  23  25
ENDBRANCH  19  23
ENDBRANCH   1  20
BRANCH  11  33
ATOM     33  C   UNL     1       0.037  11.593  19.789  0.00  0.00    +0.000 C 
ATOM     34  C   UNL     1      -1.271  11.696  19.037  0.00  0.00    +0.000 C 
ATOM     35  C   UNL     1      -0.680  12.909  19.667  0.00  0.00    +0.000 C 
ENDBRANCH  11  33
TORSDOF 6
ENDMDL
MODEL 8
REMARK VINA RESULT:      -8.5      2.273      3.914
REMARK  Name = 
REMARK  8 active torsions:
REMARK  status: ('A' for Active; 'I' for Inactive)
REMARK    1  A    between atoms: C_1  and  C_2
REMARK    2  A    between atoms: C_2  and  C_3
REMARK    3  A    between atoms: C_2  and  C_4
REMARK    4  A    between atoms: C_2  and  N_29
REMARK    5  A    between atoms: C_4  and  N_5
REMARK    6  A    between atoms: C_6  and  C_8
REMARK    7  A    between atoms: C_16  and  C_17
REMARK    8  A    between atoms: C_25  and  C_26
REMARK                            x       y       z     vdW  Elec       q    Type
REMARK                         _______ _______ _______ _____ _____    ______ ____
ROOT
ATOM      1  C   UNL     1       0.352  10.569  19.331  0.00  0.00    +0.000 A 
ATOM      2  C   UNL     1       1.081  10.553  18.125  0.00  0.00    +0.000 A 
ATOM      3  N   UNL     1       1.788   9.444  17.952  0.00  0.00    +0.000 NA
ATOM      4  N   UNL     1       1.557   8.707  19.076  0.00  0.00    +0.000 N 
ATOM      5  C   UNL     1       2.236   7.447  19.281  0.00  0.00    +0.000 A 
ATOM      6  N   UNL     1       1.931   6.743  20.388  0.00  0.00    +0.000 NA
ATOM      7  C   UNL     1       2.555   5.566  20.540  0.00  0.00    +0.000 A 
ATOM      8  C   UNL     1       3.482   5.079  19.662  0.00  0.00    +0.000 A 
ATOM      9  C   UNL     1       3.792   5.881  18.578  0.00  0.00    +0.000 A 
ATOM     10  N   UNL     1       3.144   7.046  18.363  0.00  0.00    +0.000 NA
ATOM     11  C   UNL     1       0.663   9.359  19.943  0.00  0.00    +0.000 A 
ENDROOT
BRANCH   9  12
ATOM     12  C   UNL     1       4.860   5.544  17.625  0.00  0.00    +0.000 A 
ATOM     13  C   UNL     1       6.098   6.210  17.644  0.00  0.00    +0.000 A 
ATOM     14  C   UNL     1       7.126   5.853  16.765  0.00  0.00    +0.000 A 
ATOM     15  C   UNL     1       6.940   4.828  15.846  0.00  0.00    +0.000 A 
ATOM     16  C   UNL     1       5.720   4.150  15.807  0.00  0.00    +0.000 A 
ATOM     17  C   UNL     1       4.703   4.511  16.685  0.00  0.00    +0.000 A 
ATOM     18  F   UNL     1       3.557   3.812  16.623  0.00  0.00    +0.000 F 
ENDBRANCH   9  12
BRANCH   1  20
ATOM     19  N   UNL     1      -0.115  12.420  20.750  0.00  0.00    +0.000 N 
ATOM     20  C   UNL     1      -0.541  11.658  19.696  0.00  0.00    +0.000 C 
ATOM     21  O   UNL     1      -1.616  11.826  19.133  0.00  0.00    +0.000 OA
ATOM     22  H   UNL     1       0.818  12.221  21.058  0.00  0.00    +0.000 HD
BRANCH  19  23
ATOM     23  C   UNL     1      -0.690  13.729  21.012  0.00  0.00    +0.000 C 
BRANCH  23  25
ATOM     24  C   UNL     1      -1.020  13.918  23.443  0.00  0.00    +0.000 C 
ATOM     25  C   UNL     1      -1.821  13.806  22.108  0.00  0.00    +0.000 C 
ATOM     26  C   UNL     1      -2.535  15.157  21.912  0.00  0.00    +0.000 C 
BRANCH  25  27
ATOM     27  N   UNL     1      -2.693  12.585  22.170  0.00  0.00    +0.000 NA
ATOM     28  C   UNL     1      -4.014  12.596  21.515  0.00  0.00    +0.000 C 
ATOM     29  C   UNL     1      -5.147  13.257  22.304  0.00  0.00    +0.000 C 
ATOM     30  O   UNL     1      -5.310  12.635  23.577  0.00  0.00    +0.000 OA
ATOM     31  C   UNL     1      -4.077  12.642  24.307  0.00  0.00    +0.000 C 
ATOM     32  C   UNL     1      -2.935  11.984  23.508  0.00  0.00    +0.000 C 
ENDBRANCH  25  27
ENDBRANCH  23  25
ENDBRANCH  19  23
ENDBRANCH   1  20
BRANCH  11  33
ATOM     33  C   UNL     1       0.186   8.785  21.285  0.00  0.00    +0.000 C 
ATOM     34  C   UNL     1       0.907   9.205  22.546  0.00  0.00    +0.000 C 
ATOM     35  C   UNL     1      -0.533   9.540  22.367  0.00  0.00    +0.000 C 
ENDBRANCH  11  33
TORSDOF 6
ENDMDL
MODEL 9
REMARK VINA RESULT:      -8.5      3.839      5.901
REMARK  Name = 
REMARK  8 active torsions:
REMARK  status: ('A' for Active; 'I' for Inactive)
REMARK    1  A    between atoms: C_1  and  C_2
REMARK    2  A    between atoms: C_2  and  C_3
REMARK    3  A    between atoms: C_2  and  C_4
REMARK    4  A    between atoms: C_2  and  N_29
REMARK    5  A    between atoms: C_4  and  N_5
REMARK    6  A    between atoms: C_6  and  C_8
REMARK    7  A    between atoms: C_16  and  C_17
REMARK    8  A    between atoms: C_25  and  C_26
REMARK                            x       y       z     vdW  Elec       q    Type
REMARK                         _______ _______ _______ _____ _____    ______ ____
ROOT
ATOM      1  C   UNL     1       0.764  10.545  19.536  0.00  0.00    +0.000 A 
ATOM      2  C   UNL     1       1.483  10.562  18.325  0.00  0.00    +0.000 A 
ATOM      3  N   UNL     1       2.095   9.414  18.059  0.00  0.00    +0.000 NA
ATOM      4  N   UNL     1       1.809   8.615  19.127  0.00  0.00    +0.000 N 
ATOM      5  C   UNL     1       2.382   7.291  19.229  0.00  0.00    +0.000 A 
ATOM      6  N   UNL     1       2.025   6.532  20.282  0.00  0.00    +0.000 NA
ATOM      7  C   UNL     1       2.550   5.300  20.338  0.00  0.00    +0.000 A 
ATOM      8  C   UNL     1       3.429   4.807  19.414  0.00  0.00    +0.000 A 
ATOM      9  C   UNL     1       3.799   5.661  18.391  0.00  0.00    +0.000 A 
ATOM     10  N   UNL     1       3.249   6.888  18.273  0.00  0.00    +0.000 NA
ATOM     11  C   UNL     1       0.977   9.270  20.051  0.00  0.00    +0.000 A 
ENDROOT
BRANCH   9  12
ATOM     12  C   UNL     1       4.831   5.311  17.404  0.00  0.00    +0.000 A 
ATOM     13  C   UNL     1       6.061   5.990  17.355  0.00  0.00    +0.000 A 
ATOM     14  C   UNL     1       7.056   5.621  16.443  0.00  0.00    +0.000 A 
ATOM     15  C   UNL     1       6.844   4.572  15.558  0.00  0.00    +0.000 A 
ATOM     16  C   UNL     1       5.631   3.880  15.586  0.00  0.00    +0.000 A 
ATOM     17  C   UNL     1       4.647   4.253  16.496  0.00  0.00    +0.000 A 
ATOM     18  F   UNL     1       3.508   3.541  16.499  0.00  0.00    +0.000 F 
ENDBRANCH   9  12
BRANCH   1  20
ATOM     19  N   UNL     1       0.652  12.599  20.730  0.00  0.00    +0.000 N 
ATOM     20  C   UNL     1      -0.034  11.673  19.993  0.00  0.00    +0.000 C 
ATOM     21  O   UNL     1      -1.238  11.739  19.777  0.00  0.00    +0.000 OA
ATOM     22  H   UNL     1       1.645  12.459  20.756  0.00  0.00    +0.000 HD
BRANCH  19  23
ATOM     23  C   UNL     1       0.113  13.930  20.957  0.00  0.00    +0.000 C 
BRANCH  23  25
ATOM     24  C   UNL     1      -0.152  15.102  18.810  0.00  0.00    +0.000 C 
ATOM     25  C   UNL     1       0.726  15.104  20.101  0.00  0.00    +0.000 C 
ATOM     26  C   UNL     1       0.402  16.411  20.848  0.00  0.00    +0.000 C 
BRANCH  25  27
ATOM     27  N   UNL     1       2.159  14.889  19.709  0.00  0.00    +0.000 NA
ATOM     28  C   UNL     1       3.236  15.491  20.516  0.00  0.00    +0.000 C 
ATOM     29  C   UNL     1       3.540  16.964  20.232  0.00  0.00    +0.000 C 
ATOM     30  O   UNL     1       3.879  17.159  18.860  0.00  0.00    +0.000 OA
ATOM     31  C   UNL     1       2.845  16.653  18.006  0.00  0.00    +0.000 C 
ATOM     32  C   UNL     1       2.534  15.172  18.298  0.00  0.00    +0.000 C 
ENDBRANCH  25  27
ENDBRANCH  23  25
ENDBRANCH  19  23
ENDBRANCH   1  20
BRANCH  11  33
ATOM     33  C   UNL     1       0.460   8.636  21.351  0.00  0.00    +0.000 C 
ATOM     34  C   UNL     1       0.963   9.181  22.668  0.00  0.00    +0.000 C 
ATOM     35  C   UNL     1      -0.485   9.271  22.332  0.00  0.00    +0.000 C 
ENDBRANCH  11  33
TORSDOF 6
ENDMDL
