MODEL 1
REMARK VINA RESULT:      -6.9      0.000      0.000
REMARK  Name = 
REMARK  2 active torsions:
REMARK  status: ('A' for Active; 'I' for Inactive)
REMARK    1  A    between atoms: N_2  and  C_4
REMARK    2  A    between atoms: C_8  and  C_9
REMARK                            x       y       z     vdW  Elec       q    Type
REMARK                         _______ _______ _______ _____ _____    ______ ____
ROOT
ATOM      1  C   UNL     1       5.867   5.322  16.751  0.00  0.00    +0.000 A 
ATOM      2  C   UNL     1       5.507   6.663  16.933  0.00  0.00    +0.000 A 
ATOM      3  C   UNL     1       4.241   6.969  17.430  0.00  0.00    +0.000 A 
ATOM      4  C   UNL     1       3.351   5.942  17.758  0.00  0.00    +0.000 A 
ATOM      5  C   UNL     1       3.714   4.594  17.603  0.00  0.00    +0.000 A 
ATOM      6  C   UNL     1       4.977   4.288  17.077  0.00  0.00    +0.000 A 
ENDROOT
BRANCH   5   7
ATOM      7  C   UNL     1       2.801   3.529  18.021  0.00  0.00    +0.000 A 
ATOM      8  C   UNL     1       1.440   3.655  18.418  0.00  0.00    +0.000 A 
ATOM      9  C   UNL     1       1.006   2.377  18.664  0.00  0.00    +0.000 A 
ATOM     10  N   UNL     1       2.078   1.573  18.432  0.00  0.00    +0.000 N 
ATOM     11  N   UNL     1       3.173   2.238  18.034  0.00  0.00    +0.000 NA
ATOM     12  H   UNL     1       2.134   0.563  18.515  0.00  0.00    +0.000 HD
ENDBRANCH   5   7
BRANCH   1  14
ATOM     13  O   UNL     1       7.485   5.378  15.090  0.00  0.00    +0.000 OA
ATOM     14  N   UNL     1       7.199   4.991  16.231  0.00  0.00    +0.000 N 
ATOM     15  O   UNL     1       7.962   4.348  16.968  0.00  0.00    +0.000 OA
ENDBRANCH   1  14
TORSDOF 2
ENDMDL
MODEL 2
REMARK VINA RESULT:      -6.9      0.809      1.005
REMARK  Name = 
REMARK  2 active torsions:
REMARK  status: ('A' for Active; 'I' for Inactive)
REMARK    1  A    between atoms: N_2  and  C_4
REMARK    2  A    between atoms: C_8  and  C_9
REMARK                            x       y       z     vdW  Elec       q    Type
REMARK                         _______ _______ _______ _____ _____    ______ ____
ROOT
ATOM      1  C   UNL     1       5.545   5.121  15.930  0.00  0.00    +0.000 A 
ATOM      2  C   UNL     1       5.439   6.450  16.357  0.00  0.00    +0.000 A 
ATOM      3  C   UNL     1       4.427   6.802  17.249  0.00  0.00    +0.000 A 
ATOM      4  C   UNL     1       3.541   5.829  17.720  0.00  0.00    +0.000 A 
ATOM      5  C   UNL     1       3.656   4.489  17.317  0.00  0.00    +0.000 A 
ATOM      6  C   UNL     1       4.657   4.142  16.399  0.00  0.00    +0.000 A 
ENDROOT
BRANCH   5   7
ATOM      7  C   UNL     1       2.769   3.468  17.877  0.00  0.00    +0.000 A 
ATOM      8  C   UNL     1       1.433   3.633  18.335  0.00  0.00    +0.000 A 
ATOM      9  C   UNL     1       1.014   2.383  18.717  0.00  0.00    +0.000 A 
ATOM     10  N   UNL     1       2.073   1.558  18.499  0.00  0.00    +0.000 N 
ATOM     11  N   UNL     1       3.144   2.182  17.984  0.00  0.00    +0.000 NA
ATOM     12  H   UNL     1       2.135   0.559  18.667  0.00  0.00    +0.000 HD
ENDBRANCH   5   7
BRANCH   1  14
ATOM     13  O   UNL     1       7.649   5.415  14.996  0.00  0.00    +0.000 OA
ATOM     14  N   UNL     1       6.610   4.741  14.994  0.00  0.00    +0.000 N 
ATOM     15  O   UNL     1       6.410   3.762  14.259  0.00  0.00    +0.000 OA
ENDBRANCH   1  14
TORSDOF 2
ENDMDL
MODEL 3
REMARK VINA RESULT:      -6.8      0.607      1.012
REMARK  Name = 
REMARK  2 active torsions:
REMARK  status: ('A' for Active; 'I' for Inactive)
REMARK    1  A    between atoms: N_2  and  C_4
REMARK    2  A    between atoms: C_8  and  C_9
REMARK                            x       y       z     vdW  Elec       q    Type
REMARK                         _______ _______ _______ _____ _____    ______ ____
ROOT
ATOM      1  C   UNL     1       5.999   5.050  17.342  0.00  0.00    +0.000 A 
ATOM      2  C   UNL     1       5.658   6.405  17.255  0.00  0.00    +0.000 A 
ATOM      3  C   UNL     1       4.328   6.787  17.425  0.00  0.00    +0.000 A 
ATOM      4  C   UNL     1       3.353   5.822  17.697  0.00  0.00    +0.000 A 
ATOM      5  C   UNL     1       3.691   4.465  17.812  0.00  0.00    +0.000 A 
ATOM      6  C   UNL     1       5.024   4.079  17.613  0.00  0.00    +0.000 A 
ENDROOT
BRANCH   5   7
ATOM      7  C   UNL     1       2.673   3.476  18.171  0.00  0.00    +0.000 A 
ATOM      8  C   UNL     1       1.349   3.718  18.634  0.00  0.00    +0.000 A 
ATOM      9  C   UNL     1       0.776   2.480  18.784  0.00  0.00    +0.000 A 
ATOM     10  N   UNL     1       1.739   1.585  18.437  0.00  0.00    +0.000 N 
ATOM     11  N   UNL     1       2.891   2.155  18.054  0.00  0.00    +0.000 NA
ATOM     12  H   UNL     1       1.679   0.571  18.427  0.00  0.00    +0.000 HD
ENDBRANCH   5   7
BRANCH   1  14
ATOM     13  O   UNL     1       8.064   4.414  18.186  0.00  0.00    +0.000 OA
ATOM     14  N   UNL     1       7.397   4.640  17.168  0.00  0.00    +0.000 N 
ATOM     15  O   UNL     1       7.827   4.535  16.009  0.00  0.00    +0.000 OA
ENDBRANCH   1  14
TORSDOF 2
ENDMDL
MODEL 4
REMARK VINA RESULT:      -6.6      1.655      1.844
REMARK  Name = 
REMARK  2 active torsions:
REMARK  status: ('A' for Active; 'I' for Inactive)
REMARK    1  A    between atoms: N_2  and  C_4
REMARK    2  A    between atoms: C_8  and  C_9
REMARK                            x       y       z     vdW  Elec       q    Type
REMARK                         _______ _______ _______ _____ _____    ______ ____
ROOT
ATOM      1  C   UNL     1       6.371   4.509  15.958  0.00  0.00    +0.000 A 
ATOM      2  C   UNL     1       7.211   4.982  16.973  0.00  0.00    +0.000 A 
ATOM      3  C   UNL     1       6.778   4.933  18.297  0.00  0.00    +0.000 A 
ATOM      4  C   UNL     1       5.522   4.400  18.602  0.00  0.00    +0.000 A 
ATOM      5  C   UNL     1       4.684   3.901  17.593  0.00  0.00    +0.000 A 
ATOM      6  C   UNL     1       5.109   3.976  16.260  0.00  0.00    +0.000 A 
ENDROOT
BRANCH   5   7
ATOM      7  C   UNL     1       3.404   3.277  17.935  0.00  0.00    +0.000 A 
ATOM      8  C   UNL     1       2.159   3.921  18.178  0.00  0.00    +0.000 A 
ATOM      9  C   UNL     1       1.257   2.912  18.407  0.00  0.00    +0.000 A 
ATOM     10  N   UNL     1       1.967   1.757  18.313  0.00  0.00    +0.000 N 
ATOM     11  N   UNL     1       3.264   1.943  18.021  0.00  0.00    +0.000 NA
ATOM     12  H   UNL     1       1.634   0.804  18.427  0.00  0.00    +0.000 HD
ENDBRANCH   5   7
BRANCH   1  14
ATOM     13  O   UNL     1       6.291   3.773  13.759  0.00  0.00    +0.000 OA
ATOM     14  N   UNL     1       6.820   4.555  14.562  0.00  0.00    +0.000 N 
ATOM     15  O   UNL     1       7.699   5.378  14.264  0.00  0.00    +0.000 OA
ENDBRANCH   1  14
TORSDOF 2
ENDMDL
MODEL 5
REMARK VINA RESULT:      -6.6      2.027      2.340
REMARK  Name = 
REMARK  2 active torsions:
REMARK  status: ('A' for Active; 'I' for Inactive)
REMARK    1  A    between atoms: N_2  and  C_4
REMARK    2  A    between atoms: C_8  and  C_9
REMARK                            x       y       z     vdW  Elec       q    Type
REMARK                         _______ _______ _______ _____ _____    ______ ____
ROOT
ATOM      1  C   UNL     1       6.681   5.244  18.038  0.00  0.00    +0.000 A 
ATOM      2  C   UNL     1       7.003   5.371  16.681  0.00  0.00    +0.000 A 
ATOM      3  C   UNL     1       6.187   4.767  15.726  0.00  0.00    +0.000 A 
ATOM      4  C   UNL     1       5.051   4.057  16.126  0.00  0.00    +0.000 A 
ATOM      5  C   UNL     1       4.707   3.946  17.483  0.00  0.00    +0.000 A 
ATOM      6  C   UNL     1       5.543   4.531  18.443  0.00  0.00    +0.000 A 
ENDROOT
BRANCH   5   7
ATOM      7  C   UNL     1       3.474   3.265  17.881  0.00  0.00    +0.000 A 
ATOM      8  C   UNL     1       2.191   3.842  18.096  0.00  0.00    +0.000 A 
ATOM      9  C   UNL     1       1.360   2.793  18.403  0.00  0.00    +0.000 A 
ATOM     10  N   UNL     1       2.144   1.683  18.378  0.00  0.00    +0.000 N 
ATOM     11  N   UNL     1       3.423   1.934  18.057  0.00  0.00    +0.000 NA
ATOM     12  H   UNL     1       1.875   0.721  18.558  0.00  0.00    +0.000 HD
ENDBRANCH   5   7
BRANCH   1  14
ATOM     13  O   UNL     1       7.565   5.372  20.179  0.00  0.00    +0.000 OA
ATOM     14  N   UNL     1       7.533   5.880  19.049  0.00  0.00    +0.000 N 
ATOM     15  O   UNL     1       8.178   6.885  18.713  0.00  0.00    +0.000 OA
ENDBRANCH   1  14
TORSDOF 2
ENDMDL
MODEL 6
REMARK VINA RESULT:      -6.6      1.149      1.319
REMARK  Name = 
REMARK  2 active torsions:
REMARK  status: ('A' for Active; 'I' for Inactive)
REMARK    1  A    between atoms: N_2  and  C_4
REMARK    2  A    between atoms: C_8  and  C_9
REMARK                            x       y       z     vdW  Elec       q    Type
REMARK                         _______ _______ _______ _____ _____    ______ ____
ROOT
ATOM      1  C   UNL     1       5.545   5.107  15.750  0.00  0.00    +0.000 A 
ATOM      2  C   UNL     1       5.383   6.455  16.092  0.00  0.00    +0.000 A 
ATOM      3  C   UNL     1       4.428   6.808  17.045  0.00  0.00    +0.000 A 
ATOM      4  C   UNL     1       3.654   5.818  17.659  0.00  0.00    +0.000 A 
ATOM      5  C   UNL     1       3.828   4.462  17.340  0.00  0.00    +0.000 A 
ATOM      6  C   UNL     1       4.770   4.112  16.363  0.00  0.00    +0.000 A 
ENDROOT
BRANCH   5   7
ATOM      7  C   UNL     1       3.065   3.432  18.046  0.00  0.00    +0.000 A 
ATOM      8  C   UNL     1       2.982   3.219  19.450  0.00  0.00    +0.000 A 
ATOM      9  C   UNL     1       2.110   2.172  19.616  0.00  0.00    +0.000 A 
ATOM     10  N   UNL     1       1.733   1.805  18.362  0.00  0.00    +0.000 N 
ATOM     11  N   UNL     1       2.286   2.552  17.394  0.00  0.00    +0.000 NA
ATOM     12  H   UNL     1       1.097   1.062  18.091  0.00  0.00    +0.000 HD
ENDBRANCH   5   7
BRANCH   1  14
ATOM     13  O   UNL     1       6.278   3.792  13.985  0.00  0.00    +0.000 OA
ATOM     14  N   UNL     1       6.550   4.727  14.751  0.00  0.00    +0.000 N 
ATOM     15  O   UNL     1       7.611   5.369  14.726  0.00  0.00    +0.000 OA
ENDBRANCH   1  14
TORSDOF 2
ENDMDL
MODEL 7
REMARK VINA RESULT:      -6.6      2.815      5.154
REMARK  Name = 
REMARK  2 active torsions:
REMARK  status: ('A' for Active; 'I' for Inactive)
REMARK    1  A    between atoms: N_2  and  C_4
REMARK    2  A    between atoms: C_8  and  C_9
REMARK                            x       y       z     vdW  Elec       q    Type
REMARK                         _______ _______ _______ _____ _____    ______ ____
ROOT
ATOM      1  C   UNL     1       3.185   3.739  17.729  0.00  0.00    +0.000 A 
ATOM      2  C   UNL     1       2.712   4.927  18.299  0.00  0.00    +0.000 A 
ATOM      3  C   UNL     1       3.339   6.132  17.983  0.00  0.00    +0.000 A 
ATOM      4  C   UNL     1       4.417   6.148  17.093  0.00  0.00    +0.000 A 
ATOM      5  C   UNL     1       4.881   4.964  16.498  0.00  0.00    +0.000 A 
ATOM      6  C   UNL     1       4.268   3.750  16.837  0.00  0.00    +0.000 A 
ENDROOT
BRANCH   5   7
ATOM      7  C   UNL     1       5.961   5.005  15.511  0.00  0.00    +0.000 A 
ATOM      8  C   UNL     1       5.996   4.380  14.233  0.00  0.00    +0.000 A 
ATOM      9  C   UNL     1       7.191   4.755  13.670  0.00  0.00    +0.000 A 
ATOM     10  N   UNL     1       7.804   5.540  14.596  0.00  0.00    +0.000 N 
ATOM     11  N   UNL     1       7.083   5.717  15.714  0.00  0.00    +0.000 NA
ATOM     12  H   UNL     1       8.708   5.997  14.531  0.00  0.00    +0.000 HD
ENDBRANCH   5   7
BRANCH   1  14
ATOM     13  O   UNL     1       1.292   2.442  18.070  0.00  0.00    +0.000 OA
ATOM     14  N   UNL     1       2.530   2.466  18.053  0.00  0.00    +0.000 N 
ATOM     15  O   UNL     1       3.255   1.486  18.284  0.00  0.00    +0.000 OA
ENDBRANCH   1  14
TORSDOF 2
ENDMDL
MODEL 8
REMARK VINA RESULT:      -6.5      3.486      5.150
REMARK  Name = 
REMARK  2 active torsions:
REMARK  status: ('A' for Active; 'I' for Inactive)
REMARK    1  A    between atoms: N_2  and  C_4
REMARK    2  A    between atoms: C_8  and  C_9
REMARK                            x       y       z     vdW  Elec       q    Type
REMARK                         _______ _______ _______ _____ _____    ______ ____
ROOT
ATOM      1  C   UNL     1       6.711   5.263  18.111  0.00  0.00    +0.000 A 
ATOM      2  C   UNL     1       5.520   4.643  18.507  0.00  0.00    +0.000 A 
ATOM      3  C   UNL     1       4.708   4.048  17.542  0.00  0.00    +0.000 A 
ATOM      4  C   UNL     1       5.092   4.061  16.198  0.00  0.00    +0.000 A 
ATOM      5  C   UNL     1       6.297   4.659  15.797  0.00  0.00    +0.000 A 
ATOM      6  C   UNL     1       7.100   5.280  16.764  0.00  0.00    +0.000 A 
ENDROOT
BRANCH   5   7
ATOM      7  C   UNL     1       6.724   4.599  14.398  0.00  0.00    +0.000 A 
ATOM      8  C   UNL     1       6.224   3.751  13.371  0.00  0.00    +0.000 A 
ATOM      9  C   UNL     1       6.904   4.105  12.233  0.00  0.00    +0.000 A 
ATOM     10  N   UNL     1       7.757   5.095  12.608  0.00  0.00    +0.000 N 
ATOM     11  N   UNL     1       7.666   5.421  13.906  0.00  0.00    +0.000 NA
ATOM     12  H   UNL     1       8.423   5.600  12.032  0.00  0.00    +0.000 HD
ENDBRANCH   5   7
BRANCH   1  14
ATOM     13  O   UNL     1       7.615   5.373  20.245  0.00  0.00    +0.000 OA
ATOM     14  N   UNL     1       7.574   5.889  19.120  0.00  0.00    +0.000 N 
ATOM     15  O   UNL     1       8.219   6.894  18.784  0.00  0.00    +0.000 OA
ENDBRANCH   1  14
TORSDOF 2
ENDMDL
MODEL 9
REMARK VINA RESULT:      -6.5      3.012      5.299
REMARK  Name = 
REMARK  2 active torsions:
REMARK  status: ('A' for Active; 'I' for Inactive)
REMARK    1  A    between atoms: N_2  and  C_4
REMARK    2  A    between atoms: C_8  and  C_9
REMARK                            x       y       z     vdW  Elec       q    Type
REMARK                         _______ _______ _______ _____ _____    ______ ____
ROOT
ATOM      1  C   UNL     1       3.421   3.928  17.960  0.00  0.00    +0.000 A 
ATOM      2  C   UNL     1       3.835   4.534  19.152  0.00  0.00    +0.000 A 
ATOM      3  C   UNL     1       5.071   5.177  19.199  0.00  0.00    +0.000 A 
ATOM      4  C   UNL     1       5.876   5.227  18.057  0.00  0.00    +0.000 A 
ATOM      5  C   UNL     1       5.458   4.645  16.851  0.00  0.00    +0.000 A 
ATOM      6  C   UNL     1       4.227   3.975  16.812  0.00  0.00    +0.000 A 
ENDROOT
BRANCH   5   7
ATOM      7  C   UNL     1       6.277   4.771  15.644  0.00  0.00    +0.000 A 
ATOM      8  C   UNL     1       6.078   4.136  14.387  0.00  0.00    +0.000 A 
ATOM      9  C   UNL     1       7.075   4.609  13.570  0.00  0.00    +0.000 A 
ATOM     10  N   UNL     1       7.808   5.458  14.338  0.00  0.00    +0.000 N 
ATOM     11  N   UNL     1       7.347   5.583  15.592  0.00  0.00    +0.000 NA
ATOM     12  H   UNL     1       8.629   5.993  14.074  0.00  0.00    +0.000 HD
ENDBRANCH   5   7
BRANCH   1  14
ATOM     13  O   UNL     1       2.070   2.066  18.258  0.00  0.00    +0.000 OA
ATOM     14  N   UNL     1       2.121   3.252  17.901  0.00  0.00    +0.000 N 
ATOM     15  O   UNL     1       1.146   3.908  17.504  0.00  0.00    +0.000 OA
ENDBRANCH   1  14
TORSDOF 2
ENDMDL
