MODEL 1
REMARK VINA RESULT:      -7.3      0.000      0.000
REMARK  Name = 
REMARK  10 active torsions:
REMARK  status: ('A' for Active; 'I' for Inactive)
REMARK    1  A    between atoms: C_1  and  N_2
REMARK    2  A    between atoms: C_3  and  C_6
REMARK    3  A    between atoms: N_4  and  C_5
REMARK    4  A    between atoms: C_9  and  C_10
REMARK    5  A    between atoms: C_10  and  N_11
REMARK    6  A    between atoms: N_14  and  C_15
REMARK    7  A    between atoms: C_15  and  C_16
REMARK    8  A    between atoms: C_19  and  C_20
REMARK    9  A    between atoms: N_21  and  C_22
REMARK   10  A    between atoms: N_23  and  C_24
REMARK                            x       y       z     vdW  Elec       q    Type
REMARK                         _______ _______ _______ _____ _____    ______ ____
ROOT
ATOM      1  N   UNL     1       2.361   5.648  19.337  0.00  0.00    +0.000 NA
ATOM      2  C   UNL     1       1.728   6.003  20.623  0.00  0.00    +0.000 C 
ATOM      3  C   UNL     1       1.927   7.466  21.086  0.00  0.00    +0.000 C 
ATOM      4  N   UNL     1       1.605   8.514  20.095  0.00  0.00    +0.000 NA
ATOM      5  C   UNL     1       2.151   8.148  18.772  0.00  0.00    +0.000 C 
ATOM      6  C   UNL     1       1.948   6.668  18.340  0.00  0.00    +0.000 C 
ENDROOT
BRANCH   1   7
ATOM      7  C   UNL     1       3.835   5.571  19.407  0.00  0.00    +0.000 C 
BRANCH   7  11
ATOM      8  C   UNL     1       5.956   4.894  15.663  0.00  0.00    +0.000 A 
ATOM      9  C   UNL     1       6.318   5.985  16.462  0.00  0.00    +0.000 A 
ATOM     10  C   UNL     1       5.648   6.228  17.677  0.00  0.00    +0.000 A 
ATOM     11  C   UNL     1       4.598   5.394  18.100  0.00  0.00    +0.000 A 
ATOM     12  C   UNL     1       4.301   4.262  17.317  0.00  0.00    +0.000 A 
ATOM     13  C   UNL     1       4.972   4.013  16.122  0.00  0.00    +0.000 A 
BRANCH   8  16
ATOM     14  C   UNL     1       6.436   3.395  12.257  0.00  0.00    +0.000 C 
ATOM     15  N   UNL     1       5.996   3.746  13.585  0.00  0.00    +0.000 NA
ATOM     16  C   UNL     1       6.558   4.662  14.288  0.00  0.00    +0.000 C 
ATOM     17  N   UNL     1       7.639   5.487  14.019  0.00  0.00    +0.000 N 
ATOM     18  C   UNL     1       8.415   5.716  12.833  0.00  0.00    +0.000 C 
ATOM     19  H   UNL     1       8.028   5.963  14.825  0.00  0.00    +0.000 HD
ENDBRANCH   8  16
ENDBRANCH   7  11
ENDBRANCH   1   7
BRANCH   4  20
ATOM     20  C   UNL     1       0.166   8.824  20.018  0.00  0.00    +0.000 C 
BRANCH  20  21
ATOM     21  C   UNL     1      -0.249  10.011  20.872  0.00  0.00    +0.000 A 
ATOM     22  C   UNL     1      -0.619   9.844  22.216  0.00  0.00    +0.000 A 
ATOM     23  C   UNL     1      -1.007  10.946  22.989  0.00  0.00    +0.000 A 
ATOM     24  C   UNL     1      -1.030  12.232  22.435  0.00  0.00    +0.000 A 
ATOM     25  C   UNL     1      -0.645  12.406  21.102  0.00  0.00    +0.000 A 
ATOM     26  C   UNL     1      -0.260  11.305  20.328  0.00  0.00    +0.000 A 
BRANCH  24  27
ATOM     27  C   UNL     1      -1.481  13.408  23.280  0.00  0.00    +0.000 C 
ATOM     28  N   UNL     1      -0.632  14.372  23.349  0.00  0.00    +0.000 NA
ATOM     29  C   UNL     1      -0.803  15.507  24.229  0.00  0.00    +0.000 C 
ATOM     30  N   UNL     1      -2.705  13.274  23.909  0.00  0.00    +0.000 N 
ATOM     31  C   UNL     1      -3.690  14.308  24.125  0.00  0.00    +0.000 C 
ATOM     32  H   UNL     1      -3.125  12.351  23.856  0.00  0.00    +0.000 HD
ENDBRANCH  24  27
ENDBRANCH  20  21
ENDBRANCH   4  20
TORSDOF 6
ENDMDL
MODEL 2
REMARK VINA RESULT:      -7.0      0.438      1.372
REMARK  Name = 
REMARK  10 active torsions:
REMARK  status: ('A' for Active; 'I' for Inactive)
REMARK    1  A    between atoms: C_1  and  N_2
REMARK    2  A    between atoms: C_3  and  C_6
REMARK    3  A    between atoms: N_4  and  C_5
REMARK    4  A    between atoms: C_9  and  C_10
REMARK    5  A    between atoms: C_10  and  N_11
REMARK    6  A    between atoms: N_14  and  C_15
REMARK    7  A    between atoms: C_15  and  C_16
REMARK    8  A    between atoms: C_19  and  C_20
REMARK    9  A    between atoms: N_21  and  C_22
REMARK   10  A    between atoms: N_23  and  C_24
REMARK                            x       y       z     vdW  Elec       q    Type
REMARK                         _______ _______ _______ _____ _____    ______ ____
ROOT
ATOM      1  N   UNL     1       2.219   5.994  19.320  0.00  0.00    +0.000 NA
ATOM      2  C   UNL     1       1.658   6.417  20.618  0.00  0.00    +0.000 C 
ATOM      3  C   UNL     1       1.844   7.912  20.974  0.00  0.00    +0.000 C 
ATOM      4  N   UNL     1       1.433   8.885  19.940  0.00  0.00    +0.000 NA
ATOM      5  C   UNL     1       1.907   8.446  18.612  0.00  0.00    +0.000 C 
ATOM      6  C   UNL     1       1.719   6.937  18.288  0.00  0.00    +0.000 C 
ENDROOT
BRANCH   1   7
ATOM      7  C   UNL     1       3.696   5.956  19.302  0.00  0.00    +0.000 C 
BRANCH   7  11
ATOM      8  C   UNL     1       5.632   5.021  15.512  0.00  0.00    +0.000 A 
ATOM      9  C   UNL     1       5.139   3.975  16.300  0.00  0.00    +0.000 A 
ATOM     10  C   UNL     1       4.509   4.249  17.531  0.00  0.00    +0.000 A 
ATOM     11  C   UNL     1       4.380   5.569  17.995  0.00  0.00    +0.000 A 
ATOM     12  C   UNL     1       4.817   6.609  17.153  0.00  0.00    +0.000 A 
ATOM     13  C   UNL     1       5.427   6.341  15.930  0.00  0.00    +0.000 A 
BRANCH   8  16
ATOM     14  C   UNL     1       8.367   5.377  12.969  0.00  0.00    +0.000 C 
ATOM     15  N   UNL     1       7.491   5.483  14.109  0.00  0.00    +0.000 NA
ATOM     16  C   UNL     1       6.429   4.774  14.244  0.00  0.00    +0.000 C 
ATOM     17  N   UNL     1       5.863   3.812  13.421  0.00  0.00    +0.000 N 
ATOM     18  C   UNL     1       6.318   3.169  12.222  0.00  0.00    +0.000 C 
ATOM     19  H   UNL     1       4.904   3.568  13.643  0.00  0.00    +0.000 HD
ENDBRANCH   8  16
ENDBRANCH   7  11
ENDBRANCH   1   7
BRANCH   4  20
ATOM     20  C   UNL     1      -0.016   9.155  19.934  0.00  0.00    +0.000 C 
BRANCH  20  21
ATOM     21  C   UNL     1      -0.425  10.306  20.838  0.00  0.00    +0.000 A 
ATOM     22  C   UNL     1      -0.617  10.115  22.216  0.00  0.00    +0.000 A 
ATOM     23  C   UNL     1      -1.002  11.183  23.036  0.00  0.00    +0.000 A 
ATOM     24  C   UNL     1      -1.200  12.461  22.495  0.00  0.00    +0.000 A 
ATOM     25  C   UNL     1      -0.992  12.661  21.127  0.00  0.00    +0.000 A 
ATOM     26  C   UNL     1      -0.610  11.592  20.307  0.00  0.00    +0.000 A 
BRANCH  24  27
ATOM     27  C   UNL     1      -1.644  13.598  23.395  0.00  0.00    +0.000 C 
ATOM     28  N   UNL     1      -0.721  14.449  23.675  0.00  0.00    +0.000 NA
ATOM     29  C   UNL     1      -0.899  15.511  24.640  0.00  0.00    +0.000 C 
ATOM     30  N   UNL     1      -2.952  13.547  23.842  0.00  0.00    +0.000 N 
ATOM     31  C   UNL     1      -3.848  14.662  24.037  0.00  0.00    +0.000 C 
ATOM     32  H   UNL     1      -3.450  12.686  23.639  0.00  0.00    +0.000 HD
ENDBRANCH  24  27
ENDBRANCH  20  21
ENDBRANCH   4  20
TORSDOF 6
ENDMDL
MODEL 3
REMARK VINA RESULT:      -6.9      1.229      1.971
REMARK  Name = 
REMARK  10 active torsions:
REMARK  status: ('A' for Active; 'I' for Inactive)
REMARK    1  A    between atoms: C_1  and  N_2
REMARK    2  A    between atoms: C_3  and  C_6
REMARK    3  A    between atoms: N_4  and  C_5
REMARK    4  A    between atoms: C_9  and  C_10
REMARK    5  A    between atoms: C_10  and  N_11
REMARK    6  A    between atoms: N_14  and  C_15
REMARK    7  A    between atoms: C_15  and  C_16
REMARK    8  A    between atoms: C_19  and  C_20
REMARK    9  A    between atoms: N_21  and  C_22
REMARK   10  A    between atoms: N_23  and  C_24
REMARK                            x       y       z     vdW  Elec       q    Type
REMARK                         _______ _______ _______ _____ _____    ______ ____
ROOT
ATOM      1  N   UNL     1       2.573   4.204  19.256  0.00  0.00    +0.000 NA
ATOM      2  C   UNL     1       1.919   4.240  20.579  0.00  0.00    +0.000 C 
ATOM      3  C   UNL     1       2.161   5.521  21.412  0.00  0.00    +0.000 C 
ATOM      4  N   UNL     1       1.908   6.804  20.725  0.00  0.00    +0.000 NA
ATOM      5  C   UNL     1       2.476   6.771  19.362  0.00  0.00    +0.000 C 
ATOM      6  C   UNL     1       2.229   5.466  18.554  0.00  0.00    +0.000 C 
ENDROOT
BRANCH   1   7
ATOM      7  C   UNL     1       4.040   4.046  19.329  0.00  0.00    +0.000 C 
BRANCH   7  11
ATOM      8  C   UNL     1       6.209   4.367  15.564  0.00  0.00    +0.000 A 
ATOM      9  C   UNL     1       6.781   4.897  16.725  0.00  0.00    +0.000 A 
ATOM     10  C   UNL     1       6.101   4.808  17.956  0.00  0.00    +0.000 A 
ATOM     11  C   UNL     1       4.835   4.203  18.038  0.00  0.00    +0.000 A 
ATOM     12  C   UNL     1       4.313   3.611  16.872  0.00  0.00    +0.000 A 
ATOM     13  C   UNL     1       4.990   3.687  15.657  0.00  0.00    +0.000 A 
BRANCH   8  16
ATOM     14  C   UNL     1       8.424   5.784  12.888  0.00  0.00    +0.000 C 
ATOM     15  N   UNL     1       7.724   5.476  14.110  0.00  0.00    +0.000 NA
ATOM     16  C   UNL     1       6.839   4.548  14.194  0.00  0.00    +0.000 C 
ATOM     17  N   UNL     1       6.339   3.673  13.242  0.00  0.00    +0.000 N 
ATOM     18  C   UNL     1       6.719   3.390  11.888  0.00  0.00    +0.000 C 
ATOM     19  H   UNL     1       5.484   3.195  13.505  0.00  0.00    +0.000 HD
ENDBRANCH   8  16
ENDBRANCH   7  11
ENDBRANCH   1   7
BRANCH   4  20
ATOM     20  C   UNL     1       0.484   7.188  20.707  0.00  0.00    +0.000 C 
BRANCH  20  21
ATOM     21  C   UNL     1       0.235   8.625  21.131  0.00  0.00    +0.000 A 
ATOM     22  C   UNL     1      -0.186   8.936  22.434  0.00  0.00    +0.000 A 
ATOM     23  C   UNL     1      -0.420  10.265  22.809  0.00  0.00    +0.000 A 
ATOM     24  C   UNL     1      -0.236  11.307  21.891  0.00  0.00    +0.000 A 
ATOM     25  C   UNL     1       0.202  11.005  20.597  0.00  0.00    +0.000 A 
ATOM     26  C   UNL     1       0.433   9.676  20.222  0.00  0.00    +0.000 A 
BRANCH  24  27
ATOM     27  C   UNL     1      -0.522  12.736  22.308  0.00  0.00    +0.000 C 
ATOM     28  N   UNL     1      -1.267  12.850  23.350  0.00  0.00    +0.000 NA
ATOM     29  C   UNL     1      -1.784  14.118  23.812  0.00  0.00    +0.000 C 
ATOM     30  N   UNL     1       0.000  13.726  21.495  0.00  0.00    +0.000 N 
ATOM     31  C   UNL     1       0.538  15.000  21.910  0.00  0.00    +0.000 C 
ATOM     32  H   UNL     1       0.409  13.404  20.623  0.00  0.00    +0.000 HD
ENDBRANCH  24  27
ENDBRANCH  20  21
ENDBRANCH   4  20
TORSDOF 6
ENDMDL
MODEL 4
REMARK VINA RESULT:      -6.8      2.084     12.379
REMARK  Name = 
REMARK  10 active torsions:
REMARK  status: ('A' for Active; 'I' for Inactive)
REMARK    1  A    between atoms: C_1  and  N_2
REMARK    2  A    between atoms: C_3  and  C_6
REMARK    3  A    between atoms: N_4  and  C_5
REMARK    4  A    between atoms: C_9  and  C_10
REMARK    5  A    between atoms: C_10  and  N_11
REMARK    6  A    between atoms: N_14  and  C_15
REMARK    7  A    between atoms: C_15  and  C_16
REMARK    8  A    between atoms: C_19  and  C_20
REMARK    9  A    between atoms: N_21  and  C_22
REMARK   10  A    between atoms: N_23  and  C_24
REMARK                            x       y       z     vdW  Elec       q    Type
REMARK                         _______ _______ _______ _____ _____    ______ ____
ROOT
ATOM      1  N   UNL     1      -0.862  10.382  21.799  0.00  0.00    +0.000 NA
ATOM      2  C   UNL     1      -0.589   9.997  20.400  0.00  0.00    +0.000 C 
ATOM      3  C   UNL     1       0.888   9.678  20.068  0.00  0.00    +0.000 C 
ATOM      4  N   UNL     1       1.565   8.718  20.964  0.00  0.00    +0.000 NA
ATOM      5  C   UNL     1       1.244   9.023  22.373  0.00  0.00    +0.000 C 
ATOM      6  C   UNL     1      -0.246   9.353  22.673  0.00  0.00    +0.000 C 
ENDROOT
BRANCH   1   7
ATOM      7  C   UNL     1      -0.349  11.723  22.151  0.00  0.00    +0.000 C 
BRANCH   7  11
ATOM      8  C   UNL     1      -3.387  14.669  23.186  0.00  0.00    +0.000 A 
ATOM      9  C   UNL     1      -2.132  15.110  22.752  0.00  0.00    +0.000 A 
ATOM     10  C   UNL     1      -1.131  14.179  22.412  0.00  0.00    +0.000 A 
ATOM     11  C   UNL     1      -1.367  12.797  22.517  0.00  0.00    +0.000 A 
ATOM     12  C   UNL     1      -2.659  12.377  22.885  0.00  0.00    +0.000 A 
ATOM     13  C   UNL     1      -3.654  13.296  23.209  0.00  0.00    +0.000 A 
BRANCH   8  16
ATOM     14  C   UNL     1      -6.778  16.214  23.626  0.00  0.00    +0.000 C 
ATOM     15  N   UNL     1      -5.644  15.405  23.253  0.00  0.00    +0.000 NA
ATOM     16  C   UNL     1      -4.455  15.627  23.685  0.00  0.00    +0.000 C 
ATOM     17  N   UNL     1      -3.958  16.606  24.531  0.00  0.00    +0.000 N 
ATOM     18  C   UNL     1      -4.594  17.614  25.330  0.00  0.00    +0.000 C 
ATOM     19  H   UNL     1      -2.948  16.703  24.531  0.00  0.00    +0.000 HD
ENDBRANCH   8  16
ENDBRANCH   7  11
ENDBRANCH   1   7
BRANCH   4  20
ATOM     20  C   UNL     1       1.277   7.310  20.637  0.00  0.00    +0.000 C 
BRANCH  20  21
ATOM     21  C   UNL     1       2.346   6.651  19.782  0.00  0.00    +0.000 A 
ATOM     22  C   UNL     1       3.033   5.510  20.228  0.00  0.00    +0.000 A 
ATOM     23  C   UNL     1       4.022   4.917  19.432  0.00  0.00    +0.000 A 
ATOM     24  C   UNL     1       4.341   5.452  18.177  0.00  0.00    +0.000 A 
ATOM     25  C   UNL     1       3.647   6.577  17.720  0.00  0.00    +0.000 A 
ATOM     26  C   UNL     1       2.661   7.171  18.516  0.00  0.00    +0.000 A 
BRANCH  24  27
ATOM     27  C   UNL     1       5.434   4.813  17.343  0.00  0.00    +0.000 C 
ATOM     28  N   UNL     1       5.176   4.744  16.086  0.00  0.00    +0.000 NA
ATOM     29  C   UNL     1       6.014   4.030  15.149  0.00  0.00    +0.000 C 
ATOM     30  N   UNL     1       6.533   4.339  18.037  0.00  0.00    +0.000 N 
ATOM     31  C   UNL     1       7.912   4.374  17.611  0.00  0.00    +0.000 C 
ATOM     32  H   UNL     1       6.444   4.341  19.049  0.00  0.00    +0.000 HD
ENDBRANCH  24  27
ENDBRANCH  20  21
ENDBRANCH   4  20
TORSDOF 6
ENDMDL
MODEL 5
REMARK VINA RESULT:      -6.8      0.586      1.429
REMARK  Name = 
REMARK  10 active torsions:
REMARK  status: ('A' for Active; 'I' for Inactive)
REMARK    1  A    between atoms: C_1  and  N_2
REMARK    2  A    between atoms: C_3  and  C_6
REMARK    3  A    between atoms: N_4  and  C_5
REMARK    4  A    between atoms: C_9  and  C_10
REMARK    5  A    between atoms: C_10  and  N_11
REMARK    6  A    between atoms: N_14  and  C_15
REMARK    7  A    between atoms: C_15  and  C_16
REMARK    8  A    between atoms: C_19  and  C_20
REMARK    9  A    between atoms: N_21  and  C_22
REMARK   10  A    between atoms: N_23  and  C_24
REMARK                            x       y       z     vdW  Elec       q    Type
REMARK                         _______ _______ _______ _____ _____    ______ ____
ROOT
ATOM      1  N   UNL     1       2.178   6.181  19.226  0.00  0.00    +0.000 NA
ATOM      2  C   UNL     1       1.635   6.532  20.553  0.00  0.00    +0.000 C 
ATOM      3  C   UNL     1       1.832   8.003  20.991  0.00  0.00    +0.000 C 
ATOM      4  N   UNL     1       1.411   9.035  20.020  0.00  0.00    +0.000 NA
ATOM      5  C   UNL     1       1.866   8.671  18.663  0.00  0.00    +0.000 C 
ATOM      6  C   UNL     1       1.668   7.183  18.256  0.00  0.00    +0.000 C 
ENDROOT
BRANCH   1   7
ATOM      7  C   UNL     1       3.655   6.140  19.186  0.00  0.00    +0.000 C 
BRANCH   7  11
ATOM      8  C   UNL     1       5.550   5.021  15.427  0.00  0.00    +0.000 A 
ATOM      9  C   UNL     1       4.932   4.031  16.198  0.00  0.00    +0.000 A 
ATOM     10  C   UNL     1       4.313   4.364  17.419  0.00  0.00    +0.000 A 
ATOM     11  C   UNL     1       4.317   5.688  17.890  0.00  0.00    +0.000 A 
ATOM     12  C   UNL     1       4.879   6.679  17.063  0.00  0.00    +0.000 A 
ATOM     13  C   UNL     1       5.480   6.353  15.850  0.00  0.00    +0.000 A 
BRANCH   8  16
ATOM     14  C   UNL     1       6.459   3.341  12.198  0.00  0.00    +0.000 C 
ATOM     15  N   UNL     1       5.843   3.774  13.427  0.00  0.00    +0.000 NA
ATOM     16  C   UNL     1       6.340   4.696  14.171  0.00  0.00    +0.000 C 
ATOM     17  N   UNL     1       7.492   5.455  14.039  0.00  0.00    +0.000 N 
ATOM     18  C   UNL     1       8.450   5.590  12.979  0.00  0.00    +0.000 C 
ATOM     19  H   UNL     1       7.780   5.950  14.876  0.00  0.00    +0.000 HD
ENDBRANCH   8  16
ENDBRANCH   7  11
ENDBRANCH   1   7
BRANCH   4  20
ATOM     20  C   UNL     1      -0.037   9.309  20.049  0.00  0.00    +0.000 C 
BRANCH  20  21
ATOM     21  C   UNL     1      -0.412  10.519  20.888  0.00  0.00    +0.000 A 
ATOM     22  C   UNL     1      -0.730  10.389  22.249  0.00  0.00    +0.000 A 
ATOM     23  C   UNL     1      -1.081  11.512  23.009  0.00  0.00    +0.000 A 
ATOM     24  C   UNL     1      -1.119  12.784  22.423  0.00  0.00    +0.000 A 
ATOM     25  C   UNL     1      -0.784  12.923  21.072  0.00  0.00    +0.000 A 
ATOM     26  C   UNL     1      -0.435  11.800  20.313  0.00  0.00    +0.000 A 
BRANCH  24  27
ATOM     27  C   UNL     1      -1.529  13.984  23.256  0.00  0.00    +0.000 C 
ATOM     28  N   UNL     1      -2.548  13.783  24.015  0.00  0.00    +0.000 NA
ATOM     29  C   UNL     1      -3.191  14.841  24.762  0.00  0.00    +0.000 C 
ATOM     30  N   UNL     1      -0.802  15.143  23.056  0.00  0.00    +0.000 N 
ATOM     31  C   UNL     1      -0.423  16.116  24.054  0.00  0.00    +0.000 C 
ATOM     32  H   UNL     1      -0.153  15.122  22.276  0.00  0.00    +0.000 HD
ENDBRANCH  24  27
ENDBRANCH  20  21
ENDBRANCH   4  20
TORSDOF 6
ENDMDL
MODEL 6
REMARK VINA RESULT:      -6.8      1.961      2.463
REMARK  Name = 
REMARK  10 active torsions:
REMARK  status: ('A' for Active; 'I' for Inactive)
REMARK    1  A    between atoms: C_1  and  N_2
REMARK    2  A    between atoms: C_3  and  C_6
REMARK    3  A    between atoms: N_4  and  C_5
REMARK    4  A    between atoms: C_9  and  C_10
REMARK    5  A    between atoms: C_10  and  N_11
REMARK    6  A    between atoms: N_14  and  C_15
REMARK    7  A    between atoms: C_15  and  C_16
REMARK    8  A    between atoms: C_19  and  C_20
REMARK    9  A    between atoms: N_21  and  C_22
REMARK   10  A    between atoms: N_23  and  C_24
REMARK                            x       y       z     vdW  Elec       q    Type
REMARK                         _______ _______ _______ _____ _____    ______ ____
ROOT
ATOM      1  N   UNL     1       2.153   5.813  19.192  0.00  0.00    +0.000 NA
ATOM      2  C   UNL     1       1.558   6.388  20.416  0.00  0.00    +0.000 C 
ATOM      3  C   UNL     1       1.973   7.842  20.744  0.00  0.00    +0.000 C 
ATOM      4  N   UNL     1       1.836   8.823  19.647  0.00  0.00    +0.000 NA
ATOM      5  C   UNL     1       2.345   8.247  18.385  0.00  0.00    +0.000 C 
ATOM      6  C   UNL     1       1.923   6.780  18.089  0.00  0.00    +0.000 C 
ENDROOT
BRANCH   1   7
ATOM      7  C   UNL     1       3.595   5.520  19.320  0.00  0.00    +0.000 C 
BRANCH   7  11
ATOM      8  C   UNL     1       5.844   4.867  15.646  0.00  0.00    +0.000 A 
ATOM      9  C   UNL     1       6.142   5.983  16.437  0.00  0.00    +0.000 A 
ATOM     10  C   UNL     1       5.430   6.219  17.630  0.00  0.00    +0.000 A 
ATOM     11  C   UNL     1       4.401   5.352  18.037  0.00  0.00    +0.000 A 
ATOM     12  C   UNL     1       4.168   4.198  17.266  0.00  0.00    +0.000 A 
ATOM     13  C   UNL     1       4.881   3.956  16.093  0.00  0.00    +0.000 A 
BRANCH   8  16
ATOM     14  C   UNL     1       6.439   3.372  12.257  0.00  0.00    +0.000 C 
ATOM     15  N   UNL     1       5.955   3.721  13.569  0.00  0.00    +0.000 NA
ATOM     16  C   UNL     1       6.492   4.637  14.292  0.00  0.00    +0.000 C 
ATOM     17  N   UNL     1       7.581   5.463  14.061  0.00  0.00    +0.000 N 
ATOM     18  C   UNL     1       8.396   5.693  12.902  0.00  0.00    +0.000 C 
ATOM     19  H   UNL     1       7.942   5.938  14.880  0.00  0.00    +0.000 HD
ENDBRANCH   8  16
ENDBRANCH   7  11
ENDBRANCH   1   7
BRANCH   4  20
ATOM     20  C   UNL     1       0.464   9.339  19.491  0.00  0.00    +0.000 C 
BRANCH  20  21
ATOM     21  C   UNL     1       0.372  10.854  19.562  0.00  0.00    +0.000 A 
ATOM     22  C   UNL     1      -0.673  11.486  20.255  0.00  0.00    +0.000 A 
ATOM     23  C   UNL     1      -0.751  12.884  20.306  0.00  0.00    +0.000 A 
ATOM     24  C   UNL     1       0.214  13.674  19.668  0.00  0.00    +0.000 A 
ATOM     25  C   UNL     1       1.267  13.050  18.992  0.00  0.00    +0.000 A 
ATOM     26  C   UNL     1       1.343  11.653  18.939  0.00  0.00    +0.000 A 
BRANCH  24  27
ATOM     27  C   UNL     1       0.096  15.186  19.710  0.00  0.00    +0.000 C 
ATOM     28  N   UNL     1       0.755  15.746  20.662  0.00  0.00    +0.000 NA
ATOM     29  C   UNL     1       0.646  17.154  20.970  0.00  0.00    +0.000 C 
ATOM     30  N   UNL     1      -0.739  15.760  18.769  0.00  0.00    +0.000 N 
ATOM     31  C   UNL     1      -0.541  17.013  18.079  0.00  0.00    +0.000 C 
ATOM     32  H   UNL     1      -1.299  15.108  18.227  0.00  0.00    +0.000 HD
ENDBRANCH  24  27
ENDBRANCH  20  21
ENDBRANCH   4  20
TORSDOF 6
ENDMDL
MODEL 7
REMARK VINA RESULT:      -6.7      0.908      1.763
REMARK  Name = 
REMARK  10 active torsions:
REMARK  status: ('A' for Active; 'I' for Inactive)
REMARK    1  A    between atoms: C_1  and  N_2
REMARK    2  A    between atoms: C_3  and  C_6
REMARK    3  A    between atoms: N_4  and  C_5
REMARK    4  A    between atoms: C_9  and  C_10
REMARK    5  A    between atoms: C_10  and  N_11
REMARK    6  A    between atoms: N_14  and  C_15
REMARK    7  A    between atoms: C_15  and  C_16
REMARK    8  A    between atoms: C_19  and  C_20
REMARK    9  A    between atoms: N_21  and  C_22
REMARK   10  A    between atoms: N_23  and  C_24
REMARK                            x       y       z     vdW  Elec       q    Type
REMARK                         _______ _______ _______ _____ _____    ______ ____
ROOT
ATOM      1  N   UNL     1       2.083   6.154  19.219  0.00  0.00    +0.000 NA
ATOM      2  C   UNL     1       1.471   6.350  20.548  0.00  0.00    +0.000 C 
ATOM      3  C   UNL     1       1.749   7.717  21.220  0.00  0.00    +0.000 C 
ATOM      4  N   UNL     1       1.484   8.914  20.396  0.00  0.00    +0.000 NA
ATOM      5  C   UNL     1       2.010   8.717  19.029  0.00  0.00    +0.000 C 
ATOM      6  C   UNL     1       1.727   7.330  18.386  0.00  0.00    +0.000 C 
ENDROOT
BRANCH   1   7
ATOM      7  C   UNL     1       3.551   5.989  19.266  0.00  0.00    +0.000 C 
BRANCH   7  11
ATOM      8  C   UNL     1       5.552   5.021  15.519  0.00  0.00    +0.000 A 
ATOM      9  C   UNL     1       5.119   3.980  16.347  0.00  0.00    +0.000 A 
ATOM     10  C   UNL     1       4.470   4.264  17.565  0.00  0.00    +0.000 A 
ATOM     11  C   UNL     1       4.260   5.592  17.976  0.00  0.00    +0.000 A 
ATOM     12  C   UNL     1       4.637   6.621  17.094  0.00  0.00    +0.000 A 
ATOM     13  C   UNL     1       5.267   6.342  15.883  0.00  0.00    +0.000 A 
BRANCH   8  16
ATOM     14  C   UNL     1       8.323   5.371  13.014  0.00  0.00    +0.000 C 
ATOM     15  N   UNL     1       7.432   5.479  14.142  0.00  0.00    +0.000 NA
ATOM     16  C   UNL     1       6.367   4.772  14.261  0.00  0.00    +0.000 C 
ATOM     17  N   UNL     1       5.810   3.811  13.432  0.00  0.00    +0.000 N 
ATOM     18  C   UNL     1       6.281   3.166  12.239  0.00  0.00    +0.000 C 
ATOM     19  H   UNL     1       4.847   3.568  13.640  0.00  0.00    +0.000 HD
ENDBRANCH   8  16
ENDBRANCH   7  11
ENDBRANCH   1   7
BRANCH   4  20
ATOM     20  C   UNL     1       0.064   9.309  20.377  0.00  0.00    +0.000 C 
BRANCH  20  21
ATOM     21  C   UNL     1      -0.206  10.647  21.044  0.00  0.00    +0.000 A 
ATOM     22  C   UNL     1      -0.814  10.720  22.307  0.00  0.00    +0.000 A 
ATOM     23  C   UNL     1      -1.063  11.960  22.908  0.00  0.00    +0.000 A 
ATOM     24  C   UNL     1      -0.709  13.150  22.257  0.00  0.00    +0.000 A 
ATOM     25  C   UNL     1      -0.086  13.083  21.007  0.00  0.00    +0.000 A 
ATOM     26  C   UNL     1       0.161  11.843  20.406  0.00  0.00    +0.000 A 
BRANCH  24  27
ATOM     27  C   UNL     1      -1.014  14.484  22.911  0.00  0.00    +0.000 C 
ATOM     28  N   UNL     1      -1.058  14.451  24.196  0.00  0.00    +0.000 NA
ATOM     29  C   UNL     1      -1.489  15.576  24.996  0.00  0.00    +0.000 C 
ATOM     30  N   UNL     1      -1.260  15.542  22.054  0.00  0.00    +0.000 N 
ATOM     31  C   UNL     1      -0.872  16.920  22.239  0.00  0.00    +0.000 C 
ATOM     32  H   UNL     1      -1.348  15.297  21.073  0.00  0.00    +0.000 HD
ENDBRANCH  24  27
ENDBRANCH  20  21
ENDBRANCH   4  20
TORSDOF 6
ENDMDL
MODEL 8
REMARK VINA RESULT:      -6.7      0.945     11.784
REMARK  Name = 
REMARK  10 active torsions:
REMARK  status: ('A' for Active; 'I' for Inactive)
REMARK    1  A    between atoms: C_1  and  N_2
REMARK    2  A    between atoms: C_3  and  C_6
REMARK    3  A    between atoms: N_4  and  C_5
REMARK    4  A    between atoms: C_9  and  C_10
REMARK    5  A    between atoms: C_10  and  N_11
REMARK    6  A    between atoms: N_14  and  C_15
REMARK    7  A    between atoms: C_15  and  C_16
REMARK    8  A    between atoms: C_19  and  C_20
REMARK    9  A    between atoms: N_21  and  C_22
REMARK   10  A    between atoms: N_23  and  C_24
REMARK                            x       y       z     vdW  Elec       q    Type
REMARK                         _______ _______ _______ _____ _____    ______ ____
ROOT
ATOM      1  N   UNL     1       1.564   9.202  19.825  0.00  0.00    +0.000 NA
ATOM      2  C   UNL     1       1.792   8.168  20.854  0.00  0.00    +0.000 C 
ATOM      3  C   UNL     1       1.539   6.708  20.406  0.00  0.00    +0.000 C 
ATOM      4  N   UNL     1       2.203   6.285  19.155  0.00  0.00    +0.000 NA
ATOM      5  C   UNL     1       2.068   7.338  18.127  0.00  0.00    +0.000 C 
ATOM      6  C   UNL     1       2.314   8.795  18.610  0.00  0.00    +0.000 C 
ENDROOT
BRANCH   1   7
ATOM      7  C   UNL     1       0.137   9.403  19.499  0.00  0.00    +0.000 C 
BRANCH   7  11
ATOM      8  C   UNL     1      -1.946  12.542  21.688  0.00  0.00    +0.000 A 
ATOM      9  C   UNL     1      -2.098  12.465  20.299  0.00  0.00    +0.000 A 
ATOM     10  C   UNL     1      -1.436  11.461  19.566  0.00  0.00    +0.000 A 
ATOM     11  C   UNL     1      -0.600  10.532  20.210  0.00  0.00    +0.000 A 
ATOM     12  C   UNL     1      -0.520  10.582  21.614  0.00  0.00    +0.000 A 
ATOM     13  C   UNL     1      -1.185  11.567  22.342  0.00  0.00    +0.000 A 
BRANCH   8  16
ATOM     14  C   UNL     1      -4.349  15.226  22.734  0.00  0.00    +0.000 C 
ATOM     15  N   UNL     1      -3.649  14.149  22.079  0.00  0.00    +0.000 NA
ATOM     16  C   UNL     1      -2.534  13.678  22.506  0.00  0.00    +0.000 C 
ATOM     17  N   UNL     1      -1.749  14.031  23.593  0.00  0.00    +0.000 N 
ATOM     18  C   UNL     1      -1.960  14.928  24.693  0.00  0.00    +0.000 C 
ATOM     19  H   UNL     1      -0.804  13.663  23.579  0.00  0.00    +0.000 HD
ENDBRANCH   8  16
ENDBRANCH   7  11
ENDBRANCH   1   7
BRANCH   4  20
ATOM     20  C   UNL     1       3.611   5.893  19.344  0.00  0.00    +0.000 C 
BRANCH  20  21
ATOM     21  C   UNL     1       4.333   5.568  18.046  0.00  0.00    +0.000 A 
ATOM     22  C   UNL     1       5.234   6.476  17.468  0.00  0.00    +0.000 A 
ATOM     23  C   UNL     1       5.886   6.166  16.269  0.00  0.00    +0.000 A 
ATOM     24  C   UNL     1       5.651   4.943  15.626  0.00  0.00    +0.000 A 
ATOM     25  C   UNL     1       4.768   4.027  16.207  0.00  0.00    +0.000 A 
ATOM     26  C   UNL     1       4.115   4.338  17.405  0.00  0.00    +0.000 A 
BRANCH  24  27
ATOM     27  C   UNL     1       6.345   4.638  14.312  0.00  0.00    +0.000 C 
ATOM     28  N   UNL     1       5.683   3.867  13.525  0.00  0.00    +0.000 NA
ATOM     29  C   UNL     1       6.236   3.331  12.301  0.00  0.00    +0.000 C 
ATOM     30  N   UNL     1       7.610   5.173  14.151  0.00  0.00    +0.000 N 
ATOM     31  C   UNL     1       8.187   5.693  12.934  0.00  0.00    +0.000 C 
ATOM     32  H   UNL     1       8.010   5.605  14.979  0.00  0.00    +0.000 HD
ENDBRANCH  24  27
ENDBRANCH  20  21
ENDBRANCH   4  20
TORSDOF 6
ENDMDL
MODEL 9
REMARK VINA RESULT:      -6.7      0.692     11.756
REMARK  Name = 
REMARK  10 active torsions:
REMARK  status: ('A' for Active; 'I' for Inactive)
REMARK    1  A    between atoms: C_1  and  N_2
REMARK    2  A    between atoms: C_3  and  C_6
REMARK    3  A    between atoms: N_4  and  C_5
REMARK    4  A    between atoms: C_9  and  C_10
REMARK    5  A    between atoms: C_10  and  N_11
REMARK    6  A    between atoms: N_14  and  C_15
REMARK    7  A    between atoms: C_15  and  C_16
REMARK    8  A    between atoms: C_19  and  C_20
REMARK    9  A    between atoms: N_21  and  C_22
REMARK   10  A    between atoms: N_23  and  C_24
REMARK                            x       y       z     vdW  Elec       q    Type
REMARK                         _______ _______ _______ _____ _____    ______ ____
ROOT
ATOM      1  N   UNL     1       1.663   9.042  19.951  0.00  0.00    +0.000 NA
ATOM      2  C   UNL     1       1.889   8.007  20.980  0.00  0.00    +0.000 C 
ATOM      3  C   UNL     1       1.573   6.554  20.551  0.00  0.00    +0.000 C 
ATOM      4  N   UNL     1       2.183   6.101  19.283  0.00  0.00    +0.000 NA
ATOM      5  C   UNL     1       2.050   7.151  18.252  0.00  0.00    +0.000 C 
ATOM      6  C   UNL     1       2.360   8.602  18.716  0.00  0.00    +0.000 C 
ENDROOT
BRANCH   1   7
ATOM      7  C   UNL     1       0.234   9.289  19.669  0.00  0.00    +0.000 C 
BRANCH   7  11
ATOM      8  C   UNL     1      -1.780  12.238  22.164  0.00  0.00    +0.000 A 
ATOM      9  C   UNL     1      -1.898  12.330  20.773  0.00  0.00    +0.000 A 
ATOM     10  C   UNL     1      -1.257  11.390  19.942  0.00  0.00    +0.000 A 
ATOM     11  C   UNL     1      -0.476  10.358  20.491  0.00  0.00    +0.000 A 
ATOM     12  C   UNL     1      -0.432  10.241  21.893  0.00  0.00    +0.000 A 
ATOM     13  C   UNL     1      -1.076  11.162  22.716  0.00  0.00    +0.000 A 
BRANCH   8  16
ATOM     14  C   UNL     1      -1.832  15.022  24.678  0.00  0.00    +0.000 C 
ATOM     15  N   UNL     1      -1.474  13.978  23.751  0.00  0.00    +0.000 NA
ATOM     16  C   UNL     1      -2.344  13.295  23.097  0.00  0.00    +0.000 C 
ATOM     17  N   UNL     1      -3.729  13.342  23.095  0.00  0.00    +0.000 N 
ATOM     18  C   UNL     1      -4.671  14.243  23.695  0.00  0.00    +0.000 C 
ATOM     19  H   UNL     1      -4.186  12.544  22.667  0.00  0.00    +0.000 HD
ENDBRANCH   8  16
ENDBRANCH   7  11
ENDBRANCH   1   7
BRANCH   4  20
ATOM     20  C   UNL     1       3.582   5.663  19.430  0.00  0.00    +0.000 C 
BRANCH  20  21
ATOM     21  C   UNL     1       4.292   5.433  18.106  0.00  0.00    +0.000 A 
ATOM     22  C   UNL     1       5.171   6.392  17.577  0.00  0.00    +0.000 A 
ATOM     23  C   UNL     1       5.812   6.170  16.352  0.00  0.00    +0.000 A 
ATOM     24  C   UNL     1       5.588   4.988  15.634  0.00  0.00    +0.000 A 
ATOM     25  C   UNL     1       4.728   4.022  16.165  0.00  0.00    +0.000 A 
ATOM     26  C   UNL     1       4.085   4.244  17.389  0.00  0.00    +0.000 A 
BRANCH  24  27
ATOM     27  C   UNL     1       6.270   4.780  14.296  0.00  0.00    +0.000 C 
ATOM     28  N   UNL     1       7.421   5.343  14.189  0.00  0.00    +0.000 NA
ATOM     29  C   UNL     1       8.157   5.398  12.946  0.00  0.00    +0.000 C 
ATOM     30  N   UNL     1       5.554   4.068  13.350  0.00  0.00    +0.000 N 
ATOM     31  C   UNL     1       6.078   3.128  12.388  0.00  0.00    +0.000 C 
ATOM     32  H   UNL     1       4.588   3.870  13.592  0.00  0.00    +0.000 HD
ENDBRANCH  24  27
ENDBRANCH  20  21
ENDBRANCH   4  20
TORSDOF 6
ENDMDL
