MODEL 1
REMARK VINA RESULT:      -7.9      0.000      0.000
REMARK  Name = 
REMARK  7 active torsions:
REMARK  status: ('A' for Active; 'I' for Inactive)
REMARK    1  A    between atoms: C_1  and  O_2
REMARK    2  A    between atoms: O_2  and  C_3
REMARK    3  A    between atoms: C_3  and  C_4
REMARK    4  A    between atoms: C_4  and  C_5
REMARK    5  A    between atoms: C_4  and  N_6
REMARK    6  A    between atoms: C_11  and  C_12
REMARK    7  A    between atoms: C_13  and  C_14
REMARK                            x       y       z     vdW  Elec       q    Type
REMARK                         _______ _______ _______ _____ _____    ______ ____
ROOT
ATOM      1  C   UNL     1       3.177   4.989  18.976  0.00  0.00    +0.000 A 
ATOM      2  C   UNL     1       4.031   4.173  18.303  0.00  0.00    +0.000 A 
ATOM      3  C   UNL     1       3.776   2.810  18.926  0.00  0.00    +0.000 A 
ATOM      4  O   UNL     1       4.132   1.732  18.477  0.00  0.00    +0.000 OA
ATOM      5  N   UNL     1       2.981   3.030  20.028  0.00  0.00    +0.000 N 
ATOM      6  N   UNL     1       2.595   4.349  20.050  0.00  0.00    +0.000 N 
ATOM      7  C   UNL     1       1.298   4.482  20.681  0.00  0.00    +0.000 C 
ATOM      8  C   UNL     1       1.248   3.215  21.551  0.00  0.00    +0.000 C 
ATOM      9  C   UNL     1       2.020   2.195  20.716  0.00  0.00    +0.000 C 
ENDROOT
BRANCH   1  15
ATOM     10  N   UNL     1       0.890   8.939  20.289  0.00  0.00    +0.000 N 
ATOM     11  C   UNL     1       1.728   8.266  19.420  0.00  0.00    +0.000 A 
ATOM     12  N   UNL     1       2.212   9.000  18.411  0.00  0.00    +0.000 NA
ATOM     13  C   UNL     1       3.059   8.393  17.560  0.00  0.00    +0.000 A 
ATOM     14  C   UNL     1       3.450   7.084  17.686  0.00  0.00    +0.000 A 
ATOM     15  C   UNL     1       2.897   6.409  18.750  0.00  0.00    +0.000 A 
ATOM     16  N   UNL     1       2.036   6.982  19.617  0.00  0.00    +0.000 NA
ATOM     17  H   UNL     1       1.011   9.931  20.114  0.00  0.00    +0.000 HD
BRANCH  10  18
ATOM     18  C   UNL     1       0.893   8.523  21.694  0.00  0.00    +0.000 C 
ATOM     19  C   UNL     1       2.011   9.261  22.443  0.00  0.00    +0.000 C 
BRANCH  18  20
ATOM     20  C   UNL     1      -0.453   8.874  22.377  0.00  0.00    +0.000 C 
BRANCH  20  22
ATOM     21  C   UNL     1      -1.244  11.008  23.101  0.00  0.00    +0.000 C 
ATOM     22  O   UNL     1      -0.392   9.902  23.369  0.00  0.00    +0.000 OA
ENDBRANCH  20  22
ENDBRANCH  18  20
ENDBRANCH  10  18
ENDBRANCH   1  15
BRANCH   2  23
ATOM     23  C   UNL     1       4.980   4.455  17.213  0.00  0.00    +0.000 A 
ATOM     24  C   UNL     1       6.308   4.824  17.494  0.00  0.00    +0.000 A 
ATOM     25  C   UNL     1       7.234   5.053  16.472  0.00  0.00    +0.000 A 
ATOM     26  C   UNL     1       6.847   4.892  15.150  0.00  0.00    +0.000 A 
ATOM     27  F   UNL     1       7.733   5.101  14.170  0.00  0.00    +0.000 F 
ATOM     28  C   UNL     1       5.552   4.501  14.838  0.00  0.00    +0.000 A 
ATOM     29  C   UNL     1       4.625   4.283  15.864  0.00  0.00    +0.000 A 
ENDBRANCH   2  23
TORSDOF 5
ENDMDL
MODEL 2
REMARK VINA RESULT:      -7.5      7.548     10.897
REMARK  Name = 
REMARK  7 active torsions:
REMARK  status: ('A' for Active; 'I' for Inactive)
REMARK    1  A    between atoms: C_1  and  O_2
REMARK    2  A    between atoms: O_2  and  C_3
REMARK    3  A    between atoms: C_3  and  C_4
REMARK    4  A    between atoms: C_4  and  C_5
REMARK    5  A    between atoms: C_4  and  N_6
REMARK    6  A    between atoms: C_11  and  C_12
REMARK    7  A    between atoms: C_13  and  C_14
REMARK                            x       y       z     vdW  Elec       q    Type
REMARK                         _______ _______ _______ _____ _____    ______ ____
ROOT
ATOM      1  C   UNL     1      -3.356  13.561  21.705  0.00  0.00    +0.000 A 
ATOM      2  C   UNL     1      -2.163  13.128  22.189  0.00  0.00    +0.000 A 
ATOM      3  C   UNL     1      -1.657  14.318  22.989  0.00  0.00    +0.000 A 
ATOM      4  O   UNL     1      -0.745  14.308  23.801  0.00  0.00    +0.000 OA
ATOM      5  N   UNL     1      -2.496  15.369  22.693  0.00  0.00    +0.000 N 
ATOM      6  N   UNL     1      -3.544  14.909  21.932  0.00  0.00    +0.000 N 
ATOM      7  C   UNL     1      -4.730  15.703  22.179  0.00  0.00    +0.000 C 
ATOM      8  C   UNL     1      -4.119  17.019  22.687  0.00  0.00    +0.000 C 
ATOM      9  C   UNL     1      -2.872  16.552  23.437  0.00  0.00    +0.000 C 
ENDROOT
BRANCH   1  15
ATOM     10  N   UNL     1      -4.654  11.505  17.625  0.00  0.00    +0.000 N 
ATOM     11  C   UNL     1      -4.934  11.880  18.926  0.00  0.00    +0.000 A 
ATOM     12  N   UNL     1      -6.143  11.525  19.375  0.00  0.00    +0.000 NA
ATOM     13  C   UNL     1      -6.444  11.842  20.648  0.00  0.00    +0.000 A 
ATOM     14  C   UNL     1      -5.577  12.489  21.492  0.00  0.00    +0.000 A 
ATOM     15  C   UNL     1      -4.360  12.817  20.940  0.00  0.00    +0.000 A 
ATOM     16  N   UNL     1      -4.028  12.525  19.665  0.00  0.00    +0.000 NA
ATOM     17  H   UNL     1      -5.347  10.814  17.358  0.00  0.00    +0.000 HD
BRANCH  10  18
ATOM     18  C   UNL     1      -3.262  11.190  17.293  0.00  0.00    +0.000 C 
ATOM     19  C   UNL     1      -2.956   9.742  17.696  0.00  0.00    +0.000 C 
BRANCH  18  20
ATOM     20  C   UNL     1      -3.013  11.326  15.769  0.00  0.00    +0.000 C 
BRANCH  20  22
ATOM     21  C   UNL     1      -3.543   9.953  13.889  0.00  0.00    +0.000 C 
ATOM     22  O   UNL     1      -2.770  10.102  15.072  0.00  0.00    +0.000 OA
ENDBRANCH  20  22
ENDBRANCH  18  20
ENDBRANCH  10  18
ENDBRANCH   1  15
BRANCH   2  23
ATOM     23  C   UNL     1      -1.472  11.836  22.043  0.00  0.00    +0.000 A 
ATOM     24  C   UNL     1      -0.885  11.469  20.819  0.00  0.00    +0.000 A 
ATOM     25  C   UNL     1      -0.188  10.265  20.674  0.00  0.00    +0.000 A 
ATOM     26  C   UNL     1      -0.049   9.422  21.766  0.00  0.00    +0.000 A 
ATOM     27  F   UNL     1       0.627   8.274  21.634  0.00  0.00    +0.000 F 
ATOM     28  C   UNL     1      -0.590   9.766  22.996  0.00  0.00    +0.000 A 
ATOM     29  C   UNL     1      -1.296  10.967  23.134  0.00  0.00    +0.000 A 
ENDBRANCH   2  23
TORSDOF 5
ENDMDL
MODEL 3
REMARK VINA RESULT:      -7.5      1.614      1.890
REMARK  Name = 
REMARK  7 active torsions:
REMARK  status: ('A' for Active; 'I' for Inactive)
REMARK    1  A    between atoms: C_1  and  O_2
REMARK    2  A    between atoms: O_2  and  C_3
REMARK    3  A    between atoms: C_3  and  C_4
REMARK    4  A    between atoms: C_4  and  C_5
REMARK    5  A    between atoms: C_4  and  N_6
REMARK    6  A    between atoms: C_11  and  C_12
REMARK    7  A    between atoms: C_13  and  C_14
REMARK                            x       y       z     vdW  Elec       q    Type
REMARK                         _______ _______ _______ _____ _____    ______ ____
ROOT
ATOM      1  C   UNL     1       3.058   5.542  19.517  0.00  0.00    +0.000 A 
ATOM      2  C   UNL     1       4.307   5.092  19.227  0.00  0.00    +0.000 A 
ATOM      3  C   UNL     1       4.264   3.636  19.662  0.00  0.00    +0.000 A 
ATOM      4  O   UNL     1       5.074   2.770  19.370  0.00  0.00    +0.000 OA
ATOM      5  N   UNL     1       3.085   3.472  20.355  0.00  0.00    +0.000 N 
ATOM      6  N   UNL     1       2.337   4.621  20.249  0.00  0.00    +0.000 N 
ATOM      7  C   UNL     1       0.924   4.307  20.307  0.00  0.00    +0.000 C 
ATOM      8  C   UNL     1       0.938   2.962  21.053  0.00  0.00    +0.000 C 
ATOM      9  C   UNL     1       2.240   2.319  20.576  0.00  0.00    +0.000 C 
ENDROOT
BRANCH   1  15
ATOM     10  N   UNL     1       0.306   9.151  20.915  0.00  0.00    +0.000 N 
ATOM     11  C   UNL     1       1.091   8.537  19.957  0.00  0.00    +0.000 A 
ATOM     12  N   UNL     1       1.231   9.216  18.812  0.00  0.00    +0.000 NA
ATOM     13  C   UNL     1       2.014   8.670  17.865  0.00  0.00    +0.000 A 
ATOM     14  C   UNL     1       2.673   7.477  18.023  0.00  0.00    +0.000 A 
ATOM     15  C   UNL     1       2.465   6.850  19.230  0.00  0.00    +0.000 A 
ATOM     16  N   UNL     1       1.678   7.363  20.199  0.00  0.00    +0.000 NA
ATOM     17  H   UNL     1       0.194  10.120  20.634  0.00  0.00    +0.000 HD
BRANCH  10  18
ATOM     18  C   UNL     1       0.643   8.919  22.321  0.00  0.00    +0.000 C 
ATOM     19  C   UNL     1       1.978   9.601  22.646  0.00  0.00    +0.000 C 
BRANCH  18  20
ATOM     20  C   UNL     1      -0.440   9.515  23.256  0.00  0.00    +0.000 C 
BRANCH  20  22
ATOM     21  C   UNL     1      -1.648  11.557  22.980  0.00  0.00    +0.000 C 
ATOM     22  O   UNL     1      -0.431  10.940  23.378  0.00  0.00    +0.000 OA
ENDBRANCH  20  22
ENDBRANCH  18  20
ENDBRANCH  10  18
ENDBRANCH   1  15
BRANCH   2  23
ATOM     23  C   UNL     1       5.463   5.772  18.620  0.00  0.00    +0.000 A 
ATOM     24  C   UNL     1       5.321   6.507  17.428  0.00  0.00    +0.000 A 
ATOM     25  C   UNL     1       6.398   7.194  16.861  0.00  0.00    +0.000 A 
ATOM     26  C   UNL     1       7.631   7.175  17.496  0.00  0.00    +0.000 A 
ATOM     27  F   UNL     1       8.661   7.841  16.961  0.00  0.00    +0.000 F 
ATOM     28  C   UNL     1       7.799   6.484  18.687  0.00  0.00    +0.000 A 
ATOM     29  C   UNL     1       6.720   5.788  19.246  0.00  0.00    +0.000 A 
ENDBRANCH   2  23
TORSDOF 5
ENDMDL
MODEL 4
REMARK VINA RESULT:      -7.5      5.941      9.629
REMARK  Name = 
REMARK  7 active torsions:
REMARK  status: ('A' for Active; 'I' for Inactive)
REMARK    1  A    between atoms: C_1  and  O_2
REMARK    2  A    between atoms: O_2  and  C_3
REMARK    3  A    between atoms: C_3  and  C_4
REMARK    4  A    between atoms: C_4  and  C_5
REMARK    5  A    between atoms: C_4  and  N_6
REMARK    6  A    between atoms: C_11  and  C_12
REMARK    7  A    between atoms: C_13  and  C_14
REMARK                            x       y       z     vdW  Elec       q    Type
REMARK                         _______ _______ _______ _____ _____    ______ ____
ROOT
ATOM      1  C   UNL     1      -0.208  10.920  20.924  0.00  0.00    +0.000 A 
ATOM      2  C   UNL     1      -0.581  11.032  22.225  0.00  0.00    +0.000 A 
ATOM      3  C   UNL     1       0.029   9.799  22.872  0.00  0.00    +0.000 A 
ATOM      4  O   UNL     1       0.165   9.604  24.070  0.00  0.00    +0.000 OA
ATOM      5  N   UNL     1       0.485   9.007  21.843  0.00  0.00    +0.000 N 
ATOM      6  N   UNL     1       0.366   9.694  20.658  0.00  0.00    +0.000 N 
ATOM      7  C   UNL     1       1.397   9.277  19.730  0.00  0.00    +0.000 C 
ATOM      8  C   UNL     1       1.741   7.875  20.262  0.00  0.00    +0.000 C 
ATOM      9  C   UNL     1       1.544   8.023  21.770  0.00  0.00    +0.000 C 
ENDROOT
BRANCH   1  15
ATOM     10  N   UNL     1      -2.145  11.872  16.694  0.00  0.00    +0.000 N 
ATOM     11  C   UNL     1      -1.350  12.239  17.763  0.00  0.00    +0.000 A 
ATOM     12  N   UNL     1      -0.818  13.464  17.685  0.00  0.00    +0.000 NA
ATOM     13  C   UNL     1      -0.063  13.875  18.721  0.00  0.00    +0.000 A 
ATOM     14  C   UNL     1       0.168  13.112  19.837  0.00  0.00    +0.000 A 
ATOM     15  C   UNL     1      -0.416  11.865  19.825  0.00  0.00    +0.000 A 
ATOM     16  N   UNL     1      -1.170  11.417  18.799  0.00  0.00    +0.000 NA
ATOM     17  H   UNL     1      -2.358  12.718  16.175  0.00  0.00    +0.000 HD
BRANCH  10  18
ATOM     18  C   UNL     1      -3.272  10.975  16.961  0.00  0.00    +0.000 C 
ATOM     19  C   UNL     1      -4.587  11.755  16.841  0.00  0.00    +0.000 C 
BRANCH  18  20
ATOM     20  C   UNL     1      -3.309   9.814  15.934  0.00  0.00    +0.000 C 
BRANCH  20  22
ATOM     21  C   UNL     1      -3.652   9.998  13.579  0.00  0.00    +0.000 C 
ATOM     22  O   UNL     1      -2.734  10.101  14.657  0.00  0.00    +0.000 OA
ENDBRANCH  20  22
ENDBRANCH  18  20
ENDBRANCH  10  18
ENDBRANCH   1  15
BRANCH   2  23
ATOM     23  C   UNL     1      -1.361  12.070  22.921  0.00  0.00    +0.000 A 
ATOM     24  C   UNL     1      -0.811  13.342  23.162  0.00  0.00    +0.000 A 
ATOM     25  C   UNL     1      -1.552  14.353  23.783  0.00  0.00    +0.000 A 
ATOM     26  C   UNL     1      -2.866  14.108  24.151  0.00  0.00    +0.000 A 
ATOM     27  F   UNL     1      -3.581  15.077  24.736  0.00  0.00    +0.000 F 
ATOM     28  C   UNL     1      -3.449  12.874  23.902  0.00  0.00    +0.000 A 
ATOM     29  C   UNL     1      -2.701  11.861  23.290  0.00  0.00    +0.000 A 
ENDBRANCH   2  23
TORSDOF 5
ENDMDL
MODEL 5
REMARK VINA RESULT:      -7.5      3.403      7.098
REMARK  Name = 
REMARK  7 active torsions:
REMARK  status: ('A' for Active; 'I' for Inactive)
REMARK    1  A    between atoms: C_1  and  O_2
REMARK    2  A    between atoms: O_2  and  C_3
REMARK    3  A    between atoms: C_3  and  C_4
REMARK    4  A    between atoms: C_4  and  C_5
REMARK    5  A    between atoms: C_4  and  N_6
REMARK    6  A    between atoms: C_11  and  C_12
REMARK    7  A    between atoms: C_13  and  C_14
REMARK                            x       y       z     vdW  Elec       q    Type
REMARK                         _______ _______ _______ _____ _____    ______ ____
ROOT
ATOM      1  C   UNL     1       3.950   4.473  18.583  0.00  0.00    +0.000 A 
ATOM      2  C   UNL     1       2.812   5.180  18.811  0.00  0.00    +0.000 A 
ATOM      3  C   UNL     1       1.785   4.101  19.113  0.00  0.00    +0.000 A 
ATOM      4  O   UNL     1       0.685   4.270  19.616  0.00  0.00    +0.000 OA
ATOM      5  N   UNL     1       2.382   2.899  18.806  0.00  0.00    +0.000 N 
ATOM      6  N   UNL     1       3.706   3.118  18.506  0.00  0.00    +0.000 N 
ATOM      7  C   UNL     1       4.499   1.959  18.863  0.00  0.00    +0.000 C 
ATOM      8  C   UNL     1       3.443   0.842  18.833  0.00  0.00    +0.000 C 
ATOM      9  C   UNL     1       2.176   1.556  19.302  0.00  0.00    +0.000 C 
ENDROOT
BRANCH   1  15
ATOM     10  N   UNL     1       7.609   5.003  15.602  0.00  0.00    +0.000 N 
ATOM     11  C   UNL     1       7.047   5.155  16.856  0.00  0.00    +0.000 A 
ATOM     12  N   UNL     1       7.826   5.755  17.763  0.00  0.00    +0.000 NA
ATOM     13  C   UNL     1       7.304   5.954  18.987  0.00  0.00    +0.000 A 
ATOM     14  C   UNL     1       6.029   5.586  19.335  0.00  0.00    +0.000 A 
ATOM     15  C   UNL     1       5.305   4.972  18.339  0.00  0.00    +0.000 A 
ATOM     16  N   UNL     1       5.799   4.747  17.103  0.00  0.00    +0.000 NA
ATOM     17  H   UNL     1       8.424   5.607  15.565  0.00  0.00    +0.000 HD
BRANCH  10  18
ATOM     18  C   UNL     1       6.713   5.050  14.444  0.00  0.00    +0.000 C 
ATOM     19  C   UNL     1       7.492   5.533  13.215  0.00  0.00    +0.000 C 
BRANCH  18  20
ATOM     20  C   UNL     1       6.144   3.643  14.129  0.00  0.00    +0.000 C 
BRANCH  20  22
ATOM     21  C   UNL     1       4.998   3.206  12.080  0.00  0.00    +0.000 C 
ATOM     22  O   UNL     1       6.243   3.230  12.764  0.00  0.00    +0.000 OA
ENDBRANCH  20  22
ENDBRANCH  18  20
ENDBRANCH  10  18
ENDBRANCH   1  15
BRANCH   2  23
ATOM     23  C   UNL     1       2.558   6.630  18.810  0.00  0.00    +0.000 A 
ATOM     24  C   UNL     1       2.764   7.396  17.648  0.00  0.00    +0.000 A 
ATOM     25  C   UNL     1       2.487   8.766  17.617  0.00  0.00    +0.000 A 
ATOM     26  C   UNL     1       1.976   9.385  18.747  0.00  0.00    +0.000 A 
ATOM     27  F   UNL     1       1.700  10.695  18.717  0.00  0.00    +0.000 F 
ATOM     28  C   UNL     1       1.734   8.655  19.902  0.00  0.00    +0.000 A 
ATOM     29  C   UNL     1       2.023   7.285  19.932  0.00  0.00    +0.000 A 
ENDBRANCH   2  23
TORSDOF 5
ENDMDL
MODEL 6
REMARK VINA RESULT:      -7.2      5.332      9.701
REMARK  Name = 
REMARK  7 active torsions:
REMARK  status: ('A' for Active; 'I' for Inactive)
REMARK    1  A    between atoms: C_1  and  O_2
REMARK    2  A    between atoms: O_2  and  C_3
REMARK    3  A    between atoms: C_3  and  C_4
REMARK    4  A    between atoms: C_4  and  C_5
REMARK    5  A    between atoms: C_4  and  N_6
REMARK    6  A    between atoms: C_11  and  C_12
REMARK    7  A    between atoms: C_13  and  C_14
REMARK                            x       y       z     vdW  Elec       q    Type
REMARK                         _______ _______ _______ _____ _____    ______ ____
ROOT
ATOM      1  C   UNL     1      -3.503  12.454  20.190  0.00  0.00    +0.000 A 
ATOM      2  C   UNL     1      -4.222  11.847  19.209  0.00  0.00    +0.000 A 
ATOM      3  C   UNL     1      -5.652  11.938  19.716  0.00  0.00    +0.000 A 
ATOM      4  O   UNL     1      -6.665  11.748  19.060  0.00  0.00    +0.000 OA
ATOM      5  N   UNL     1      -5.575  12.376  21.019  0.00  0.00    +0.000 N 
ATOM      6  N   UNL     1      -4.273  12.714  21.304  0.00  0.00    +0.000 N 
ATOM      7  C   UNL     1      -4.234  13.770  22.295  0.00  0.00    +0.000 C 
ATOM      8  C   UNL     1      -5.595  13.591  22.989  0.00  0.00    +0.000 C 
ATOM      9  C   UNL     1      -6.499  13.113  21.853  0.00  0.00    +0.000 C 
ENDROOT
BRANCH   1  15
ATOM     10  N   UNL     1       0.979  10.907  20.470  0.00  0.00    +0.000 N 
ATOM     11  C   UNL     1       0.065  11.942  20.401  0.00  0.00    +0.000 A 
ATOM     12  N   UNL     1       0.594  13.171  20.381  0.00  0.00    +0.000 NA
ATOM     13  C   UNL     1      -0.259  14.206  20.281  0.00  0.00    +0.000 A 
ATOM     14  C   UNL     1      -1.620  14.060  20.188  0.00  0.00    +0.000 A 
ATOM     15  C   UNL     1      -2.071  12.760  20.222  0.00  0.00    +0.000 A 
ATOM     16  N   UNL     1      -1.246  11.698  20.332  0.00  0.00    +0.000 NA
ATOM     17  H   UNL     1       1.888  11.296  20.243  0.00  0.00    +0.000 HD
BRANCH  10  18
ATOM     18  C   UNL     1       0.629   9.647  19.810  0.00  0.00    +0.000 C 
ATOM     19  C   UNL     1       1.047   9.709  18.335  0.00  0.00    +0.000 C 
BRANCH  18  20
ATOM     20  C   UNL     1       1.370   8.454  20.468  0.00  0.00    +0.000 C 
BRANCH  20  22
ATOM     21  C   UNL     1       2.300   6.324  19.924  0.00  0.00    +0.000 C 
ATOM     22  O   UNL     1       2.224   7.705  19.600  0.00  0.00    +0.000 OA
ENDBRANCH  20  22
ENDBRANCH  18  20
ENDBRANCH  10  18
ENDBRANCH   1  15
BRANCH   2  23
ATOM     23  C   UNL     1      -3.800  11.248  17.931  0.00  0.00    +0.000 A 
ATOM     24  C   UNL     1      -4.376  11.665  16.717  0.00  0.00    +0.000 A 
ATOM     25  C   UNL     1      -3.958  11.137  15.492  0.00  0.00    +0.000 A 
ATOM     26  C   UNL     1      -2.937  10.200  15.465  0.00  0.00    +0.000 A 
ATOM     27  F   UNL     1      -2.527   9.700  14.292  0.00  0.00    +0.000 F 
ATOM     28  C   UNL     1      -2.327   9.788  16.641  0.00  0.00    +0.000 A 
ATOM     29  C   UNL     1      -2.756  10.310  17.867  0.00  0.00    +0.000 A 
ENDBRANCH   2  23
TORSDOF 5
ENDMDL
MODEL 7
REMARK VINA RESULT:      -7.2      8.257     11.646
REMARK  Name = 
REMARK  7 active torsions:
REMARK  status: ('A' for Active; 'I' for Inactive)
REMARK    1  A    between atoms: C_1  and  O_2
REMARK    2  A    between atoms: O_2  and  C_3
REMARK    3  A    between atoms: C_3  and  C_4
REMARK    4  A    between atoms: C_4  and  C_5
REMARK    5  A    between atoms: C_4  and  N_6
REMARK    6  A    between atoms: C_11  and  C_12
REMARK    7  A    between atoms: C_13  and  C_14
REMARK                            x       y       z     vdW  Elec       q    Type
REMARK                         _______ _______ _______ _____ _____    ______ ____
ROOT
ATOM      1  C   UNL     1      -5.056  13.400  21.502  0.00  0.00    +0.000 A 
ATOM      2  C   UNL     1      -3.841  13.426  22.109  0.00  0.00    +0.000 A 
ATOM      3  C   UNL     1      -3.898  14.690  22.952  0.00  0.00    +0.000 A 
ATOM      4  O   UNL     1      -3.132  14.992  23.854  0.00  0.00    +0.000 OA
ATOM      5  N   UNL     1      -5.035  15.363  22.565  0.00  0.00    +0.000 N 
ATOM      6  N   UNL     1      -5.755  14.572  21.701  0.00  0.00    +0.000 N 
ATOM      7  C   UNL     1      -7.170  14.859  21.820  0.00  0.00    +0.000 C 
ATOM      8  C   UNL     1      -7.147  16.290  22.383  0.00  0.00    +0.000 C 
ATOM      9  C   UNL     1      -5.897  16.294  23.261  0.00  0.00    +0.000 C 
ENDROOT
BRANCH   1  15
ATOM     10  N   UNL     1      -4.914  10.970  17.423  0.00  0.00    +0.000 N 
ATOM     11  C   UNL     1      -5.520  11.259  18.631  0.00  0.00    +0.000 A 
ATOM     12  N   UNL     1      -6.619  10.546  18.904  0.00  0.00    +0.000 NA
ATOM     13  C   UNL     1      -7.222  10.771  20.086  0.00  0.00    +0.000 A 
ATOM     14  C   UNL     1      -6.761  11.674  21.010  0.00  0.00    +0.000 A 
ATOM     15  C   UNL     1      -5.628  12.363  20.640  0.00  0.00    +0.000 A 
ATOM     16  N   UNL     1      -5.003  12.170  19.459  0.00  0.00    +0.000 NA
ATOM     17  H   UNL     1      -5.300  10.090  17.098  0.00  0.00    +0.000 HD
BRANCH  10  18
ATOM     18  C   UNL     1      -3.457  11.108  17.344  0.00  0.00    +0.000 C 
ATOM     19  C   UNL     1      -2.795   9.800  17.794  0.00  0.00    +0.000 C 
BRANCH  18  20
ATOM     20  C   UNL     1      -3.008  11.396  15.888  0.00  0.00    +0.000 C 
BRANCH  20  22
ATOM     21  C   UNL     1      -3.588  10.021  14.024  0.00  0.00    +0.000 C 
ATOM     22  O   UNL     1      -2.690  10.245  15.102  0.00  0.00    +0.000 OA
ENDBRANCH  20  22
ENDBRANCH  18  20
ENDBRANCH  10  18
ENDBRANCH   1  15
BRANCH   2  23
ATOM     23  C   UNL     1      -2.706  12.490  22.042  0.00  0.00    +0.000 A 
ATOM     24  C   UNL     1      -1.929  12.385  20.874  0.00  0.00    +0.000 A 
ATOM     25  C   UNL     1      -0.822  11.533  20.807  0.00  0.00    +0.000 A 
ATOM     26  C   UNL     1      -0.464  10.790  21.921  0.00  0.00    +0.000 A 
ATOM     27  F   UNL     1       0.601   9.981  21.864  0.00  0.00    +0.000 F 
ATOM     28  C   UNL     1      -1.191  10.890  23.099  0.00  0.00    +0.000 A 
ATOM     29  C   UNL     1      -2.305  11.736  23.158  0.00  0.00    +0.000 A 
ENDBRANCH   2  23
TORSDOF 5
ENDMDL
MODEL 8
REMARK VINA RESULT:      -7.2      5.595      9.581
REMARK  Name = 
REMARK  7 active torsions:
REMARK  status: ('A' for Active; 'I' for Inactive)
REMARK    1  A    between atoms: C_1  and  O_2
REMARK    2  A    between atoms: O_2  and  C_3
REMARK    3  A    between atoms: C_3  and  C_4
REMARK    4  A    between atoms: C_4  and  C_5
REMARK    5  A    between atoms: C_4  and  N_6
REMARK    6  A    between atoms: C_11  and  C_12
REMARK    7  A    between atoms: C_13  and  C_14
REMARK                            x       y       z     vdW  Elec       q    Type
REMARK                         _______ _______ _______ _____ _____    ______ ____
ROOT
ATOM      1  C   UNL     1      -3.450  12.521  20.079  0.00  0.00    +0.000 A 
ATOM      2  C   UNL     1      -4.202  11.882  19.146  0.00  0.00    +0.000 A 
ATOM      3  C   UNL     1      -5.611  11.971  19.710  0.00  0.00    +0.000 A 
ATOM      4  O   UNL     1      -6.648  11.753  19.103  0.00  0.00    +0.000 OA
ATOM      5  N   UNL     1      -5.484  12.443  20.997  0.00  0.00    +0.000 N 
ATOM      6  N   UNL     1      -4.175  12.802  21.219  0.00  0.00    +0.000 N 
ATOM      7  C   UNL     1      -4.107  13.884  22.179  0.00  0.00    +0.000 C 
ATOM      8  C   UNL     1      -5.436  13.709  22.934  0.00  0.00    +0.000 C 
ATOM      9  C   UNL     1      -6.381  13.193  21.850  0.00  0.00    +0.000 C 
ENDROOT
BRANCH   1  15
ATOM     10  N   UNL     1       1.056  11.061  20.432  0.00  0.00    +0.000 N 
ATOM     11  C   UNL     1       0.128  12.072  20.266  0.00  0.00    +0.000 A 
ATOM     12  N   UNL     1       0.641  13.296  20.092  0.00  0.00    +0.000 NA
ATOM     13  C   UNL     1      -0.227  14.305  19.894  0.00  0.00    +0.000 A 
ATOM     14  C   UNL     1      -1.587  14.135  19.849  0.00  0.00    +0.000 A 
ATOM     15  C   UNL     1      -2.022  12.843  20.043  0.00  0.00    +0.000 A 
ATOM     16  N   UNL     1      -1.181  11.809  20.255  0.00  0.00    +0.000 NA
ATOM     17  H   UNL     1       1.955  11.430  20.141  0.00  0.00    +0.000 HD
BRANCH  10  18
ATOM     18  C   UNL     1       0.708   9.730  19.930  0.00  0.00    +0.000 C 
ATOM     19  C   UNL     1       1.700   9.322  18.834  0.00  0.00    +0.000 C 
BRANCH  18  20
ATOM     20  C   UNL     1       0.784   8.675  21.062  0.00  0.00    +0.000 C 
BRANCH  20  22
ATOM     21  C   UNL     1      -0.310   9.376  23.066  0.00  0.00    +0.000 C 
ATOM     22  O   UNL     1      -0.376   8.577  21.893  0.00  0.00    +0.000 OA
ENDBRANCH  20  22
ENDBRANCH  18  20
ENDBRANCH  10  18
ENDBRANCH   1  15
BRANCH   2  23
ATOM     23  C   UNL     1      -3.828  11.254  17.867  0.00  0.00    +0.000 A 
ATOM     24  C   UNL     1      -4.388  11.699  16.656  0.00  0.00    +0.000 A 
ATOM     25  C   UNL     1      -4.013  11.143  15.429  0.00  0.00    +0.000 A 
ATOM     26  C   UNL     1      -3.049  10.147  15.398  0.00  0.00    +0.000 A 
ATOM     27  F   UNL     1      -2.679   9.620  14.224  0.00  0.00    +0.000 F 
ATOM     28  C   UNL     1      -2.453   9.704  16.570  0.00  0.00    +0.000 A 
ATOM     29  C   UNL     1      -2.841  10.256  17.798  0.00  0.00    +0.000 A 
ENDBRANCH   2  23
TORSDOF 5
ENDMDL
MODEL 9
REMARK VINA RESULT:      -7.1      3.258      6.963
REMARK  Name = 
REMARK  7 active torsions:
REMARK  status: ('A' for Active; 'I' for Inactive)
REMARK    1  A    between atoms: C_1  and  O_2
REMARK    2  A    between atoms: O_2  and  C_3
REMARK    3  A    between atoms: C_3  and  C_4
REMARK    4  A    between atoms: C_4  and  C_5
REMARK    5  A    between atoms: C_4  and  N_6
REMARK    6  A    between atoms: C_11  and  C_12
REMARK    7  A    between atoms: C_13  and  C_14
REMARK                            x       y       z     vdW  Elec       q    Type
REMARK                         _______ _______ _______ _____ _____    ______ ____
ROOT
ATOM      1  C   UNL     1       4.164   4.536  19.388  0.00  0.00    +0.000 A 
ATOM      2  C   UNL     1       3.048   5.304  19.489  0.00  0.00    +0.000 A 
ATOM      3  C   UNL     1       2.118   4.461  20.346  0.00  0.00    +0.000 A 
ATOM      4  O   UNL     1       1.101   4.845  20.902  0.00  0.00    +0.000 OA
ATOM      5  N   UNL     1       2.706   3.220  20.452  0.00  0.00    +0.000 N 
ATOM      6  N   UNL     1       3.961   3.267  19.891  0.00  0.00    +0.000 N 
ATOM      7  C   UNL     1       4.841   2.325  20.552  0.00  0.00    +0.000 C 
ATOM      8  C   UNL     1       3.833   1.315  21.128  0.00  0.00    +0.000 C 
ATOM      9  C   UNL     1       2.626   2.189  21.464  0.00  0.00    +0.000 C 
ENDROOT
BRANCH   1  15
ATOM     10  N   UNL     1       7.039   4.240  15.619  0.00  0.00    +0.000 N 
ATOM     11  C   UNL     1       6.797   4.642  16.920  0.00  0.00    +0.000 A 
ATOM     12  N   UNL     1       7.799   5.304  17.509  0.00  0.00    +0.000 NA
ATOM     13  C   UNL     1       7.593   5.743  18.764  0.00  0.00    +0.000 A 
ATOM     14  C   UNL     1       6.418   5.556  19.447  0.00  0.00    +0.000 A 
ATOM     15  C   UNL     1       5.448   4.860  18.763  0.00  0.00    +0.000 A 
ATOM     16  N   UNL     1       5.623   4.397  17.507  0.00  0.00    +0.000 NA
ATOM     17  H   UNL     1       7.853   4.752  15.295  0.00  0.00    +0.000 HD
BRANCH  10  18
ATOM     18  C   UNL     1       5.898   4.185  14.701  0.00  0.00    +0.000 C 
ATOM     19  C   UNL     1       5.251   5.572  14.608  0.00  0.00    +0.000 C 
BRANCH  18  20
ATOM     20  C   UNL     1       6.354   3.772  13.279  0.00  0.00    +0.000 C 
BRANCH  20  22
ATOM     21  C   UNL     1       5.507   2.297  11.602  0.00  0.00    +0.000 C 
ATOM     22  O   UNL     1       5.302   3.486  12.353  0.00  0.00    +0.000 OA
ENDBRANCH  20  22
ENDBRANCH  18  20
ENDBRANCH  10  18
ENDBRANCH   1  15
BRANCH   2  23
ATOM     23  C   UNL     1       2.744   6.642  18.953  0.00  0.00    +0.000 A 
ATOM     24  C   UNL     1       2.006   7.569  19.710  0.00  0.00    +0.000 A 
ATOM     25  C   UNL     1       1.744   8.858  19.234  0.00  0.00    +0.000 A 
ATOM     26  C   UNL     1       2.242   9.243  17.999  0.00  0.00    +0.000 A 
ATOM     27  F   UNL     1       2.003  10.480  17.545  0.00  0.00    +0.000 F 
ATOM     28  C   UNL     1       2.999   8.364  17.238  0.00  0.00    +0.000 A 
ATOM     29  C   UNL     1       3.249   7.071  17.713  0.00  0.00    +0.000 A 
ENDBRANCH   2  23
TORSDOF 5
ENDMDL
