MODEL 1
REMARK VINA RESULT:     -10.1      0.000      0.000
REMARK  Name = 
REMARK  4 active torsions:
REMARK  status: ('A' for Active; 'I' for Inactive)
REMARK    1  A    between atoms: C_1  and  C_2
REMARK    2  A    between atoms: C_4  and  C_5
REMARK    3  A    between atoms: C_10  and  O_11
REMARK    4  A    between atoms: O_11  and  C_12
REMARK                            x       y       z     vdW  Elec       q    Type
REMARK                         _______ _______ _______ _____ _____    ______ ____
ROOT
ATOM      1  C   UNL     1       2.725   6.625  18.595  0.00  0.00    +0.000 C 
ATOM      2  C   UNL     1       2.325   6.217  20.033  0.00  0.00    +0.000 C 
ATOM      3  C   UNL     1       1.228   7.036  20.770  0.00  0.00    +0.000 C 
ATOM      4  N   UNL     1       1.348   8.484  20.544  0.00  0.00    +0.000 N 
ATOM      5  C   UNL     1       0.514   9.411  21.240  0.00  0.00    +0.000 A 
ATOM      6  C   UNL     1       0.125   9.257  22.568  0.00  0.00    +0.000 A 
ATOM      7  C   UNL     1      -0.611  10.271  23.215  0.00  0.00    +0.000 A 
ATOM      8  C   UNL     1      -0.960  11.453  22.544  0.00  0.00    +0.000 A 
ATOM      9  C   UNL     1      -1.681  12.529  23.131  0.00  0.00    +0.000 A 
ATOM     10  C   UNL     1      -1.968  13.689  22.411  0.00  0.00    +0.000 A 
ATOM     11  C   UNL     1      -1.536  13.789  21.094  0.00  0.00    +0.000 A 
ATOM     12  C   UNL     1      -0.837  12.726  20.516  0.00  0.00    +0.000 A 
ATOM     13  C   UNL     1      -0.536  11.552  21.214  0.00  0.00    +0.000 A 
ATOM     14  N   UNL     1       0.159  10.564  20.606  0.00  0.00    +0.000 NA
ATOM     15  C   UNL     1       1.405   8.851  19.127  0.00  0.00    +0.000 C 
ATOM     16  C   UNL     1       2.451   8.111  18.317  0.00  0.00    +0.000 C 
ENDROOT
BRANCH   1  17
ATOM     17  O   UNL     1       2.244   5.662  17.581  0.00  0.00    +0.000 OA
BRANCH  17  23
ATOM     18  C   UNL     1       3.693   3.638  17.838  0.00  0.00    +0.000 A 
ATOM     19  N   UNL     1       3.769   2.335  18.282  0.00  0.00    +0.000 NA
ATOM     20  C   UNL     1       2.681   1.760  18.821  0.00  0.00    +0.000 A 
ATOM     21  C   UNL     1       1.497   2.436  18.909  0.00  0.00    +0.000 A 
ATOM     22  N   UNL     1       1.358   3.690  18.436  0.00  0.00    +0.000 NA
ATOM     23  C   UNL     1       2.448   4.316  17.914  0.00  0.00    +0.000 A 
BRANCH  18  27
ATOM     24  C   UNL     1       6.818   4.511  13.956  0.00  0.00    +0.000 C 
ATOM     25  C   UNL     1       6.545   4.500  15.435  0.00  0.00    +0.000 A 
ATOM     26  C   UNL     1       5.302   4.126  15.947  0.00  0.00    +0.000 A 
ATOM     27  C   UNL     1       5.037   4.091  17.350  0.00  0.00    +0.000 A 
ATOM     28  C   UNL     1       6.097   4.475  18.165  0.00  0.00    +0.000 A 
ATOM     29  C   UNL     1       7.310   4.835  17.578  0.00  0.00    +0.000 A 
ATOM     30  N   UNL     1       7.557   4.854  16.248  0.00  0.00    +0.000 NA
ENDBRANCH  18  27
ENDBRANCH  17  23
ENDBRANCH   1  17
TORSDOF 3
ENDMDL
MODEL 2
REMARK VINA RESULT:     -10.1      0.601      1.277
REMARK  Name = 
REMARK  4 active torsions:
REMARK  status: ('A' for Active; 'I' for Inactive)
REMARK    1  A    between atoms: C_1  and  C_2
REMARK    2  A    between atoms: C_4  and  C_5
REMARK    3  A    between atoms: C_10  and  O_11
REMARK    4  A    between atoms: O_11  and  C_12
REMARK                            x       y       z     vdW  Elec       q    Type
REMARK                         _______ _______ _______ _____ _____    ______ ____
ROOT
ATOM      1  C   UNL     1       2.651   6.593  18.653  0.00  0.00    +0.000 C 
ATOM      2  C   UNL     1       2.237   6.206  20.093  0.00  0.00    +0.000 C 
ATOM      3  C   UNL     1       1.157   7.056  20.819  0.00  0.00    +0.000 C 
ATOM      4  N   UNL     1       1.313   8.499  20.582  0.00  0.00    +0.000 N 
ATOM      5  C   UNL     1       0.498   9.451  21.269  0.00  0.00    +0.000 A 
ATOM      6  C   UNL     1       0.101   9.317  22.596  0.00  0.00    +0.000 A 
ATOM      7  C   UNL     1      -0.612  10.353  23.232  0.00  0.00    +0.000 A 
ATOM      8  C   UNL     1      -0.931  11.538  22.551  0.00  0.00    +0.000 A 
ATOM      9  C   UNL     1      -1.628  12.635  23.128  0.00  0.00    +0.000 A 
ATOM     10  C   UNL     1      -1.884  13.796  22.397  0.00  0.00    +0.000 A 
ATOM     11  C   UNL     1      -1.446  13.875  21.082  0.00  0.00    +0.000 A 
ATOM     12  C   UNL     1      -0.770  12.791  20.514  0.00  0.00    +0.000 A 
ATOM     13  C   UNL     1      -0.500  11.617  21.222  0.00  0.00    +0.000 A 
ATOM     14  N   UNL     1       0.173  10.608  20.624  0.00  0.00    +0.000 NA
ATOM     15  C   UNL     1       1.383   8.854  19.163  0.00  0.00    +0.000 C 
ATOM     16  C   UNL     1       2.413   8.082  18.362  0.00  0.00    +0.000 C 
ENDROOT
BRANCH   1  17
ATOM     17  O   UNL     1       2.151   5.633  17.644  0.00  0.00    +0.000 OA
BRANCH  17  23
ATOM     18  C   UNL     1       3.841   3.789  17.576  0.00  0.00    +0.000 A 
ATOM     19  N   UNL     1       4.122   2.483  17.916  0.00  0.00    +0.000 NA
ATOM     20  C   UNL     1       3.190   1.753  18.550  0.00  0.00    +0.000 A 
ATOM     21  C   UNL     1       1.960   2.275  18.834  0.00  0.00    +0.000 A 
ATOM     22  N   UNL     1       1.617   3.526  18.470  0.00  0.00    +0.000 NA
ATOM     23  C   UNL     1       2.549   4.306  17.856  0.00  0.00    +0.000 A 
BRANCH  18  27
ATOM     24  C   UNL     1       7.710   7.028  17.952  0.00  0.00    +0.000 C 
ATOM     25  C   UNL     1       6.921   6.022  17.159  0.00  0.00    +0.000 A 
ATOM     26  C   UNL     1       5.814   5.368  17.700  0.00  0.00    +0.000 A 
ATOM     27  C   UNL     1       5.046   4.427  16.951  0.00  0.00    +0.000 A 
ATOM     28  C   UNL     1       5.491   4.195  15.653  0.00  0.00    +0.000 A 
ATOM     29  C   UNL     1       6.606   4.888  15.183  0.00  0.00    +0.000 A 
ATOM     30  N   UNL     1       7.322   5.788  15.896  0.00  0.00    +0.000 NA
ENDBRANCH  18  27
ENDBRANCH  17  23
ENDBRANCH   1  17
TORSDOF 3
ENDMDL
MODEL 3
REMARK VINA RESULT:      -9.3      1.212      1.877
REMARK  Name = 
REMARK  4 active torsions:
REMARK  status: ('A' for Active; 'I' for Inactive)
REMARK    1  A    between atoms: C_1  and  C_2
REMARK    2  A    between atoms: C_4  and  C_5
REMARK    3  A    between atoms: C_10  and  O_11
REMARK    4  A    between atoms: O_11  and  C_12
REMARK                            x       y       z     vdW  Elec       q    Type
REMARK                         _______ _______ _______ _____ _____    ______ ____
ROOT
ATOM      1  C   UNL     1       2.683   6.759  18.569  0.00  0.00    +0.000 C 
ATOM      2  C   UNL     1       2.112   6.796  20.007  0.00  0.00    +0.000 C 
ATOM      3  C   UNL     1       1.131   7.937  20.398  0.00  0.00    +0.000 C 
ATOM      4  N   UNL     1       1.528   9.243  19.851  0.00  0.00    +0.000 N 
ATOM      5  C   UNL     1       0.827  10.436  20.209  0.00  0.00    +0.000 A 
ATOM      6  C   UNL     1       0.321  10.685  21.481  0.00  0.00    +0.000 A 
ATOM      7  C   UNL     1      -0.264  11.933  21.781  0.00  0.00    +0.000 A 
ATOM      8  C   UNL     1      -0.343  12.947  20.814  0.00  0.00    +0.000 A 
ATOM      9  C   UNL     1      -0.897  14.236  21.044  0.00  0.00    +0.000 A 
ATOM     10  C   UNL     1      -0.916  15.207  20.041  0.00  0.00    +0.000 A 
ATOM     11  C   UNL     1      -0.379  14.902  18.797  0.00  0.00    +0.000 A 
ATOM     12  C   UNL     1       0.156  13.630  18.571  0.00  0.00    +0.000 A 
ATOM     13  C   UNL     1       0.187  12.639  19.556  0.00  0.00    +0.000 A 
ATOM     14  N   UNL     1       0.734  11.433  19.283  0.00  0.00    +0.000 NA
ATOM     15  C   UNL     1       1.753   9.227  18.405  0.00  0.00    +0.000 C 
ATOM     16  C   UNL     1       2.703   8.151  17.918  0.00  0.00    +0.000 C 
ENDROOT
BRANCH   1  17
ATOM     17  O   UNL     1       2.110   5.660  17.762  0.00  0.00    +0.000 OA
BRANCH  17  23
ATOM     18  C   UNL     1       3.874   3.887  17.833  0.00  0.00    +0.000 A 
ATOM     19  N   UNL     1       4.226   2.641  18.309  0.00  0.00    +0.000 NA
ATOM     20  C   UNL     1       3.350   1.955  19.063  0.00  0.00    +0.000 A 
ATOM     21  C   UNL     1       2.111   2.459  19.338  0.00  0.00    +0.000 A 
ATOM     22  N   UNL     1       1.701   3.645  18.848  0.00  0.00    +0.000 NA
ATOM     23  C   UNL     1       2.573   4.383  18.108  0.00  0.00    +0.000 A 
BRANCH  18  27
ATOM     24  C   UNL     1       7.607   7.299  17.662  0.00  0.00    +0.000 C 
ATOM     25  C   UNL     1       6.835   6.175  17.027  0.00  0.00    +0.000 A 
ATOM     26  C   UNL     1       5.779   5.546  17.688  0.00  0.00    +0.000 A 
ATOM     27  C   UNL     1       5.026   4.493  17.087  0.00  0.00    +0.000 A 
ATOM     28  C   UNL     1       5.432   4.125  15.808  0.00  0.00    +0.000 A 
ATOM     29  C   UNL     1       6.497   4.802  15.213  0.00  0.00    +0.000 A 
ATOM     30  N   UNL     1       7.199   5.808  15.784  0.00  0.00    +0.000 NA
ENDBRANCH  18  27
ENDBRANCH  17  23
ENDBRANCH   1  17
TORSDOF 3
ENDMDL
MODEL 4
REMARK VINA RESULT:      -9.1      1.493      4.052
REMARK  Name = 
REMARK  4 active torsions:
REMARK  status: ('A' for Active; 'I' for Inactive)
REMARK    1  A    between atoms: C_1  and  C_2
REMARK    2  A    between atoms: C_4  and  C_5
REMARK    3  A    between atoms: C_10  and  O_11
REMARK    4  A    between atoms: O_11  and  C_12
REMARK                            x       y       z     vdW  Elec       q    Type
REMARK                         _______ _______ _______ _____ _____    ______ ____
ROOT
ATOM      1  C   UNL     1       2.841   7.014  18.498  0.00  0.00    +0.000 C 
ATOM      2  C   UNL     1       2.460   8.089  17.451  0.00  0.00    +0.000 C 
ATOM      3  C   UNL     1       1.884   9.446  17.942  0.00  0.00    +0.000 C 
ATOM      4  N   UNL     1       0.932   9.294  19.052  0.00  0.00    +0.000 N 
ATOM      5  C   UNL     1       0.198  10.413  19.552  0.00  0.00    +0.000 A 
ATOM      6  C   UNL     1      -0.305  11.432  18.748  0.00  0.00    +0.000 A 
ATOM      7  C   UNL     1      -1.112  12.444  19.306  0.00  0.00    +0.000 A 
ATOM      8  C   UNL     1      -1.431  12.446  20.673  0.00  0.00    +0.000 A 
ATOM      9  C   UNL     1      -2.254  13.418  21.306  0.00  0.00    +0.000 A 
ATOM     10  C   UNL     1      -2.554  13.339  22.667  0.00  0.00    +0.000 A 
ATOM     11  C   UNL     1      -2.036  12.287  23.411  0.00  0.00    +0.000 A 
ATOM     12  C   UNL     1      -1.219  11.339  22.788  0.00  0.00    +0.000 A 
ATOM     13  C   UNL     1      -0.902  11.393  21.428  0.00  0.00    +0.000 A 
ATOM     14  N   UNL     1      -0.120  10.437  20.878  0.00  0.00    +0.000 NA
ATOM     15  C   UNL     1       1.465   8.521  20.176  0.00  0.00    +0.000 C 
ATOM     16  C   UNL     1       2.048   7.172  19.804  0.00  0.00    +0.000 C 
ENDROOT
BRANCH   1  17
ATOM     17  O   UNL     1       4.304   6.846  18.628  0.00  0.00    +0.000 OA
BRANCH  17  23
ATOM     18  C   UNL     1       4.350   4.560  17.612  0.00  0.00    +0.000 A 
ATOM     19  N   UNL     1       4.940   3.735  16.677  0.00  0.00    +0.000 NA
ATOM     20  C   UNL     1       5.938   4.213  15.916  0.00  0.00    +0.000 A 
ATOM     21  C   UNL     1       6.395   5.491  16.074  0.00  0.00    +0.000 A 
ATOM     22  N   UNL     1       5.890   6.315  17.013  0.00  0.00    +0.000 NA
ATOM     23  C   UNL     1       4.856   5.875  17.780  0.00  0.00    +0.000 A 
BRANCH  18  27
ATOM     24  C   UNL     1       2.320   2.704  21.858  0.00  0.00    +0.000 C 
ATOM     25  C   UNL     1       2.255   2.937  20.374  0.00  0.00    +0.000 A 
ATOM     26  C   UNL     1       3.258   3.632  19.698  0.00  0.00    +0.000 A 
ATOM     27  C   UNL     1       3.219   3.842  18.286  0.00  0.00    +0.000 A 
ATOM     28  C   UNL     1       2.102   3.322  17.639  0.00  0.00    +0.000 A 
ATOM     29  C   UNL     1       1.142   2.639  18.383  0.00  0.00    +0.000 A 
ATOM     30  N   UNL     1       1.192   2.434  19.720  0.00  0.00    +0.000 NA
ENDBRANCH  18  27
ENDBRANCH  17  23
ENDBRANCH   1  17
TORSDOF 3
ENDMDL
MODEL 5
REMARK VINA RESULT:      -9.0      1.483      2.503
REMARK  Name = 
REMARK  4 active torsions:
REMARK  status: ('A' for Active; 'I' for Inactive)
REMARK    1  A    between atoms: C_1  and  C_2
REMARK    2  A    between atoms: C_4  and  C_5
REMARK    3  A    between atoms: C_10  and  O_11
REMARK    4  A    between atoms: O_11  and  C_12
REMARK                            x       y       z     vdW  Elec       q    Type
REMARK                         _______ _______ _______ _____ _____    ______ ____
ROOT
ATOM      1  C   UNL     1       2.136   6.795  19.429  0.00  0.00    +0.000 C 
ATOM      2  C   UNL     1       2.114   7.770  18.228  0.00  0.00    +0.000 C 
ATOM      3  C   UNL     1       1.885   9.285  18.494  0.00  0.00    +0.000 C 
ATOM      4  N   UNL     1       0.862   9.536  19.519  0.00  0.00    +0.000 N 
ATOM      5  C   UNL     1       0.418  10.863  19.808  0.00  0.00    +0.000 A 
ATOM      6  C   UNL     1       0.249  11.851  18.842  0.00  0.00    +0.000 A 
ATOM      7  C   UNL     1      -0.296  13.102  19.194  0.00  0.00    +0.000 A 
ATOM      8  C   UNL     1      -0.685  13.378  20.513  0.00  0.00    +0.000 A 
ATOM      9  C   UNL     1      -1.261  14.606  20.943  0.00  0.00    +0.000 A 
ATOM     10  C   UNL     1      -1.652  14.799  22.269  0.00  0.00    +0.000 A 
ATOM     11  C   UNL     1      -1.473  13.767  23.182  0.00  0.00    +0.000 A 
ATOM     12  C   UNL     1      -0.898  12.565  22.759  0.00  0.00    +0.000 A 
ATOM     13  C   UNL     1      -0.497  12.345  21.438  0.00  0.00    +0.000 A 
ATOM     14  N   UNL     1       0.039  11.154  21.085  0.00  0.00    +0.000 NA
ATOM     15  C   UNL     1       1.105   8.822  20.774  0.00  0.00    +0.000 C 
ATOM     16  C   UNL     1       1.335   7.331  20.626  0.00  0.00    +0.000 C 
ENDROOT
BRANCH   1  17
ATOM     17  O   UNL     1       3.494   6.284  19.716  0.00  0.00    +0.000 OA
BRANCH  17  23
ATOM     18  C   UNL     1       4.592   4.265  18.726  0.00  0.00    +0.000 A 
ATOM     19  N   UNL     1       4.682   2.889  18.741  0.00  0.00    +0.000 NA
ATOM     20  C   UNL     1       3.906   2.189  19.584  0.00  0.00    +0.000 A 
ATOM     21  C   UNL     1       3.011   2.816  20.402  0.00  0.00    +0.000 A 
ATOM     22  N   UNL     1       2.845   4.153  20.383  0.00  0.00    +0.000 NA
ATOM     23  C   UNL     1       3.638   4.898  19.565  0.00  0.00    +0.000 A 
BRANCH  18  27
ATOM     24  C   UNL     1       7.849   7.957  17.557  0.00  0.00    +0.000 C 
ATOM     25  C   UNL     1       7.175   6.655  17.219  0.00  0.00    +0.000 A 
ATOM     26  C   UNL     1       6.260   6.058  18.087  0.00  0.00    +0.000 A 
ATOM     27  C   UNL     1       5.598   4.834  17.769  0.00  0.00    +0.000 A 
ATOM     28  C   UNL     1       5.945   4.270  16.545  0.00  0.00    +0.000 A 
ATOM     29  C   UNL     1       6.867   4.928  15.732  0.00  0.00    +0.000 A 
ATOM     30  N   UNL     1       7.482   6.095  16.035  0.00  0.00    +0.000 NA
ENDBRANCH  18  27
ENDBRANCH  17  23
ENDBRANCH   1  17
TORSDOF 3
ENDMDL
MODEL 6
REMARK VINA RESULT:      -8.9      1.358      2.188
REMARK  Name = 
REMARK  4 active torsions:
REMARK  status: ('A' for Active; 'I' for Inactive)
REMARK    1  A    between atoms: C_1  and  C_2
REMARK    2  A    between atoms: C_4  and  C_5
REMARK    3  A    between atoms: C_10  and  O_11
REMARK    4  A    between atoms: O_11  and  C_12
REMARK                            x       y       z     vdW  Elec       q    Type
REMARK                         _______ _______ _______ _____ _____    ______ ____
ROOT
ATOM      1  C   UNL     1       2.205   6.780  19.373  0.00  0.00    +0.000 C 
ATOM      2  C   UNL     1       2.211   7.766  18.180  0.00  0.00    +0.000 C 
ATOM      3  C   UNL     1       1.988   9.280  18.456  0.00  0.00    +0.000 C 
ATOM      4  N   UNL     1       0.950   9.530  19.465  0.00  0.00    +0.000 N 
ATOM      5  C   UNL     1       0.510  10.858  19.758  0.00  0.00    +0.000 A 
ATOM      6  C   UNL     1       0.366  11.856  18.799  0.00  0.00    +0.000 A 
ATOM      7  C   UNL     1      -0.176  13.108  19.152  0.00  0.00    +0.000 A 
ATOM      8  C   UNL     1      -0.586  13.375  20.467  0.00  0.00    +0.000 A 
ATOM      9  C   UNL     1      -1.160  14.603  20.898  0.00  0.00    +0.000 A 
ATOM     10  C   UNL     1      -1.573  14.787  22.219  0.00  0.00    +0.000 A 
ATOM     11  C   UNL     1      -1.418  13.746  23.125  0.00  0.00    +0.000 A 
ATOM     12  C   UNL     1      -0.844  12.544  22.701  0.00  0.00    +0.000 A 
ATOM     13  C   UNL     1      -0.422  12.332  21.386  0.00  0.00    +0.000 A 
ATOM     14  N   UNL     1       0.111  11.140  21.031  0.00  0.00    +0.000 NA
ATOM     15  C   UNL     1       1.165   8.803  20.718  0.00  0.00    +0.000 C 
ATOM     16  C   UNL     1       1.387   7.311  20.560  0.00  0.00    +0.000 C 
ENDROOT
BRANCH   1  17
ATOM     17  O   UNL     1       3.553   6.256  19.679  0.00  0.00    +0.000 OA
BRANCH  17  23
ATOM     18  C   UNL     1       4.567   4.197  18.683  0.00  0.00    +0.000 A 
ATOM     19  N   UNL     1       4.648   2.821  18.737  0.00  0.00    +0.000 NA
ATOM     20  C   UNL     1       3.927   2.156  19.653  0.00  0.00    +0.000 A 
ATOM     21  C   UNL     1       3.094   2.817  20.510  0.00  0.00    +0.000 A 
ATOM     22  N   UNL     1       2.937   4.154  20.458  0.00  0.00    +0.000 NA
ATOM     23  C   UNL     1       3.677   4.865  19.564  0.00  0.00    +0.000 A 
BRANCH  18  27
ATOM     24  C   UNL     1       6.331   4.004  13.945  0.00  0.00    +0.000 C 
ATOM     25  C   UNL     1       6.358   4.602  15.325  0.00  0.00    +0.000 A 
ATOM     26  C   UNL     1       5.480   4.180  16.323  0.00  0.00    +0.000 A 
ATOM     27  C   UNL     1       5.509   4.725  17.642  0.00  0.00    +0.000 A 
ATOM     28  C   UNL     1       6.460   5.718  17.854  0.00  0.00    +0.000 A 
ATOM     29  C   UNL     1       7.303   6.087  16.806  0.00  0.00    +0.000 A 
ATOM     30  N   UNL     1       7.277   5.557  15.561  0.00  0.00    +0.000 NA
ENDBRANCH  18  27
ENDBRANCH  17  23
ENDBRANCH   1  17
TORSDOF 3
ENDMDL
MODEL 7
REMARK VINA RESULT:      -8.8      1.457      3.815
REMARK  Name = 
REMARK  4 active torsions:
REMARK  status: ('A' for Active; 'I' for Inactive)
REMARK    1  A    between atoms: C_1  and  C_2
REMARK    2  A    between atoms: C_4  and  C_5
REMARK    3  A    between atoms: C_10  and  O_11
REMARK    4  A    between atoms: O_11  and  C_12
REMARK                            x       y       z     vdW  Elec       q    Type
REMARK                         _______ _______ _______ _____ _____    ______ ____
ROOT
ATOM      1  C   UNL     1       3.068   6.959  18.214  0.00  0.00    +0.000 C 
ATOM      2  C   UNL     1       2.599   8.047  17.217  0.00  0.00    +0.000 C 
ATOM      3  C   UNL     1       1.983   9.361  17.774  0.00  0.00    +0.000 C 
ATOM      4  N   UNL     1       1.084   9.132  18.915  0.00  0.00    +0.000 N 
ATOM      5  C   UNL     1       0.321  10.200  19.479  0.00  0.00    +0.000 A 
ATOM      6  C   UNL     1      -0.258  11.220  18.728  0.00  0.00    +0.000 A 
ATOM      7  C   UNL     1      -1.086  12.176  19.349  0.00  0.00    +0.000 A 
ATOM      8  C   UNL     1      -1.350  12.121  20.726  0.00  0.00    +0.000 A 
ATOM      9  C   UNL     1      -2.190  13.034  21.422  0.00  0.00    +0.000 A 
ATOM     10  C   UNL     1      -2.431  12.900  22.790  0.00  0.00    +0.000 A 
ATOM     11  C   UNL     1      -1.837  11.851  23.480  0.00  0.00    +0.000 A 
ATOM     12  C   UNL     1      -1.005  10.961  22.795  0.00  0.00    +0.000 A 
ATOM     13  C   UNL     1      -0.745  11.071  21.426  0.00  0.00    +0.000 A 
ATOM     14  N   UNL     1       0.056  10.169  20.816  0.00  0.00    +0.000 NA
ATOM     15  C   UNL     1       1.695   8.350  19.992  0.00  0.00    +0.000 C 
ATOM     16  C   UNL     1       2.322   7.041  19.554  0.00  0.00    +0.000 C 
ENDROOT
BRANCH   1  17
ATOM     17  O   UNL     1       4.542   6.854  18.281  0.00  0.00    +0.000 OA
BRANCH  17  23
ATOM     18  C   UNL     1       4.877   4.524  17.433  0.00  0.00    +0.000 A 
ATOM     19  N   UNL     1       5.421   3.735  16.441  0.00  0.00    +0.000 NA
ATOM     20  C   UNL     1       6.099   4.316  15.438  0.00  0.00    +0.000 A 
ATOM     21  C   UNL     1       6.283   5.669  15.402  0.00  0.00    +0.000 A 
ATOM     22  N   UNL     1       5.821   6.475  16.377  0.00  0.00    +0.000 NA
ATOM     23  C   UNL     1       5.101   5.926  17.393  0.00  0.00    +0.000 A 
BRANCH  18  27
ATOM     24  C   UNL     1       0.491   2.387  18.773  0.00  0.00    +0.000 C 
ATOM     25  C   UNL     1       1.950   2.649  19.034  0.00  0.00    +0.000 A 
ATOM     26  C   UNL     1       2.727   3.400  18.152  0.00  0.00    +0.000 A 
ATOM     27  C   UNL     1       4.106   3.674  18.398  0.00  0.00    +0.000 A 
ATOM     28  C   UNL     1       4.622   3.122  19.567  0.00  0.00    +0.000 A 
ATOM     29  C   UNL     1       3.781   2.384  20.399  0.00  0.00    +0.000 A 
ATOM     30  N   UNL     1       2.471   2.138  20.164  0.00  0.00    +0.000 NA
ENDBRANCH  18  27
ENDBRANCH  17  23
ENDBRANCH   1  17
TORSDOF 3
ENDMDL
MODEL 8
REMARK VINA RESULT:      -8.8      2.889      9.935
REMARK  Name = 
REMARK  4 active torsions:
REMARK  status: ('A' for Active; 'I' for Inactive)
REMARK    1  A    between atoms: C_1  and  C_2
REMARK    2  A    between atoms: C_4  and  C_5
REMARK    3  A    between atoms: C_10  and  O_11
REMARK    4  A    between atoms: O_11  and  C_12
REMARK                            x       y       z     vdW  Elec       q    Type
REMARK                         _______ _______ _______ _____ _____    ______ ____
ROOT
ATOM      1  C   UNL     1       0.323  10.590  21.598  0.00  0.00    +0.000 C 
ATOM      2  C   UNL     1       0.826  10.765  20.145  0.00  0.00    +0.000 C 
ATOM      3  C   UNL     1       1.115   9.498  19.291  0.00  0.00    +0.000 C 
ATOM      4  N   UNL     1       1.779   8.433  20.057  0.00  0.00    +0.000 N 
ATOM      5  C   UNL     1       2.244   7.244  19.415  0.00  0.00    +0.000 A 
ATOM      6  C   UNL     1       2.811   7.220  18.144  0.00  0.00    +0.000 A 
ATOM      7  C   UNL     1       3.343   6.022  17.627  0.00  0.00    +0.000 A 
ATOM      8  C   UNL     1       3.319   4.835  18.376  0.00  0.00    +0.000 A 
ATOM      9  C   UNL     1       3.853   3.593  17.933  0.00  0.00    +0.000 A 
ATOM     10  C   UNL     1       3.820   2.459  18.746  0.00  0.00    +0.000 A 
ATOM     11  C   UNL     1       3.256   2.552  20.011  0.00  0.00    +0.000 A 
ATOM     12  C   UNL     1       2.723   3.772  20.440  0.00  0.00    +0.000 A 
ATOM     13  C   UNL     1       2.742   4.923  19.647  0.00  0.00    +0.000 A 
ATOM     14  N   UNL     1       2.225   6.079  20.123  0.00  0.00    +0.000 NA
ATOM     15  C   UNL     1       1.078   8.076  21.292  0.00  0.00    +0.000 C 
ATOM     16  C   UNL     1       0.754   9.245  22.202  0.00  0.00    +0.000 C 
ENDROOT
BRANCH   1  17
ATOM     17  O   UNL     1      -1.101  10.959  21.750  0.00  0.00    +0.000 OA
BRANCH  17  23
ATOM     18  C   UNL     1      -2.269  12.936  20.756  0.00  0.00    +0.000 A 
ATOM     19  N   UNL     1      -2.490  14.295  20.838  0.00  0.00    +0.000 NA
ATOM     20  C   UNL     1      -1.882  15.002  21.805  0.00  0.00    +0.000 A 
ATOM     21  C   UNL     1      -1.027  14.402  22.685  0.00  0.00    +0.000 A 
ATOM     22  N   UNL     1      -0.734  13.089  22.608  0.00  0.00    +0.000 NA
ATOM     23  C   UNL     1      -1.358  12.334  21.663  0.00  0.00    +0.000 A 
BRANCH  18  27
ATOM     24  C   UNL     1      -2.515  10.337  16.422  0.00  0.00    +0.000 C 
ATOM     25  C   UNL     1      -3.195  11.084  17.537  0.00  0.00    +0.000 A 
ATOM     26  C   UNL     1      -2.474  11.619  18.605  0.00  0.00    +0.000 A 
ATOM     27  C   UNL     1      -3.105  12.347  19.658  0.00  0.00    +0.000 A 
ATOM     28  C   UNL     1      -4.487  12.466  19.554  0.00  0.00    +0.000 A 
ATOM     29  C   UNL     1      -5.137  11.904  18.456  0.00  0.00    +0.000 A 
ATOM     30  N   UNL     1      -4.530  11.224  17.455  0.00  0.00    +0.000 NA
ENDBRANCH  18  27
ENDBRANCH  17  23
ENDBRANCH   1  17
TORSDOF 3
ENDMDL
MODEL 9
REMARK VINA RESULT:      -8.6      2.919      9.978
REMARK  Name = 
REMARK  4 active torsions:
REMARK  status: ('A' for Active; 'I' for Inactive)
REMARK    1  A    between atoms: C_1  and  C_2
REMARK    2  A    between atoms: C_4  and  C_5
REMARK    3  A    between atoms: C_10  and  O_11
REMARK    4  A    between atoms: O_11  and  C_12
REMARK                            x       y       z     vdW  Elec       q    Type
REMARK                         _______ _______ _______ _____ _____    ______ ____
ROOT
ATOM      1  C   UNL     1       0.308  10.591  21.681  0.00  0.00    +0.000 C 
ATOM      2  C   UNL     1       0.853  10.789  20.246  0.00  0.00    +0.000 C 
ATOM      3  C   UNL     1       1.135   9.537  19.369  0.00  0.00    +0.000 C 
ATOM      4  N   UNL     1       1.754   8.438  20.124  0.00  0.00    +0.000 N 
ATOM      5  C   UNL     1       2.208   7.254  19.466  0.00  0.00    +0.000 A 
ATOM      6  C   UNL     1       2.808   7.248  18.210  0.00  0.00    +0.000 A 
ATOM      7  C   UNL     1       3.326   6.051  17.676  0.00  0.00    +0.000 A 
ATOM      8  C   UNL     1       3.255   4.847  18.394  0.00  0.00    +0.000 A 
ATOM      9  C   UNL     1       3.771   3.604  17.935  0.00  0.00    +0.000 A 
ATOM     10  C   UNL     1       3.691   2.451  18.718  0.00  0.00    +0.000 A 
ATOM     11  C   UNL     1       3.095   2.527  19.970  0.00  0.00    +0.000 A 
ATOM     12  C   UNL     1       2.579   3.748  20.415  0.00  0.00    +0.000 A 
ATOM     13  C   UNL     1       2.646   4.917  19.652  0.00  0.00    +0.000 A 
ATOM     14  N   UNL     1       2.144   6.073  20.144  0.00  0.00    +0.000 NA
ATOM     15  C   UNL     1       1.012   8.068  21.331  0.00  0.00    +0.000 C 
ATOM     16  C   UNL     1       0.691   9.221  22.262  0.00  0.00    +0.000 C 
ENDROOT
BRANCH   1  17
ATOM     17  O   UNL     1      -1.111  10.990  21.806  0.00  0.00    +0.000 OA
BRANCH  17  23
ATOM     18  C   UNL     1      -2.080  12.908  20.524  0.00  0.00    +0.000 A 
ATOM     19  N   UNL     1      -2.315  14.267  20.502  0.00  0.00    +0.000 NA
ATOM     20  C   UNL     1      -1.896  15.023  21.531  0.00  0.00    +0.000 A 
ATOM     21  C   UNL     1      -1.216  14.471  22.579  0.00  0.00    +0.000 A 
ATOM     22  N   UNL     1      -0.912  13.159  22.618  0.00  0.00    +0.000 NA
ATOM     23  C   UNL     1      -1.350  12.357  21.610  0.00  0.00    +0.000 A 
BRANCH  18  27
ATOM     24  C   UNL     1      -6.219  11.174  18.188  0.00  0.00    +0.000 C 
ATOM     25  C   UNL     1      -4.735  11.416  18.206  0.00  0.00    +0.000 A 
ATOM     26  C   UNL     1      -4.109  12.046  19.281  0.00  0.00    +0.000 A 
ATOM     27  C   UNL     1      -2.698  12.263  19.320  0.00  0.00    +0.000 A 
ATOM     28  C   UNL     1      -1.998  11.819  18.202  0.00  0.00    +0.000 A 
ATOM     29  C   UNL     1      -2.695  11.196  17.167  0.00  0.00    +0.000 A 
ATOM     30  N   UNL     1      -4.031  10.984  17.143  0.00  0.00    +0.000 NA
ENDBRANCH  18  27
ENDBRANCH  17  23
ENDBRANCH   1  17
TORSDOF 3
ENDMDL
