MODEL 1
REMARK VINA RESULT:      -9.3      0.000      0.000
REMARK  Name = 
REMARK  5 active torsions:
REMARK  status: ('A' for Active; 'I' for Inactive)
REMARK    1  A    between atoms: C_1  and  N_2
REMARK    2  A    between atoms: C_3  and  C_4
REMARK    3  A    between atoms: C_7  and  C_8
REMARK    4  A    between atoms: C_18  and  C_19
REMARK    5  A    between atoms: C_19  and  C_20
REMARK                            x       y       z     vdW  Elec       q    Type
REMARK                         _______ _______ _______ _____ _____    ______ ____
ROOT
ATOM      1  C   UNL     1       2.175   5.154  19.912  0.00  0.00    +0.000 C 
ATOM      2  N   UNL     1       2.849   5.947  18.918  0.00  0.00    +0.000 N 
ATOM      3  C   UNL     1       2.697   7.286  18.637  0.00  0.00    +0.000 A 
ATOM      4  N   UNL     1       3.484   7.583  17.617  0.00  0.00    +0.000 NA
ATOM      5  N   UNL     1       4.154   6.456  17.231  0.00  0.00    +0.000 NA
ATOM      6  C   UNL     1       3.746   5.466  17.993  0.00  0.00    +0.000 A 
ENDROOT
BRANCH   3   7
ATOM      7  C   UNL     1       1.804   8.238  19.287  0.00  0.00    +0.000 A 
ATOM      8  C   UNL     1       1.520   8.173  20.653  0.00  0.00    +0.000 A 
ATOM      9  C   UNL     1       0.650   9.090  21.243  0.00  0.00    +0.000 A 
ATOM     10  C   UNL     1       0.080  10.149  20.513  0.00  0.00    +0.000 A 
ATOM     11  C   UNL     1       0.401  10.226  19.149  0.00  0.00    +0.000 A 
ATOM     12  C   UNL     1       1.241   9.281  18.544  0.00  0.00    +0.000 A 
BRANCH  10  13
ATOM     13  C   UNL     1      -0.797  11.145  21.175  0.00  0.00    +0.000 A 
ATOM     14  C   UNL     1      -1.553  12.062  20.414  0.00  0.00    +0.000 A 
ATOM     15  C   UNL     1      -2.367  13.021  21.024  0.00  0.00    +0.000 A 
ATOM     16  C   UNL     1      -2.462  13.075  22.408  0.00  0.00    +0.000 A 
ATOM     17  C   UNL     1      -1.738  12.173  23.180  0.00  0.00    +0.000 A 
ATOM     18  C   UNL     1      -0.908  11.225  22.572  0.00  0.00    +0.000 A 
ENDBRANCH  10  13
ENDBRANCH   3   7
BRANCH   6  19
ATOM     19  C   UNL     1       4.036   3.992  17.643  0.00  0.00    +0.000 C 
ATOM     20  C   UNL     1       4.325   3.107  18.897  0.00  0.00    +0.000 C 
ATOM     21  C   UNL     1       3.500   1.995  18.214  0.00  0.00    +0.000 C 
ATOM     22  C   UNL     1       2.769   3.107  17.429  0.00  0.00    +0.000 C 
BRANCH  19  23
ATOM     23  C   UNL     1       5.170   4.055  16.475  0.00  0.00    +0.000 A 
ATOM     24  C   UNL     1       6.474   4.518  16.776  0.00  0.00    +0.000 A 
ATOM     25  C   UNL     1       7.376   4.907  15.781  0.00  0.00    +0.000 A 
ATOM     26  C   UNL     1       7.007   4.806  14.448  0.00  0.00    +0.000 A 
ATOM     27 CL   UNL     1       8.040   5.422  13.221  0.00  0.00    +0.000 Cl
ATOM     28  C   UNL     1       5.780   4.249  14.105  0.00  0.00    +0.000 A 
ATOM     29  C   UNL     1       4.884   3.862  15.109  0.00  0.00    +0.000 A 
ENDBRANCH  19  23
ENDBRANCH   6  19
TORSDOF 4
ENDMDL
MODEL 2
REMARK VINA RESULT:      -9.3      0.120      1.264
REMARK  Name = 
REMARK  5 active torsions:
REMARK  status: ('A' for Active; 'I' for Inactive)
REMARK    1  A    between atoms: C_1  and  N_2
REMARK    2  A    between atoms: C_3  and  C_4
REMARK    3  A    between atoms: C_7  and  C_8
REMARK    4  A    between atoms: C_18  and  C_19
REMARK    5  A    between atoms: C_19  and  C_20
REMARK                            x       y       z     vdW  Elec       q    Type
REMARK                         _______ _______ _______ _____ _____    ______ ____
ROOT
ATOM      1  C   UNL     1       2.099   5.204  19.797  0.00  0.00    +0.000 C 
ATOM      2  N   UNL     1       2.820   5.993  18.833  0.00  0.00    +0.000 N 
ATOM      3  C   UNL     1       2.714   7.341  18.570  0.00  0.00    +0.000 A 
ATOM      4  N   UNL     1       3.533   7.630  17.575  0.00  0.00    +0.000 NA
ATOM      5  N   UNL     1       4.180   6.491  17.187  0.00  0.00    +0.000 NA
ATOM      6  C   UNL     1       3.726   5.501  17.923  0.00  0.00    +0.000 A 
ENDROOT
BRANCH   3   7
ATOM      7  C   UNL     1       1.832   8.307  19.214  0.00  0.00    +0.000 A 
ATOM      8  C   UNL     1       1.166   9.300  18.491  0.00  0.00    +0.000 A 
ATOM      9  C   UNL     1       0.340  10.219  19.139  0.00  0.00    +0.000 A 
ATOM     10  C   UNL     1       0.090  10.146  20.522  0.00  0.00    +0.000 A 
ATOM     11  C   UNL     1       0.736   9.123  21.232  0.00  0.00    +0.000 A 
ATOM     12  C   UNL     1       1.600   8.224  20.591  0.00  0.00    +0.000 A 
BRANCH  10  13
ATOM     13  C   UNL     1      -0.837  11.100  21.178  0.00  0.00    +0.000 A 
ATOM     14  C   UNL     1      -1.032  11.073  22.575  0.00  0.00    +0.000 A 
ATOM     15  C   UNL     1      -1.919  11.950  23.206  0.00  0.00    +0.000 A 
ATOM     16  C   UNL     1      -2.617  12.889  22.460  0.00  0.00    +0.000 A 
ATOM     17  C   UNL     1      -2.432  12.947  21.083  0.00  0.00    +0.000 A 
ATOM     18  C   UNL     1      -1.559  12.057  20.448  0.00  0.00    +0.000 A 
ENDBRANCH  10  13
ENDBRANCH   3   7
BRANCH   6  19
ATOM     19  C   UNL     1       3.983   4.025  17.556  0.00  0.00    +0.000 C 
ATOM     20  C   UNL     1       4.240   3.117  18.800  0.00  0.00    +0.000 C 
ATOM     21  C   UNL     1       3.393   2.035  18.096  0.00  0.00    +0.000 C 
ATOM     22  C   UNL     1       2.696   3.174  17.320  0.00  0.00    +0.000 C 
BRANCH  19  23
ATOM     23  C   UNL     1       5.128   4.075  16.397  0.00  0.00    +0.000 A 
ATOM     24  C   UNL     1       6.440   4.503  16.714  0.00  0.00    +0.000 A 
ATOM     25  C   UNL     1       7.359   4.882  15.732  0.00  0.00    +0.000 A 
ATOM     26  C   UNL     1       6.998   4.806  14.394  0.00  0.00    +0.000 A 
ATOM     27 CL   UNL     1       8.056   5.413  13.183  0.00  0.00    +0.000 Cl
ATOM     28  C   UNL     1       5.762   4.283  14.035  0.00  0.00    +0.000 A 
ATOM     29  C   UNL     1       4.848   3.905  15.027  0.00  0.00    +0.000 A 
ENDBRANCH  19  23
ENDBRANCH   6  19
TORSDOF 4
ENDMDL
MODEL 3
REMARK VINA RESULT:      -8.7      3.803     10.131
REMARK  Name = 
REMARK  5 active torsions:
REMARK  status: ('A' for Active; 'I' for Inactive)
REMARK    1  A    between atoms: C_1  and  N_2
REMARK    2  A    between atoms: C_3  and  C_4
REMARK    3  A    between atoms: C_7  and  C_8
REMARK    4  A    between atoms: C_18  and  C_19
REMARK    5  A    between atoms: C_19  and  C_20
REMARK                            x       y       z     vdW  Elec       q    Type
REMARK                         _______ _______ _______ _____ _____    ______ ____
ROOT
ATOM      1  C   UNL     1       1.248  11.883  19.972  0.00  0.00    +0.000 C 
ATOM      2  N   UNL     1       0.531  10.978  20.831  0.00  0.00    +0.000 N 
ATOM      3  C   UNL     1       0.585   9.602  20.869  0.00  0.00    +0.000 A 
ATOM      4  N   UNL     1      -0.273   9.183  21.782  0.00  0.00    +0.000 NA
ATOM      5  N   UNL     1      -0.884  10.267  22.347  0.00  0.00    +0.000 NA
ATOM      6  C   UNL     1      -0.423  11.344  21.750  0.00  0.00    +0.000 A 
ENDROOT
BRANCH   3   7
ATOM      7  C   UNL     1       1.394   8.719  20.037  0.00  0.00    +0.000 A 
ATOM      8  C   UNL     1       1.839   7.475  20.490  0.00  0.00    +0.000 A 
ATOM      9  C   UNL     1       2.623   6.659  19.674  0.00  0.00    +0.000 A 
ATOM     10  C   UNL     1       2.939   7.017  18.351  0.00  0.00    +0.000 A 
ATOM     11  C   UNL     1       2.456   8.252  17.893  0.00  0.00    +0.000 A 
ATOM     12  C   UNL     1       1.705   9.094  18.725  0.00  0.00    +0.000 A 
BRANCH  10  13
ATOM     13  C   UNL     1       3.727   6.106  17.484  0.00  0.00    +0.000 A 
ATOM     14  C   UNL     1       3.517   4.712  17.523  0.00  0.00    +0.000 A 
ATOM     15  C   UNL     1       4.266   3.838  16.729  0.00  0.00    +0.000 A 
ATOM     16  C   UNL     1       5.230   4.337  15.864  0.00  0.00    +0.000 A 
ATOM     17  C   UNL     1       5.446   5.709  15.797  0.00  0.00    +0.000 A 
ATOM     18  C   UNL     1       4.710   6.583  16.604  0.00  0.00    +0.000 A 
ENDBRANCH  10  13
ENDBRANCH   3   7
BRANCH   6  19
ATOM     19  C   UNL     1      -1.112  12.716  21.895  0.00  0.00    +0.000 C 
ATOM     20  C   UNL     1      -1.456  13.079  23.374  0.00  0.00    +0.000 C 
ATOM     21  C   UNL     1      -1.023  14.524  23.045  0.00  0.00    +0.000 C 
ATOM     22  C   UNL     1      -0.141  13.938  21.921  0.00  0.00    +0.000 C 
BRANCH  19  23
ATOM     23  C   UNL     1      -2.329  12.690  20.811  0.00  0.00    +0.000 A 
ATOM     24  C   UNL     1      -3.657  12.950  21.229  0.00  0.00    +0.000 A 
ATOM     25  C   UNL     1      -4.764  12.622  20.441  0.00  0.00    +0.000 A 
ATOM     26  C   UNL     1      -4.568  12.057  19.189  0.00  0.00    +0.000 A 
ATOM     27 CL   UNL     1      -5.915  11.507  18.274  0.00  0.00    +0.000 Cl
ATOM     28  C   UNL     1      -3.280  11.893  18.694  0.00  0.00    +0.000 A 
ATOM     29  C   UNL     1      -2.177  12.224  19.490  0.00  0.00    +0.000 A 
ENDBRANCH  19  23
ENDBRANCH   6  19
TORSDOF 4
ENDMDL
MODEL 4
REMARK VINA RESULT:      -8.7      4.324     10.719
REMARK  Name = 
REMARK  5 active torsions:
REMARK  status: ('A' for Active; 'I' for Inactive)
REMARK    1  A    between atoms: C_1  and  N_2
REMARK    2  A    between atoms: C_3  and  C_4
REMARK    3  A    between atoms: C_7  and  C_8
REMARK    4  A    between atoms: C_18  and  C_19
REMARK    5  A    between atoms: C_19  and  C_20
REMARK                            x       y       z     vdW  Elec       q    Type
REMARK                         _______ _______ _______ _____ _____    ______ ____
ROOT
ATOM      1  C   UNL     1       0.090  12.186  19.520  0.00  0.00    +0.000 C 
ATOM      2  N   UNL     1       0.010  11.616  20.839  0.00  0.00    +0.000 N 
ATOM      3  C   UNL     1       0.413  10.370  21.265  0.00  0.00    +0.000 A 
ATOM      4  N   UNL     1       0.109  10.256  22.545  0.00  0.00    +0.000 NA
ATOM      5  N   UNL     1      -0.483  11.414  22.966  0.00  0.00    +0.000 NA
ATOM      6  C   UNL     1      -0.571  12.218  21.930  0.00  0.00    +0.000 A 
ENDROOT
BRANCH   3   7
ATOM      7  C   UNL     1       1.026   9.312  20.470  0.00  0.00    +0.000 A 
ATOM      8  C   UNL     1       1.407   9.509  19.141  0.00  0.00    +0.000 A 
ATOM      9  C   UNL     1       1.978   8.472  18.403  0.00  0.00    +0.000 A 
ATOM     10  C   UNL     1       2.255   7.218  18.976  0.00  0.00    +0.000 A 
ATOM     11  C   UNL     1       1.900   7.042  20.322  0.00  0.00    +0.000 A 
ATOM     12  C   UNL     1       1.287   8.068  21.054  0.00  0.00    +0.000 A 
BRANCH  10  13
ATOM     13  C   UNL     1       2.914   6.149  18.187  0.00  0.00    +0.000 A 
ATOM     14  C   UNL     1       2.347   4.860  18.100  0.00  0.00    +0.000 A 
ATOM     15  C   UNL     1       2.967   3.836  17.378  0.00  0.00    +0.000 A 
ATOM     16  C   UNL     1       4.159   4.080  16.710  0.00  0.00    +0.000 A 
ATOM     17  C   UNL     1       4.732   5.346  16.767  0.00  0.00    +0.000 A 
ATOM     18  C   UNL     1       4.121   6.366  17.505  0.00  0.00    +0.000 A 
ENDBRANCH  10  13
ENDBRANCH   3   7
BRANCH   6  19
ATOM     19  C   UNL     1      -1.465  13.475  21.945  0.00  0.00    +0.000 C 
ATOM     20  C   UNL     1      -1.284  14.344  23.230  0.00  0.00    +0.000 C 
ATOM     21  C   UNL     1      -1.386  15.585  22.318  0.00  0.00    +0.000 C 
ATOM     22  C   UNL     1      -0.895  14.695  21.156  0.00  0.00    +0.000 C 
BRANCH  19  23
ATOM     23  C   UNL     1      -2.960  12.929  21.595  0.00  0.00    +0.000 A 
ATOM     24  C   UNL     1      -3.362  12.775  20.246  0.00  0.00    +0.000 A 
ATOM     25  C   UNL     1      -4.703  12.636  19.879  0.00  0.00    +0.000 A 
ATOM     26  C   UNL     1      -5.681  12.609  20.862  0.00  0.00    +0.000 A 
ATOM     27 CL   UNL     1      -7.343  12.595  20.422  0.00  0.00    +0.000 Cl
ATOM     28  C   UNL     1      -5.320  12.641  22.204  0.00  0.00    +0.000 A 
ATOM     29  C   UNL     1      -3.974  12.779  22.562  0.00  0.00    +0.000 A 
ENDBRANCH  19  23
ENDBRANCH   6  19
TORSDOF 4
ENDMDL
MODEL 5
REMARK VINA RESULT:      -8.7      4.177     10.437
REMARK  Name = 
REMARK  5 active torsions:
REMARK  status: ('A' for Active; 'I' for Inactive)
REMARK    1  A    between atoms: C_1  and  N_2
REMARK    2  A    between atoms: C_3  and  C_4
REMARK    3  A    between atoms: C_7  and  C_8
REMARK    4  A    between atoms: C_18  and  C_19
REMARK    5  A    between atoms: C_19  and  C_20
REMARK                            x       y       z     vdW  Elec       q    Type
REMARK                         _______ _______ _______ _____ _____    ______ ____
ROOT
ATOM      1  C   UNL     1      -1.219  11.299  18.658  0.00  0.00    +0.000 C 
ATOM      2  N   UNL     1      -0.424  11.500  19.840  0.00  0.00    +0.000 N 
ATOM      3  C   UNL     1       0.637  10.752  20.302  0.00  0.00    +0.000 A 
ATOM      4  N   UNL     1       1.038  11.274  21.447  0.00  0.00    +0.000 NA
ATOM      5  N   UNL     1       0.258  12.358  21.739  0.00  0.00    +0.000 NA
ATOM      6  C   UNL     1      -0.642  12.472  20.788  0.00  0.00    +0.000 A 
ENDROOT
BRANCH   3   7
ATOM      7  C   UNL     1       1.218   9.560  19.695  0.00  0.00    +0.000 A 
ATOM      8  C   UNL     1       1.615   9.529  18.356  0.00  0.00    +0.000 A 
ATOM      9  C   UNL     1       2.155   8.368  17.802  0.00  0.00    +0.000 A 
ATOM     10  C   UNL     1       2.383   7.213  18.573  0.00  0.00    +0.000 A 
ATOM     11  C   UNL     1       2.014   7.268  19.925  0.00  0.00    +0.000 A 
ATOM     12  C   UNL     1       1.432   8.419  20.475  0.00  0.00    +0.000 A 
BRANCH  10  13
ATOM     13  C   UNL     1       3.011   6.011  17.973  0.00  0.00    +0.000 A 
ATOM     14  C   UNL     1       2.319   4.782  17.927  0.00  0.00    +0.000 A 
ATOM     15  C   UNL     1       2.904   3.633  17.385  0.00  0.00    +0.000 A 
ATOM     16  C   UNL     1       4.187   3.689  16.860  0.00  0.00    +0.000 A 
ATOM     17  C   UNL     1       4.886   4.891  16.880  0.00  0.00    +0.000 A 
ATOM     18  C   UNL     1       4.308   6.036  17.439  0.00  0.00    +0.000 A 
ENDBRANCH  10  13
ENDBRANCH   3   7
BRANCH   6  19
ATOM     19  C   UNL     1      -1.884  13.373  20.942  0.00  0.00    +0.000 C 
ATOM     20  C   UNL     1      -3.193  12.714  20.403  0.00  0.00    +0.000 C 
ATOM     21  C   UNL     1      -3.918  13.324  21.622  0.00  0.00    +0.000 C 
ATOM     22  C   UNL     1      -2.556  13.328  22.351  0.00  0.00    +0.000 C 
BRANCH  19  23
ATOM     23  C   UNL     1      -1.438  14.810  20.318  0.00  0.00    +0.000 A 
ATOM     24  C   UNL     1      -2.172  15.980  20.632  0.00  0.00    +0.000 A 
ATOM     25  C   UNL     1      -2.055  17.157  19.888  0.00  0.00    +0.000 A 
ATOM     26  C   UNL     1      -1.164  17.207  18.825  0.00  0.00    +0.000 A 
ATOM     27 CL   UNL     1      -1.119  18.590  17.806  0.00  0.00    +0.000 Cl
ATOM     28  C   UNL     1      -0.341  16.120  18.556  0.00  0.00    +0.000 A 
ATOM     29  C   UNL     1      -0.466  14.945  19.307  0.00  0.00    +0.000 A 
ENDBRANCH  19  23
ENDBRANCH   6  19
TORSDOF 4
ENDMDL
MODEL 6
REMARK VINA RESULT:      -8.7      4.012     10.400
REMARK  Name = 
REMARK  5 active torsions:
REMARK  status: ('A' for Active; 'I' for Inactive)
REMARK    1  A    between atoms: C_1  and  N_2
REMARK    2  A    between atoms: C_3  and  C_4
REMARK    3  A    between atoms: C_7  and  C_8
REMARK    4  A    between atoms: C_18  and  C_19
REMARK    5  A    between atoms: C_19  and  C_20
REMARK                            x       y       z     vdW  Elec       q    Type
REMARK                         _______ _______ _______ _____ _____    ______ ____
ROOT
ATOM      1  C   UNL     1       1.017  12.152  19.982  0.00  0.00    +0.000 C 
ATOM      2  N   UNL     1       0.358  11.309  20.944  0.00  0.00    +0.000 N 
ATOM      3  C   UNL     1       0.397   9.937  21.057  0.00  0.00    +0.000 A 
ATOM      4  N   UNL     1      -0.393   9.584  22.055  0.00  0.00    +0.000 NA
ATOM      5  N   UNL     1      -0.945  10.708  22.602  0.00  0.00    +0.000 NA
ATOM      6  C   UNL     1      -0.518  11.742  21.911  0.00  0.00    +0.000 A 
ENDROOT
BRANCH   3   7
ATOM      7  C   UNL     1       1.127   8.995  20.216  0.00  0.00    +0.000 A 
ATOM      8  C   UNL     1       1.435   9.275  18.883  0.00  0.00    +0.000 A 
ATOM      9  C   UNL     1       2.123   8.346  18.101  0.00  0.00    +0.000 A 
ATOM     10  C   UNL     1       2.590   7.130  18.633  0.00  0.00    +0.000 A 
ATOM     11  C   UNL     1       2.306   6.874  19.982  0.00  0.00    +0.000 A 
ATOM     12  C   UNL     1       1.578   7.786  20.759  0.00  0.00    +0.000 A 
BRANCH  10  13
ATOM     13  C   UNL     1       3.368   6.184  17.796  0.00  0.00    +0.000 A 
ATOM     14  C   UNL     1       3.061   4.807  17.786  0.00  0.00    +0.000 A 
ATOM     15  C   UNL     1       3.798   3.899  17.020  0.00  0.00    +0.000 A 
ATOM     16  C   UNL     1       4.848   4.347  16.231  0.00  0.00    +0.000 A 
ATOM     17  C   UNL     1       5.163   5.701  16.211  0.00  0.00    +0.000 A 
ATOM     18  C   UNL     1       4.437   6.608  16.992  0.00  0.00    +0.000 A 
ENDBRANCH  10  13
ENDBRANCH   3   7
BRANCH   6  19
ATOM     19  C   UNL     1      -1.176  13.132  22.030  0.00  0.00    +0.000 C 
ATOM     20  C   UNL     1      -1.229  13.665  23.497  0.00  0.00    +0.000 C 
ATOM     21  C   UNL     1      -0.879  15.057  22.929  0.00  0.00    +0.000 C 
ATOM     22  C   UNL     1      -0.227  14.334  21.730  0.00  0.00    +0.000 C 
BRANCH  19  23
ATOM     23  C   UNL     1      -2.579  13.002  21.212  0.00  0.00    +0.000 A 
ATOM     24  C   UNL     1      -3.813  13.092  21.901  0.00  0.00    +0.000 A 
ATOM     25  C   UNL     1      -5.017  12.665  21.334  0.00  0.00    +0.000 A 
ATOM     26  C   UNL     1      -5.023  12.169  20.038  0.00  0.00    +0.000 A 
ATOM     27 CL   UNL     1      -6.463  11.498  19.381  0.00  0.00    +0.000 Cl
ATOM     28  C   UNL     1      -3.854  12.172  19.286  0.00  0.00    +0.000 A 
ATOM     29  C   UNL     1      -2.653  12.602  19.863  0.00  0.00    +0.000 A 
ENDBRANCH  19  23
ENDBRANCH   6  19
TORSDOF 4
ENDMDL
MODEL 7
REMARK VINA RESULT:      -8.7      1.145      1.455
REMARK  Name = 
REMARK  5 active torsions:
REMARK  status: ('A' for Active; 'I' for Inactive)
REMARK    1  A    between atoms: C_1  and  N_2
REMARK    2  A    between atoms: C_3  and  C_4
REMARK    3  A    between atoms: C_7  and  C_8
REMARK    4  A    between atoms: C_18  and  C_19
REMARK    5  A    between atoms: C_19  and  C_20
REMARK                            x       y       z     vdW  Elec       q    Type
REMARK                         _______ _______ _______ _____ _____    ______ ____
ROOT
ATOM      1  C   UNL     1       1.633   5.577  20.920  0.00  0.00    +0.000 C 
ATOM      2  N   UNL     1       2.219   6.291  19.815  0.00  0.00    +0.000 N 
ATOM      3  C   UNL     1       2.104   7.625  19.494  0.00  0.00    +0.000 A 
ATOM      4  N   UNL     1       2.771   7.836  18.373  0.00  0.00    +0.000 NA
ATOM      5  N   UNL     1       3.327   6.658  17.960  0.00  0.00    +0.000 NA
ATOM      6  C   UNL     1       2.966   5.723  18.811  0.00  0.00    +0.000 A 
ENDROOT
BRANCH   3   7
ATOM      7  C   UNL     1       1.350   8.651  20.205  0.00  0.00    +0.000 A 
ATOM      8  C   UNL     1       1.317   8.714  21.600  0.00  0.00    +0.000 A 
ATOM      9  C   UNL     1       0.575   9.700  22.251  0.00  0.00    +0.000 A 
ATOM     10  C   UNL     1      -0.110  10.703  21.541  0.00  0.00    +0.000 A 
ATOM     11  C   UNL     1      -0.041  10.651  20.141  0.00  0.00    +0.000 A 
ATOM     12  C   UNL     1       0.669   9.637  19.483  0.00  0.00    +0.000 A 
BRANCH  10  13
ATOM     13  C   UNL     1      -0.846  11.773  22.257  0.00  0.00    +0.000 A 
ATOM     14  C   UNL     1      -2.013  11.479  22.994  0.00  0.00    +0.000 A 
ATOM     15  C   UNL     1      -2.730  12.480  23.656  0.00  0.00    +0.000 A 
ATOM     16  C   UNL     1      -2.289  13.795  23.615  0.00  0.00    +0.000 A 
ATOM     17  C   UNL     1      -1.133  14.109  22.908  0.00  0.00    +0.000 A 
ATOM     18  C   UNL     1      -0.425  13.112  22.230  0.00  0.00    +0.000 A 
ENDBRANCH  10  13
ENDBRANCH   3   7
BRANCH   6  19
ATOM     19  C   UNL     1       3.133   4.223  18.495  0.00  0.00    +0.000 C 
ATOM     20  C   UNL     1       3.168   3.325  19.773  0.00  0.00    +0.000 C 
ATOM     21  C   UNL     1       2.314   2.304  18.991  0.00  0.00    +0.000 C 
ATOM     22  C   UNL     1       1.811   3.480  18.125  0.00  0.00    +0.000 C 
BRANCH  19  23
ATOM     23  C   UNL     1       4.401   4.148  17.475  0.00  0.00    +0.000 A 
ATOM     24  C   UNL     1       5.699   4.485  17.929  0.00  0.00    +0.000 A 
ATOM     25  C   UNL     1       6.749   4.762  17.049  0.00  0.00    +0.000 A 
ATOM     26  C   UNL     1       6.536   4.670  15.682  0.00  0.00    +0.000 A 
ATOM     27 CL   UNL     1       7.768   5.154  14.585  0.00  0.00    +0.000 Cl
ATOM     28  C   UNL     1       5.310   4.230  15.196  0.00  0.00    +0.000 A 
ATOM     29  C   UNL     1       4.265   3.955  16.085  0.00  0.00    +0.000 A 
ENDBRANCH  19  23
ENDBRANCH   6  19
TORSDOF 4
ENDMDL
MODEL 8
REMARK VINA RESULT:      -8.6      4.489     10.218
REMARK  Name = 
REMARK  5 active torsions:
REMARK  status: ('A' for Active; 'I' for Inactive)
REMARK    1  A    between atoms: C_1  and  N_2
REMARK    2  A    between atoms: C_3  and  C_4
REMARK    3  A    between atoms: C_7  and  C_8
REMARK    4  A    between atoms: C_18  and  C_19
REMARK    5  A    between atoms: C_19  and  C_20
REMARK                            x       y       z     vdW  Elec       q    Type
REMARK                         _______ _______ _______ _____ _____    ______ ____
ROOT
ATOM      1  C   UNL     1       0.191  10.725  18.202  0.00  0.00    +0.000 C 
ATOM      2  N   UNL     1       0.511  10.842  19.600  0.00  0.00    +0.000 N 
ATOM      3  C   UNL     1       1.063   9.899  20.439  0.00  0.00    +0.000 A 
ATOM      4  N   UNL     1       1.140  10.422  21.650  0.00  0.00    +0.000 NA
ATOM      5  N   UNL     1       0.652  11.698  21.614  0.00  0.00    +0.000 NA
ATOM      6  C   UNL     1       0.243  11.937  20.387  0.00  0.00    +0.000 A 
ENDROOT
BRANCH   3   7
ATOM      7  C   UNL     1       1.461   8.536  20.108  0.00  0.00    +0.000 A 
ATOM      8  C   UNL     1       1.201   7.460  20.960  0.00  0.00    +0.000 A 
ATOM      9  C   UNL     1       1.608   6.169  20.621  0.00  0.00    +0.000 A 
ATOM     10  C   UNL     1       2.230   5.886  19.391  0.00  0.00    +0.000 A 
ATOM     11  C   UNL     1       2.454   6.969  18.528  0.00  0.00    +0.000 A 
ATOM     12  C   UNL     1       2.085   8.273  18.884  0.00  0.00    +0.000 A 
BRANCH  10  13
ATOM     13  C   UNL     1       2.602   4.496  19.030  0.00  0.00    +0.000 A 
ATOM     14  C   UNL     1       2.030   3.865  17.905  0.00  0.00    +0.000 A 
ATOM     15  C   UNL     1       2.353   2.548  17.563  0.00  0.00    +0.000 A 
ATOM     16  C   UNL     1       3.269   1.837  18.325  0.00  0.00    +0.000 A 
ATOM     17  C   UNL     1       3.859   2.441  19.430  0.00  0.00    +0.000 A 
ATOM     18  C   UNL     1       3.522   3.752  19.784  0.00  0.00    +0.000 A 
ENDBRANCH  10  13
ENDBRANCH   3   7
BRANCH   6  19
ATOM     19  C   UNL     1      -0.654  13.144  20.044  0.00  0.00    +0.000 C 
ATOM     20  C   UNL     1      -0.173  14.475  20.704  0.00  0.00    +0.000 C 
ATOM     21  C   UNL     1      -0.544  15.181  19.382  0.00  0.00    +0.000 C 
ATOM     22  C   UNL     1      -0.344  13.823  18.673  0.00  0.00    +0.000 C 
BRANCH  19  23
ATOM     23  C   UNL     1      -2.171  12.640  20.359  0.00  0.00    +0.000 A 
ATOM     24  C   UNL     1      -3.017  12.231  19.299  0.00  0.00    +0.000 A 
ATOM     25  C   UNL     1      -4.401  12.110  19.454  0.00  0.00    +0.000 A 
ATOM     26  C   UNL     1      -4.974  12.359  20.693  0.00  0.00    +0.000 A 
ATOM     27 CL   UNL     1      -6.684  12.366  20.863  0.00  0.00    +0.000 Cl
ATOM     28  C   UNL     1      -4.167  12.649  21.787  0.00  0.00    +0.000 A 
ATOM     29  C   UNL     1      -2.782  12.768  21.622  0.00  0.00    +0.000 A 
ENDBRANCH  19  23
ENDBRANCH   6  19
TORSDOF 4
ENDMDL
MODEL 9
REMARK VINA RESULT:      -8.6      3.952     10.222
REMARK  Name = 
REMARK  5 active torsions:
REMARK  status: ('A' for Active; 'I' for Inactive)
REMARK    1  A    between atoms: C_1  and  N_2
REMARK    2  A    between atoms: C_3  and  C_4
REMARK    3  A    between atoms: C_7  and  C_8
REMARK    4  A    between atoms: C_18  and  C_19
REMARK    5  A    between atoms: C_19  and  C_20
REMARK                            x       y       z     vdW  Elec       q    Type
REMARK                         _______ _______ _______ _____ _____    ______ ____
ROOT
ATOM      1  C   UNL     1       0.735  12.144  19.054  0.00  0.00    +0.000 C 
ATOM      2  N   UNL     1       0.191  11.401  20.160  0.00  0.00    +0.000 N 
ATOM      3  C   UNL     1       0.385  10.077  20.486  0.00  0.00    +0.000 A 
ATOM      4  N   UNL     1      -0.343   9.807  21.555  0.00  0.00    +0.000 NA
ATOM      5  N   UNL     1      -1.005  10.940  21.938  0.00  0.00    +0.000 NA
ATOM      6  C   UNL     1      -0.709  11.888  21.078  0.00  0.00    +0.000 A 
ENDROOT
BRANCH   3   7
ATOM      7  C   UNL     1       1.198   9.095  19.778  0.00  0.00    +0.000 A 
ATOM      8  C   UNL     1       1.644   7.922  20.392  0.00  0.00    +0.000 A 
ATOM      9  C   UNL     1       2.434   7.009  19.692  0.00  0.00    +0.000 A 
ATOM     10  C   UNL     1       2.755   7.193  18.335  0.00  0.00    +0.000 A 
ATOM     11  C   UNL     1       2.272   8.357  17.719  0.00  0.00    +0.000 A 
ATOM     12  C   UNL     1       1.515   9.297  18.431  0.00  0.00    +0.000 A 
BRANCH  10  13
ATOM     13  C   UNL     1       3.549   6.180  17.597  0.00  0.00    +0.000 A 
ATOM     14  C   UNL     1       4.617   6.567  16.761  0.00  0.00    +0.000 A 
ATOM     15  C   UNL     1       5.360   5.627  16.041  0.00  0.00    +0.000 A 
ATOM     16  C   UNL     1       5.067   4.275  16.155  0.00  0.00    +0.000 A 
ATOM     17  C   UNL     1       4.029   3.865  16.984  0.00  0.00    +0.000 A 
ATOM     18  C   UNL     1       3.272   4.807  17.689  0.00  0.00    +0.000 A 
ENDBRANCH  10  13
ENDBRANCH   3   7
BRANCH   6  19
ATOM     19  C   UNL     1      -1.514  13.202  21.000  0.00  0.00    +0.000 C 
ATOM     20  C   UNL     1      -1.714  13.884  22.390  0.00  0.00    +0.000 C 
ATOM     21  C   UNL     1      -1.477  15.235  21.681  0.00  0.00    +0.000 C 
ATOM     22  C   UNL     1      -0.679  14.461  20.608  0.00  0.00    +0.000 C 
BRANCH  19  23
ATOM     23  C   UNL     1      -2.843  12.826  20.134  0.00  0.00    +0.000 A 
ATOM     24  C   UNL     1      -4.130  13.004  20.696  0.00  0.00    +0.000 A 
ATOM     25  C   UNL     1      -5.270  12.405  20.154  0.00  0.00    +0.000 A 
ATOM     26  C   UNL     1      -5.156  11.638  19.003  0.00  0.00    +0.000 A 
ATOM     27 CL   UNL     1      -6.516  10.769  18.411  0.00  0.00    +0.000 Cl
ATOM     28  C   UNL     1      -3.932  11.533  18.355  0.00  0.00    +0.000 A 
ATOM     29  C   UNL     1      -2.795  12.137  18.906  0.00  0.00    +0.000 A 
ENDBRANCH  19  23
ENDBRANCH   6  19
TORSDOF 4
ENDMDL
