MODEL 1
REMARK VINA RESULT:      -7.0      0.000      0.000
REMARK  Name = 
REMARK  10 active torsions:
REMARK  status: ('A' for Active; 'I' for Inactive)
REMARK    1  A    between atoms: C_3  and  O_4
REMARK    2  A    between atoms: O_4  and  C_5
REMARK    3  A    between atoms: C_5  and  C_6
REMARK    4  A    between atoms: C_6  and  C_7
REMARK    5  A    between atoms: C_7  and  C_8
REMARK    6  A    between atoms: C_14  and  O_15
REMARK    7  A    between atoms: C_17  and  C_18
REMARK    8  A    between atoms: C_18  and  O_19
REMARK    9  A    between atoms: C_18  and  C_20
REMARK   10  A    between atoms: C_20  and  O_21
REMARK                            x       y       z     vdW  Elec       q    Type
REMARK                         _______ _______ _______ _____ _____    ______ ____
ROOT
ATOM      1  O   UNL     1       4.257   7.203  17.386  0.00  0.00    +0.000 OA
ATOM      2  C   UNL     1       5.013   6.244  17.423  0.00  0.00    +0.000 C 
ATOM      3  C   UNL     1       6.448   6.308  17.098  0.00  0.00    +0.000 C 
ATOM      4  C   UNL     1       6.778   5.002  17.066  0.00  0.00    +0.000 C 
ATOM      5  O   UNL     1       5.758   4.087  17.291  0.00  0.00    +0.000 OA
ATOM      6  C   UNL     1       4.634   4.840  17.792  0.00  0.00    +0.000 C 
ENDROOT
BRANCH   4   7
ATOM      7  O   UNL     1       8.011   4.463  16.830  0.00  0.00    +0.000 OA
ATOM      8  H   UNL     1       8.472   4.943  16.132  0.00  0.00    +0.000 HD
ENDBRANCH   4   7
BRANCH   3   9
ATOM      9  O   UNL     1       7.079   7.495  16.945  0.00  0.00    +0.000 OA
BRANCH   9  10
ATOM     10  C   UNL     1       8.025   7.900  17.918  0.00  0.00    +0.000 C 
BRANCH  10  11
ATOM     11  C   UNL     1       8.235   9.408  17.824  0.00  0.00    +0.000 C 
BRANCH  11  12
ATOM     12  C   UNL     1       8.974   9.911  19.063  0.00  0.00    +0.000 C 
BRANCH  12  13
ATOM     13  C   UNL     1       9.838  11.108  18.772  0.00  0.00    +0.000 A 
ATOM     14  C   UNL     1       9.422  12.087  17.862  0.00  0.00    +0.000 A 
ATOM     15  C   UNL     1      10.233  13.191  17.595  0.00  0.00    +0.000 A 
ATOM     16  C   UNL     1      11.466  13.324  18.231  0.00  0.00    +0.000 A 
ATOM     17  C   UNL     1      11.889  12.353  19.136  0.00  0.00    +0.000 A 
ATOM     18  C   UNL     1      11.082  11.248  19.405  0.00  0.00    +0.000 A 
ENDBRANCH  12  13
ENDBRANCH  11  12
ENDBRANCH  10  11
ENDBRANCH   9  10
ENDBRANCH   3   9
BRANCH   6  19
ATOM     19  C   UNL     1       4.530   4.652  19.308  0.00  0.00    +0.000 C 
BRANCH  19  20
ATOM     20  O   UNL     1       3.808   5.722  19.920  0.00  0.00    +0.000 OA
ATOM     21  H   UNL     1       3.999   6.547  19.441  0.00  0.00    +0.000 HD
ENDBRANCH  19  20
BRANCH  19  22
ATOM     22  C   UNL     1       3.869   3.304  19.647  0.00  0.00    +0.000 C 
BRANCH  22  23
ATOM     23  O   UNL     1       4.540   2.220  19.007  0.00  0.00    +0.000 OA
ATOM     24  H   UNL     1       5.296   1.965  19.566  0.00  0.00    +0.000 HD
ENDBRANCH  22  23
ENDBRANCH  19  22
ENDBRANCH   6  19
TORSDOF 10
ENDMDL
MODEL 2
REMARK VINA RESULT:      -6.9      1.436      1.695
REMARK  Name = 
REMARK  10 active torsions:
REMARK  status: ('A' for Active; 'I' for Inactive)
REMARK    1  A    between atoms: C_3  and  O_4
REMARK    2  A    between atoms: O_4  and  C_5
REMARK    3  A    between atoms: C_5  and  C_6
REMARK    4  A    between atoms: C_6  and  C_7
REMARK    5  A    between atoms: C_7  and  C_8
REMARK    6  A    between atoms: C_14  and  O_15
REMARK    7  A    between atoms: C_17  and  C_18
REMARK    8  A    between atoms: C_18  and  O_19
REMARK    9  A    between atoms: C_18  and  C_20
REMARK   10  A    between atoms: C_20  and  O_21
REMARK                            x       y       z     vdW  Elec       q    Type
REMARK                         _______ _______ _______ _____ _____    ______ ____
ROOT
ATOM      1  O   UNL     1       5.174   6.888  15.572  0.00  0.00    +0.000 OA
ATOM      2  C   UNL     1       5.666   5.921  16.136  0.00  0.00    +0.000 C 
ATOM      3  C   UNL     1       7.039   5.883  16.663  0.00  0.00    +0.000 C 
ATOM      4  C   UNL     1       7.177   4.578  16.970  0.00  0.00    +0.000 C 
ATOM      5  O   UNL     1       6.099   3.747  16.690  0.00  0.00    +0.000 OA
ATOM      6  C   UNL     1       4.984   4.610  16.387  0.00  0.00    +0.000 C 
ENDROOT
BRANCH   4   7
ATOM      7  O   UNL     1       8.263   3.966  17.528  0.00  0.00    +0.000 OA
ATOM      8  H   UNL     1       8.160   3.008  17.529  0.00  0.00    +0.000 HD
ENDBRANCH   4   7
BRANCH   3   9
ATOM      9  O   UNL     1       7.787   7.007  16.755  0.00  0.00    +0.000 OA
BRANCH   9  10
ATOM     10  C   UNL     1       7.293   8.101  17.506  0.00  0.00    +0.000 C 
BRANCH  10  11
ATOM     11  C   UNL     1       8.441   8.749  18.274  0.00  0.00    +0.000 C 
BRANCH  11  12
ATOM     12  C   UNL     1       8.466  10.252  18.005  0.00  0.00    +0.000 C 
BRANCH  12  13
ATOM     13  C   UNL     1       9.624  10.939  18.678  0.00  0.00    +0.000 A 
ATOM     14  C   UNL     1       9.596  11.207  20.052  0.00  0.00    +0.000 A 
ATOM     15  C   UNL     1      10.672  11.849  20.667  0.00  0.00    +0.000 A 
ATOM     16  C   UNL     1      11.781  12.231  19.915  0.00  0.00    +0.000 A 
ATOM     17  C   UNL     1      11.817  11.970  18.546  0.00  0.00    +0.000 A 
ATOM     18  C   UNL     1      10.743  11.330  17.929  0.00  0.00    +0.000 A 
ENDBRANCH  12  13
ENDBRANCH  11  12
ENDBRANCH  10  11
ENDBRANCH   9  10
ENDBRANCH   3   9
BRANCH   6  19
ATOM     19  C   UNL     1       4.045   4.671  17.595  0.00  0.00    +0.000 C 
BRANCH  19  20
ATOM     20  O   UNL     1       3.273   5.873  17.597  0.00  0.00    +0.000 OA
ATOM     21  H   UNL     1       3.538   6.422  16.838  0.00  0.00    +0.000 HD
ENDBRANCH  19  20
BRANCH  19  22
ATOM     22  C   UNL     1       3.117   3.444  17.629  0.00  0.00    +0.000 C 
BRANCH  22  23
ATOM     23  O   UNL     1       2.096   3.592  18.614  0.00  0.00    +0.000 OA
ATOM     24  H   UNL     1       1.973   4.545  18.776  0.00  0.00    +0.000 HD
ENDBRANCH  22  23
ENDBRANCH  19  22
ENDBRANCH   6  19
TORSDOF 10
ENDMDL
MODEL 3
REMARK VINA RESULT:      -6.9      1.296      1.691
REMARK  Name = 
REMARK  10 active torsions:
REMARK  status: ('A' for Active; 'I' for Inactive)
REMARK    1  A    between atoms: C_3  and  O_4
REMARK    2  A    between atoms: O_4  and  C_5
REMARK    3  A    between atoms: C_5  and  C_6
REMARK    4  A    between atoms: C_6  and  C_7
REMARK    5  A    between atoms: C_7  and  C_8
REMARK    6  A    between atoms: C_14  and  O_15
REMARK    7  A    between atoms: C_17  and  C_18
REMARK    8  A    between atoms: C_18  and  O_19
REMARK    9  A    between atoms: C_18  and  C_20
REMARK   10  A    between atoms: C_20  and  O_21
REMARK                            x       y       z     vdW  Elec       q    Type
REMARK                         _______ _______ _______ _____ _____    ______ ____
ROOT
ATOM      1  O   UNL     1       5.052   6.931  15.490  0.00  0.00    +0.000 OA
ATOM      2  C   UNL     1       5.573   5.962  16.021  0.00  0.00    +0.000 C 
ATOM      3  C   UNL     1       6.941   5.952  16.565  0.00  0.00    +0.000 C 
ATOM      4  C   UNL     1       7.122   4.642  16.822  0.00  0.00    +0.000 C 
ATOM      5  O   UNL     1       6.079   3.784  16.495  0.00  0.00    +0.000 OA
ATOM      6  C   UNL     1       4.937   4.617  16.212  0.00  0.00    +0.000 C 
ENDROOT
BRANCH   4   7
ATOM      7  O   UNL     1       8.224   4.048  17.369  0.00  0.00    +0.000 OA
ATOM      8  H   UNL     1       8.000   3.197  17.763  0.00  0.00    +0.000 HD
ENDBRANCH   4   7
BRANCH   3   9
ATOM      9  O   UNL     1       7.646   7.098  16.710  0.00  0.00    +0.000 OA
BRANCH   9  10
ATOM     10  C   UNL     1       7.803   7.648  18.006  0.00  0.00    +0.000 C 
BRANCH  10  11
ATOM     11  C   UNL     1       8.192   9.118  17.888  0.00  0.00    +0.000 C 
BRANCH  11  12
ATOM     12  C   UNL     1       9.111   9.508  19.045  0.00  0.00    +0.000 C 
BRANCH  12  13
ATOM     13  C   UNL     1       9.528  10.953  18.987  0.00  0.00    +0.000 A 
ATOM     14  C   UNL     1      10.243  11.534  20.042  0.00  0.00    +0.000 A 
ATOM     15  C   UNL     1      10.621  12.876  19.982  0.00  0.00    +0.000 A 
ATOM     16  C   UNL     1      10.287  13.648  18.870  0.00  0.00    +0.000 A 
ATOM     17  C   UNL     1       9.574  13.079  17.817  0.00  0.00    +0.000 A 
ATOM     18  C   UNL     1       9.194  11.738  17.874  0.00  0.00    +0.000 A 
ENDBRANCH  12  13
ENDBRANCH  11  12
ENDBRANCH  10  11
ENDBRANCH   9  10
ENDBRANCH   3   9
BRANCH   6  19
ATOM     19  C   UNL     1       3.982   4.597  17.409  0.00  0.00    +0.000 C 
BRANCH  19  20
ATOM     20  O   UNL     1       3.369   5.871  17.611  0.00  0.00    +0.000 OA
ATOM     21  H   UNL     1       3.718   6.265  18.430  0.00  0.00    +0.000 HD
ENDBRANCH  19  20
BRANCH  19  22
ATOM     22  C   UNL     1       2.906   3.512  17.232  0.00  0.00    +0.000 C 
BRANCH  22  23
ATOM     23  O   UNL     1       2.764   2.722  18.411  0.00  0.00    +0.000 OA
ATOM     24  H   UNL     1       1.873   2.328  18.403  0.00  0.00    +0.000 HD
ENDBRANCH  22  23
ENDBRANCH  19  22
ENDBRANCH   6  19
TORSDOF 10
ENDMDL
MODEL 4
REMARK VINA RESULT:      -6.8      1.210      1.398
REMARK  Name = 
REMARK  10 active torsions:
REMARK  status: ('A' for Active; 'I' for Inactive)
REMARK    1  A    between atoms: C_3  and  O_4
REMARK    2  A    between atoms: O_4  and  C_5
REMARK    3  A    between atoms: C_5  and  C_6
REMARK    4  A    between atoms: C_6  and  C_7
REMARK    5  A    between atoms: C_7  and  C_8
REMARK    6  A    between atoms: C_14  and  O_15
REMARK    7  A    between atoms: C_17  and  C_18
REMARK    8  A    between atoms: C_18  and  O_19
REMARK    9  A    between atoms: C_18  and  C_20
REMARK   10  A    between atoms: C_20  and  O_21
REMARK                            x       y       z     vdW  Elec       q    Type
REMARK                         _______ _______ _______ _____ _____    ______ ____
ROOT
ATOM      1  O   UNL     1       4.349   6.852  17.540  0.00  0.00    +0.000 OA
ATOM      2  C   UNL     1       5.045   5.861  17.376  0.00  0.00    +0.000 C 
ATOM      3  C   UNL     1       6.494   5.817  17.632  0.00  0.00    +0.000 C 
ATOM      4  C   UNL     1       6.828   4.624  17.101  0.00  0.00    +0.000 C 
ATOM      5  O   UNL     1       5.810   3.892  16.504  0.00  0.00    +0.000 OA
ATOM      6  C   UNL     1       4.572   4.526  16.883  0.00  0.00    +0.000 C 
ENDROOT
BRANCH   4   7
ATOM      7  O   UNL     1       8.065   4.044  17.076  0.00  0.00    +0.000 OA
ATOM      8  H   UNL     1       8.013   3.107  17.298  0.00  0.00    +0.000 HD
ENDBRANCH   4   7
BRANCH   3   9
ATOM      9  O   UNL     1       7.123   6.824  18.283  0.00  0.00    +0.000 OA
BRANCH   9  10
ATOM     10  C   UNL     1       7.602   7.929  17.539  0.00  0.00    +0.000 C 
BRANCH  10  11
ATOM     11  C   UNL     1       8.659   8.668  18.353  0.00  0.00    +0.000 C 
BRANCH  11  12
ATOM     12  C   UNL     1       8.485  10.176  18.186  0.00  0.00    +0.000 C 
BRANCH  12  13
ATOM     13  C   UNL     1       9.639  10.956  18.757  0.00  0.00    +0.000 A 
ATOM     14  C   UNL     1      10.672  11.414  17.930  0.00  0.00    +0.000 A 
ATOM     15  C   UNL     1      11.741  12.131  18.470  0.00  0.00    +0.000 A 
ATOM     16  C   UNL     1      11.788  12.395  19.838  0.00  0.00    +0.000 A 
ATOM     17  C   UNL     1      10.765  11.941  20.668  0.00  0.00    +0.000 A 
ATOM     18  C   UNL     1       9.696  11.223  20.133  0.00  0.00    +0.000 A 
ENDBRANCH  12  13
ENDBRANCH  11  12
ENDBRANCH  10  11
ENDBRANCH   9  10
ENDBRANCH   3   9
BRANCH   6  19
ATOM     19  C   UNL     1       3.900   3.710  17.991  0.00  0.00    +0.000 C 
BRANCH  19  20
ATOM     20  O   UNL     1       3.698   4.492  19.169  0.00  0.00    +0.000 OA
ATOM     21  H   UNL     1       2.933   5.078  19.033  0.00  0.00    +0.000 HD
ENDBRANCH  19  20
BRANCH  19  22
ATOM     22  C   UNL     1       2.561   3.127  17.504  0.00  0.00    +0.000 C 
BRANCH  22  23
ATOM     23  O   UNL     1       2.519   1.711  17.672  0.00  0.00    +0.000 OA
ATOM     24  H   UNL     1       1.794   1.504  18.289  0.00  0.00    +0.000 HD
ENDBRANCH  22  23
ENDBRANCH  19  22
ENDBRANCH   6  19
TORSDOF 10
ENDMDL
MODEL 5
REMARK VINA RESULT:      -6.7      4.794      7.842
REMARK  Name = 
REMARK  10 active torsions:
REMARK  status: ('A' for Active; 'I' for Inactive)
REMARK    1  A    between atoms: C_3  and  O_4
REMARK    2  A    between atoms: O_4  and  C_5
REMARK    3  A    between atoms: C_5  and  C_6
REMARK    4  A    between atoms: C_6  and  C_7
REMARK    5  A    between atoms: C_7  and  C_8
REMARK    6  A    between atoms: C_14  and  O_15
REMARK    7  A    between atoms: C_17  and  C_18
REMARK    8  A    between atoms: C_18  and  O_19
REMARK    9  A    between atoms: C_18  and  C_20
REMARK   10  A    between atoms: C_20  and  O_21
REMARK                            x       y       z     vdW  Elec       q    Type
REMARK                         _______ _______ _______ _____ _____    ______ ____
ROOT
ATOM      1  O   UNL     1       5.363   6.758  15.745  0.00  0.00    +0.000 OA
ATOM      2  C   UNL     1       6.142   5.887  16.103  0.00  0.00    +0.000 C 
ATOM      3  C   UNL     1       6.498   5.622  17.507  0.00  0.00    +0.000 C 
ATOM      4  C   UNL     1       7.522   4.758  17.369  0.00  0.00    +0.000 C 
ATOM      5  O   UNL     1       7.912   4.442  16.073  0.00  0.00    +0.000 OA
ATOM      6  C   UNL     1       6.878   4.943  15.201  0.00  0.00    +0.000 C 
ENDROOT
BRANCH   4   7
ATOM      7  O   UNL     1       8.236   4.150  18.363  0.00  0.00    +0.000 OA
ATOM      8  H   UNL     1       8.636   4.801  18.950  0.00  0.00    +0.000 HD
ENDBRANCH   4   7
BRANCH   3   9
ATOM      9  O   UNL     1       5.810   6.190  18.524  0.00  0.00    +0.000 OA
BRANCH   9  10
ATOM     10  C   UNL     1       4.619   5.573  18.977  0.00  0.00    +0.000 C 
BRANCH  10  11
ATOM     11  C   UNL     1       3.423   6.438  18.595  0.00  0.00    +0.000 C 
BRANCH  11  12
ATOM     12  C   UNL     1       2.288   6.232  19.596  0.00  0.00    +0.000 C 
BRANCH  12  13
ATOM     13  C   UNL     1       1.849   4.795  19.681  0.00  0.00    +0.000 A 
ATOM     14  C   UNL     1       1.511   4.080  18.526  0.00  0.00    +0.000 A 
ATOM     15  C   UNL     1       1.100   2.749  18.615  0.00  0.00    +0.000 A 
ATOM     16  C   UNL     1       1.019   2.124  19.859  0.00  0.00    +0.000 A 
ATOM     17  C   UNL     1       1.351   2.829  21.014  0.00  0.00    +0.000 A 
ATOM     18  C   UNL     1       1.761   4.159  20.928  0.00  0.00    +0.000 A 
ENDBRANCH  12  13
ENDBRANCH  11  12
ENDBRANCH  10  11
ENDBRANCH   9  10
ENDBRANCH   3   9
BRANCH   6  19
ATOM     19  C   UNL     1       5.994   3.781  14.739  0.00  0.00    +0.000 C 
BRANCH  19  20
ATOM     20  O   UNL     1       4.764   3.738  15.465  0.00  0.00    +0.000 OA
ATOM     21  H   UNL     1       4.032   3.948  14.859  0.00  0.00    +0.000 HD
ENDBRANCH  19  20
BRANCH  19  22
ATOM     22  C   UNL     1       5.715   3.873  13.228  0.00  0.00    +0.000 C 
BRANCH  22  23
ATOM     23  O   UNL     1       6.533   2.964  12.493  0.00  0.00    +0.000 OA
ATOM     24  H   UNL     1       7.461   3.137  12.731  0.00  0.00    +0.000 HD
ENDBRANCH  22  23
ENDBRANCH  19  22
ENDBRANCH   6  19
TORSDOF 10
ENDMDL
MODEL 6
REMARK VINA RESULT:      -6.7      0.861      1.259
REMARK  Name = 
REMARK  10 active torsions:
REMARK  status: ('A' for Active; 'I' for Inactive)
REMARK    1  A    between atoms: C_3  and  O_4
REMARK    2  A    between atoms: O_4  and  C_5
REMARK    3  A    between atoms: C_5  and  C_6
REMARK    4  A    between atoms: C_6  and  C_7
REMARK    5  A    between atoms: C_7  and  C_8
REMARK    6  A    between atoms: C_14  and  O_15
REMARK    7  A    between atoms: C_17  and  C_18
REMARK    8  A    between atoms: C_18  and  O_19
REMARK    9  A    between atoms: C_18  and  C_20
REMARK   10  A    between atoms: C_20  and  O_21
REMARK                            x       y       z     vdW  Elec       q    Type
REMARK                         _______ _______ _______ _____ _____    ______ ____
ROOT
ATOM      1  O   UNL     1       4.087   7.217  17.277  0.00  0.00    +0.000 OA
ATOM      2  C   UNL     1       4.858   6.268  17.285  0.00  0.00    +0.000 C 
ATOM      3  C   UNL     1       6.308   6.379  17.058  0.00  0.00    +0.000 C 
ATOM      4  C   UNL     1       6.664   5.084  16.941  0.00  0.00    +0.000 C 
ATOM      5  O   UNL     1       5.649   4.140  17.028  0.00  0.00    +0.000 OA
ATOM      6  C   UNL     1       4.483   4.835  17.516  0.00  0.00    +0.000 C 
ENDROOT
BRANCH   4   7
ATOM      7  O   UNL     1       7.920   4.583  16.742  0.00  0.00    +0.000 OA
ATOM      8  H   UNL     1       8.593   5.241  16.950  0.00  0.00    +0.000 HD
ENDBRANCH   4   7
BRANCH   3   9
ATOM      9  O   UNL     1       6.925   7.583  17.040  0.00  0.00    +0.000 OA
BRANCH   9  10
ATOM     10  C   UNL     1       7.964   7.835  17.969  0.00  0.00    +0.000 C 
BRANCH  10  11
ATOM     11  C   UNL     1       8.310   9.321  17.950  0.00  0.00    +0.000 C 
BRANCH  11  12
ATOM     12  C   UNL     1       8.989   9.715  19.260  0.00  0.00    +0.000 C 
BRANCH  12  13
ATOM     13  C   UNL     1       9.916  10.889  19.099  0.00  0.00    +0.000 A 
ATOM     14  C   UNL     1      10.437  11.549  20.219  0.00  0.00    +0.000 A 
ATOM     15  C   UNL     1      11.292  12.641  20.059  0.00  0.00    +0.000 A 
ATOM     16  C   UNL     1      11.631  13.083  18.781  0.00  0.00    +0.000 A 
ATOM     17  C   UNL     1      11.115  12.434  17.661  0.00  0.00    +0.000 A 
ATOM     18  C   UNL     1      10.260  11.343  17.817  0.00  0.00    +0.000 A 
ENDBRANCH  12  13
ENDBRANCH  11  12
ENDBRANCH  10  11
ENDBRANCH   9  10
ENDBRANCH   3   9
BRANCH   6  19
ATOM     19  C   UNL     1       4.289   4.523  19.002  0.00  0.00    +0.000 C 
BRANCH  19  20
ATOM     20  O   UNL     1       4.122   5.715  19.770  0.00  0.00    +0.000 OA
ATOM     21  H   UNL     1       3.234   6.077  19.605  0.00  0.00    +0.000 HD
ENDBRANCH  19  20
BRANCH  19  22
ATOM     22  C   UNL     1       3.086   3.585  19.211  0.00  0.00    +0.000 C 
BRANCH  22  23
ATOM     23  O   UNL     1       1.903   4.117  18.617  0.00  0.00    +0.000 OA
ATOM     24  H   UNL     1       1.683   3.566  17.844  0.00  0.00    +0.000 HD
ENDBRANCH  22  23
ENDBRANCH  19  22
ENDBRANCH   6  19
TORSDOF 10
ENDMDL
MODEL 7
REMARK VINA RESULT:      -6.7      1.606      1.980
REMARK  Name = 
REMARK  10 active torsions:
REMARK  status: ('A' for Active; 'I' for Inactive)
REMARK    1  A    between atoms: C_3  and  O_4
REMARK    2  A    between atoms: O_4  and  C_5
REMARK    3  A    between atoms: C_5  and  C_6
REMARK    4  A    between atoms: C_6  and  C_7
REMARK    5  A    between atoms: C_7  and  C_8
REMARK    6  A    between atoms: C_14  and  O_15
REMARK    7  A    between atoms: C_17  and  C_18
REMARK    8  A    between atoms: C_18  and  O_19
REMARK    9  A    between atoms: C_18  and  C_20
REMARK   10  A    between atoms: C_20  and  O_21
REMARK                            x       y       z     vdW  Elec       q    Type
REMARK                         _______ _______ _______ _____ _____    ______ ____
ROOT
ATOM      1  O   UNL     1       6.860   6.663  16.363  0.00  0.00    +0.000 OA
ATOM      2  C   UNL     1       6.882   6.118  17.457  0.00  0.00    +0.000 C 
ATOM      3  C   UNL     1       7.745   6.538  18.573  0.00  0.00    +0.000 C 
ATOM      4  C   UNL     1       7.576   5.524  19.444  0.00  0.00    +0.000 C 
ATOM      5  O   UNL     1       6.749   4.481  19.046  0.00  0.00    +0.000 OA
ATOM      6  C   UNL     1       6.056   4.935  17.865  0.00  0.00    +0.000 C 
ENDROOT
BRANCH   4   7
ATOM      7  O   UNL     1       8.130   5.394  20.686  0.00  0.00    +0.000 OA
ATOM      8  H   UNL     1       8.398   6.251  21.037  0.00  0.00    +0.000 HD
ENDBRANCH   4   7
BRANCH   3   9
ATOM      9  O   UNL     1       8.425   7.708  18.533  0.00  0.00    +0.000 OA
BRANCH   9  10
ATOM     10  C   UNL     1       7.867   8.801  17.825  0.00  0.00    +0.000 C 
BRANCH  10  11
ATOM     11  C   UNL     1       8.783  10.013  17.963  0.00  0.00    +0.000 C 
BRANCH  11  12
ATOM     12  C   UNL     1       9.262  10.143  19.408  0.00  0.00    +0.000 C 
BRANCH  12  13
ATOM     13  C   UNL     1      10.161  11.332  19.612  0.00  0.00    +0.000 A 
ATOM     14  C   UNL     1       9.737  12.428  20.375  0.00  0.00    +0.000 A 
ATOM     15  C   UNL     1      10.575  13.529  20.555  0.00  0.00    +0.000 A 
ATOM     16  C   UNL     1      11.842  13.546  19.972  0.00  0.00    +0.000 A 
ATOM     17  C   UNL     1      12.271  12.461  19.210  0.00  0.00    +0.000 A 
ATOM     18  C   UNL     1      11.435  11.360  19.028  0.00  0.00    +0.000 A 
ENDBRANCH  12  13
ENDBRANCH  11  12
ENDBRANCH  10  11
ENDBRANCH   9  10
ENDBRANCH   3   9
BRANCH   6  19
ATOM     19  C   UNL     1       4.625   5.332  18.236  0.00  0.00    +0.000 C 
BRANCH  19  20
ATOM     20  O   UNL     1       4.044   6.182  17.245  0.00  0.00    +0.000 OA
ATOM     21  H   UNL     1       4.588   6.983  17.156  0.00  0.00    +0.000 HD
ENDBRANCH  19  20
BRANCH  19  22
ATOM     22  C   UNL     1       3.748   4.085  18.446  0.00  0.00    +0.000 C 
BRANCH  22  23
ATOM     23  O   UNL     1       4.507   2.886  18.305  0.00  0.00    +0.000 OA
ATOM     24  H   UNL     1       4.208   2.436  17.495  0.00  0.00    +0.000 HD
ENDBRANCH  22  23
ENDBRANCH  19  22
ENDBRANCH   6  19
TORSDOF 10
ENDMDL
MODEL 8
REMARK VINA RESULT:      -6.6      1.348      2.176
REMARK  Name = 
REMARK  10 active torsions:
REMARK  status: ('A' for Active; 'I' for Inactive)
REMARK    1  A    between atoms: C_3  and  O_4
REMARK    2  A    between atoms: O_4  and  C_5
REMARK    3  A    between atoms: C_5  and  C_6
REMARK    4  A    between atoms: C_6  and  C_7
REMARK    5  A    between atoms: C_7  and  C_8
REMARK    6  A    between atoms: C_14  and  O_15
REMARK    7  A    between atoms: C_17  and  C_18
REMARK    8  A    between atoms: C_18  and  O_19
REMARK    9  A    between atoms: C_18  and  C_20
REMARK   10  A    between atoms: C_20  and  O_21
REMARK                            x       y       z     vdW  Elec       q    Type
REMARK                         _______ _______ _______ _____ _____    ______ ____
ROOT
ATOM      1  O   UNL     1       6.865   5.320  20.003  0.00  0.00    +0.000 OA
ATOM      2  C   UNL     1       6.023   5.475  19.131  0.00  0.00    +0.000 C 
ATOM      3  C   UNL     1       6.294   6.087  17.820  0.00  0.00    +0.000 C 
ATOM      4  C   UNL     1       5.048   6.236  17.327  0.00  0.00    +0.000 C 
ATOM      5  O   UNL     1       3.995   5.838  18.141  0.00  0.00    +0.000 OA
ATOM      6  C   UNL     1       4.577   5.088  19.227  0.00  0.00    +0.000 C 
ENDROOT
BRANCH   4   7
ATOM      7  O   UNL     1       4.692   6.742  16.108  0.00  0.00    +0.000 OA
ATOM      8  H   UNL     1       4.541   6.035  15.470  0.00  0.00    +0.000 HD
ENDBRANCH   4   7
BRANCH   3   9
ATOM      9  O   UNL     1       7.560   6.324  17.404  0.00  0.00    +0.000 OA
BRANCH   9  10
ATOM     10  C   UNL     1       7.933   7.647  17.061  0.00  0.00    +0.000 C 
BRANCH  10  11
ATOM     11  C   UNL     1       8.352   8.397  18.320  0.00  0.00    +0.000 C 
BRANCH  11  12
ATOM     12  C   UNL     1       8.265   9.904  18.083  0.00  0.00    +0.000 C 
BRANCH  12  13
ATOM     13  C   UNL     1       9.421  10.651  18.690  0.00  0.00    +0.000 A 
ATOM     14  C   UNL     1      10.494  11.077  17.897  0.00  0.00    +0.000 A 
ATOM     15  C   UNL     1      11.564  11.765  18.470  0.00  0.00    +0.000 A 
ATOM     16  C   UNL     1      11.574  12.030  19.839  0.00  0.00    +0.000 A 
ATOM     17  C   UNL     1      10.511  11.609  20.636  0.00  0.00    +0.000 A 
ATOM     18  C   UNL     1       9.440  10.920  20.067  0.00  0.00    +0.000 A 
ENDBRANCH  12  13
ENDBRANCH  11  12
ENDBRANCH  10  11
ENDBRANCH   9  10
ENDBRANCH   3   9
BRANCH   6  19
ATOM     19  C   UNL     1       4.365   3.592  18.983  0.00  0.00    +0.000 C 
BRANCH  19  20
ATOM     20  O   UNL     1       5.344   2.806  19.664  0.00  0.00    +0.000 OA
ATOM     21  H   UNL     1       5.842   3.379  20.273  0.00  0.00    +0.000 HD
ENDBRANCH  19  20
BRANCH  19  22
ATOM     22  C   UNL     1       2.950   3.163  19.412  0.00  0.00    +0.000 C 
BRANCH  22  23
ATOM     23  O   UNL     1       2.565   3.792  20.634  0.00  0.00    +0.000 OA
ATOM     24  H   UNL     1       2.522   4.752  20.476  0.00  0.00    +0.000 HD
ENDBRANCH  22  23
ENDBRANCH  19  22
ENDBRANCH   6  19
TORSDOF 10
ENDMDL
MODEL 9
REMARK VINA RESULT:      -6.6      0.993      1.001
REMARK  Name = 
REMARK  10 active torsions:
REMARK  status: ('A' for Active; 'I' for Inactive)
REMARK    1  A    between atoms: C_3  and  O_4
REMARK    2  A    between atoms: O_4  and  C_5
REMARK    3  A    between atoms: C_5  and  C_6
REMARK    4  A    between atoms: C_6  and  C_7
REMARK    5  A    between atoms: C_7  and  C_8
REMARK    6  A    between atoms: C_14  and  O_15
REMARK    7  A    between atoms: C_17  and  C_18
REMARK    8  A    between atoms: C_18  and  O_19
REMARK    9  A    between atoms: C_18  and  C_20
REMARK   10  A    between atoms: C_20  and  O_21
REMARK                            x       y       z     vdW  Elec       q    Type
REMARK                         _______ _______ _______ _____ _____    ______ ____
ROOT
ATOM      1  O   UNL     1       4.490   6.878  17.888  0.00  0.00    +0.000 OA
ATOM      2  C   UNL     1       5.192   6.054  17.320  0.00  0.00    +0.000 C 
ATOM      3  C   UNL     1       6.448   6.377  16.624  0.00  0.00    +0.000 C 
ATOM      4  C   UNL     1       6.714   5.217  15.992  0.00  0.00    +0.000 C 
ATOM      5  O   UNL     1       5.795   4.187  16.147  0.00  0.00    +0.000 OA
ATOM      6  C   UNL     1       4.912   4.584  17.216  0.00  0.00    +0.000 C 
ENDROOT
BRANCH   4   7
ATOM      7  O   UNL     1       7.792   4.930  15.202  0.00  0.00    +0.000 OA
ATOM      8  H   UNL     1       8.361   4.273  15.618  0.00  0.00    +0.000 HD
ENDBRANCH   4   7
BRANCH   3   9
ATOM      9  O   UNL     1       7.030   7.592  16.755  0.00  0.00    +0.000 OA
BRANCH   9  10
ATOM     10  C   UNL     1       7.879   7.830  17.863  0.00  0.00    +0.000 C 
BRANCH  10  11
ATOM     11  C   UNL     1       8.261   9.306  17.899  0.00  0.00    +0.000 C 
BRANCH  11  12
ATOM     12  C   UNL     1       8.998   9.623  19.200  0.00  0.00    +0.000 C 
BRANCH  12  13
ATOM     13  C   UNL     1       9.873  10.841  19.085  0.00  0.00    +0.000 A 
ATOM     14  C   UNL     1      10.271  11.321  17.831  0.00  0.00    +0.000 A 
ATOM     15  C   UNL     1      11.087  12.449  17.734  0.00  0.00    +0.000 A 
ATOM     16  C   UNL     1      11.514  13.104  18.888  0.00  0.00    +0.000 A 
ATOM     17  C   UNL     1      11.125  12.633  20.140  0.00  0.00    +0.000 A 
ATOM     18  C   UNL     1      10.311  11.505  20.240  0.00  0.00    +0.000 A 
ENDBRANCH  12  13
ENDBRANCH  11  12
ENDBRANCH  10  11
ENDBRANCH   9  10
ENDBRANCH   3   9
BRANCH   6  19
ATOM     19  C   UNL     1       5.293   3.834  18.496  0.00  0.00    +0.000 C 
BRANCH  19  20
ATOM     20  O   UNL     1       5.795   4.724  19.495  0.00  0.00    +0.000 OA
ATOM     21  H   UNL     1       5.109   5.381  19.708  0.00  0.00    +0.000 HD
ENDBRANCH  19  20
BRANCH  19  22
ATOM     22  C   UNL     1       4.091   3.045  19.045  0.00  0.00    +0.000 C 
BRANCH  22  23
ATOM     23  O   UNL     1       4.449   1.698  19.348  0.00  0.00    +0.000 OA
ATOM     24  H   UNL     1       3.673   1.263  19.744  0.00  0.00    +0.000 HD
ENDBRANCH  22  23
ENDBRANCH  19  22
ENDBRANCH   6  19
TORSDOF 10
ENDMDL
