MODEL 1
REMARK VINA RESULT:      -8.2      0.000      0.000
REMARK  Name = 
REMARK  6 active torsions:
REMARK  status: ('A' for Active; 'I' for Inactive)
REMARK    1  A    between atoms: C_1  and  C_2
REMARK    2  A    between atoms: C_2  and  C_3
REMARK    3  A    between atoms: C_6  and  C_7
REMARK    4  A    between atoms: N_13  and  C_14
REMARK    5  A    between atoms: C_14  and  C_15
REMARK    6  A    between atoms: C_18  and  C_19
REMARK                            x       y       z     vdW  Elec       q    Type
REMARK                         _______ _______ _______ _____ _____    ______ ____
ROOT
ATOM      1  C   UNL     1       3.430   4.197  18.686  0.00  0.00    +0.000 C 
ATOM      2  C   UNL     1       2.830   3.155  17.700  0.00  0.00    +0.000 C 
ATOM      3  C   UNL     1       1.935   2.060  18.268  0.00  0.00    +0.000 C 
ATOM      4  C   UNL     1       0.721   2.569  19.025  0.00  0.00    +0.000 C 
ATOM      5  C   UNL     1       1.134   3.225  20.328  0.00  0.00    +0.000 C 
ATOM      6  C   UNL     1       1.493   4.702  20.201  0.00  0.00    +0.000 C 
ATOM      7  N   UNL     1       2.402   5.175  19.138  0.00  0.00    +0.000 NA
ENDROOT
BRANCH   1  11
ATOM      8  C   UNL     1       6.410   6.034  17.762  0.00  0.00    +0.000 A 
ATOM      9  C   UNL     1       5.839   6.050  16.507  0.00  0.00    +0.000 A 
ATOM     10  C   UNL     1       4.652   5.297  16.599  0.00  0.00    +0.000 A 
ATOM     11  C   UNL     1       4.544   4.891  17.917  0.00  0.00    +0.000 A 
ATOM     12  O   UNL     1       5.628   5.324  18.628  0.00  0.00    +0.000 OA
BRANCH   8  14
ATOM     13  C   UNL     1       7.862   8.052  17.744  0.00  0.00    +0.000 C 
ATOM     14  C   UNL     1       7.643   6.655  18.305  0.00  0.00    +0.000 C 
ENDBRANCH   8  14
ENDBRANCH   1  11
BRANCH   7  15
ATOM     15  C   UNL     1       2.996   6.472  19.588  0.00  0.00    +0.000 C 
BRANCH  15  16
ATOM     16  C   UNL     1       2.507   7.672  18.848  0.00  0.00    +0.000 A 
ATOM     17  N   UNL     1       2.725   8.034  17.599  0.00  0.00    +0.000 NA
ATOM     18  N   UNL     1       1.945   9.152  17.382  0.00  0.00    +0.000 NA
ATOM     19  C   UNL     1       1.318   9.400  18.516  0.00  0.00    +0.000 A 
ATOM     20  O   UNL     1       1.637   8.502  19.499  0.00  0.00    +0.000 OA
BRANCH  19  21
ATOM     21  C   UNL     1       0.325  10.532  18.683  0.00  0.00    +0.000 C 
ATOM     22  C   UNL     1      -1.112  10.287  18.262  0.00  0.00    +0.000 C 
ATOM     23  C   UNL     1      -0.780  10.396  19.710  0.00  0.00    +0.000 C 
ENDBRANCH  19  21
ENDBRANCH  15  16
ENDBRANCH   7  15
TORSDOF 5
ENDMDL
MODEL 2
REMARK VINA RESULT:      -8.0      2.336      5.723
REMARK  Name = 
REMARK  6 active torsions:
REMARK  status: ('A' for Active; 'I' for Inactive)
REMARK    1  A    between atoms: C_1  and  C_2
REMARK    2  A    between atoms: C_2  and  C_3
REMARK    3  A    between atoms: C_6  and  C_7
REMARK    4  A    between atoms: N_13  and  C_14
REMARK    5  A    between atoms: C_14  and  C_15
REMARK    6  A    between atoms: C_18  and  C_19
REMARK                            x       y       z     vdW  Elec       q    Type
REMARK                         _______ _______ _______ _____ _____    ______ ____
ROOT
ATOM      1  C   UNL     1       2.874   4.892  18.488  0.00  0.00    +0.000 C 
ATOM      2  C   UNL     1       1.491   4.310  18.893  0.00  0.00    +0.000 C 
ATOM      3  C   UNL     1       1.215   2.840  18.597  0.00  0.00    +0.000 C 
ATOM      4  C   UNL     1       2.203   1.875  19.227  0.00  0.00    +0.000 C 
ATOM      5  C   UNL     1       3.563   1.989  18.568  0.00  0.00    +0.000 C 
ATOM      6  C   UNL     1       4.461   3.069  19.165  0.00  0.00    +0.000 C 
ATOM      7  N   UNL     1       3.951   4.432  19.409  0.00  0.00    +0.000 NA
ENDROOT
BRANCH   1  11
ATOM      8  C   UNL     1       1.935   8.266  19.408  0.00  0.00    +0.000 A 
ATOM      9  C   UNL     1       2.453   8.595  18.174  0.00  0.00    +0.000 A 
ATOM     10  C   UNL     1       2.974   7.405  17.629  0.00  0.00    +0.000 A 
ATOM     11  C   UNL     1       2.713   6.403  18.548  0.00  0.00    +0.000 A 
ATOM     12  O   UNL     1       2.094   6.930  19.647  0.00  0.00    +0.000 OA
BRANCH   8  14
ATOM     13  C   UNL     1       0.410   8.193  21.371  0.00  0.00    +0.000 C 
ATOM     14  C   UNL     1       1.241   9.069  20.445  0.00  0.00    +0.000 C 
ENDBRANCH   8  14
ENDBRANCH   1  11
BRANCH   7  15
ATOM     15  C   UNL     1       5.123   5.361  19.437  0.00  0.00    +0.000 C 
BRANCH  15  16
ATOM     16  C   UNL     1       6.161   5.087  18.400  0.00  0.00    +0.000 A 
ATOM     17  N   UNL     1       7.396   4.651  18.544  0.00  0.00    +0.000 NA
ATOM     18  N   UNL     1       7.884   4.450  17.269  0.00  0.00    +0.000 NA
ATOM     19  C   UNL     1       6.917   4.789  16.438  0.00  0.00    +0.000 A 
ATOM     20  O   UNL     1       5.791   5.216  17.090  0.00  0.00    +0.000 OA
BRANCH  19  21
ATOM     21  C   UNL     1       7.041   4.674  14.932  0.00  0.00    +0.000 C 
ATOM     22  C   UNL     1       6.151   3.673  14.219  0.00  0.00    +0.000 C 
ATOM     23  C   UNL     1       5.888   5.131  14.063  0.00  0.00    +0.000 C 
ENDBRANCH  19  21
ENDBRANCH  15  16
ENDBRANCH   7  15
TORSDOF 5
ENDMDL
MODEL 3
REMARK VINA RESULT:      -8.0      0.939      1.588
REMARK  Name = 
REMARK  6 active torsions:
REMARK  status: ('A' for Active; 'I' for Inactive)
REMARK    1  A    between atoms: C_1  and  C_2
REMARK    2  A    between atoms: C_2  and  C_3
REMARK    3  A    between atoms: C_6  and  C_7
REMARK    4  A    between atoms: N_13  and  C_14
REMARK    5  A    between atoms: C_14  and  C_15
REMARK    6  A    between atoms: C_18  and  C_19
REMARK                            x       y       z     vdW  Elec       q    Type
REMARK                         _______ _______ _______ _____ _____    ______ ____
ROOT
ATOM      1  C   UNL     1       3.567   3.984  19.036  0.00  0.00    +0.000 C 
ATOM      2  C   UNL     1       3.174   2.906  17.988  0.00  0.00    +0.000 C 
ATOM      3  C   UNL     1       2.132   1.866  18.383  0.00  0.00    +0.000 C 
ATOM      4  C   UNL     1       0.796   2.445  18.811  0.00  0.00    +0.000 C 
ATOM      5  C   UNL     1       0.919   3.160  20.141  0.00  0.00    +0.000 C 
ATOM      6  C   UNL     1       1.352   4.619  20.032  0.00  0.00    +0.000 C 
ATOM      7  N   UNL     1       2.498   5.010  19.189  0.00  0.00    +0.000 NA
ENDROOT
BRANCH   1  11
ATOM      8  C   UNL     1       6.337   5.046  16.962  0.00  0.00    +0.000 A 
ATOM      9  C   UNL     1       6.918   5.396  18.162  0.00  0.00    +0.000 A 
ATOM     10  C   UNL     1       5.958   5.137  19.160  0.00  0.00    +0.000 A 
ATOM     11  C   UNL     1       4.853   4.607  18.516  0.00  0.00    +0.000 A 
ATOM     12  O   UNL     1       5.075   4.569  17.168  0.00  0.00    +0.000 OA
BRANCH   8  14
ATOM     13  C   UNL     1       6.131   4.042  14.697  0.00  0.00    +0.000 C 
ATOM     14  C   UNL     1       6.842   5.068  15.566  0.00  0.00    +0.000 C 
ENDBRANCH   8  14
ENDBRANCH   1  11
BRANCH   7  15
ATOM     15  C   UNL     1       3.020   6.315  19.704  0.00  0.00    +0.000 C 
BRANCH  15  16
ATOM     16  C   UNL     1       2.588   7.511  18.921  0.00  0.00    +0.000 A 
ATOM     17  N   UNL     1       2.881   7.853  17.683  0.00  0.00    +0.000 NA
ATOM     18  N   UNL     1       2.129   8.977  17.408  0.00  0.00    +0.000 NA
ATOM     19  C   UNL     1       1.442   9.248  18.501  0.00  0.00    +0.000 A 
ATOM     20  O   UNL     1       1.694   8.360  19.512  0.00  0.00    +0.000 OA
BRANCH  19  21
ATOM     21  C   UNL     1       0.456  10.395  18.597  0.00  0.00    +0.000 C 
ATOM     22  C   UNL     1      -0.967  10.151  18.129  0.00  0.00    +0.000 C 
ATOM     23  C   UNL     1      -0.687  10.300  19.586  0.00  0.00    +0.000 C 
ENDBRANCH  19  21
ENDBRANCH  15  16
ENDBRANCH   7  15
TORSDOF 5
ENDMDL
MODEL 4
REMARK VINA RESULT:      -7.7      1.204      1.212
REMARK  Name = 
REMARK  6 active torsions:
REMARK  status: ('A' for Active; 'I' for Inactive)
REMARK    1  A    between atoms: C_1  and  C_2
REMARK    2  A    between atoms: C_2  and  C_3
REMARK    3  A    between atoms: C_6  and  C_7
REMARK    4  A    between atoms: N_13  and  C_14
REMARK    5  A    between atoms: C_14  and  C_15
REMARK    6  A    between atoms: C_18  and  C_19
REMARK                            x       y       z     vdW  Elec       q    Type
REMARK                         _______ _______ _______ _____ _____    ______ ____
ROOT
ATOM      1  C   UNL     1       3.399   4.442  18.741  0.00  0.00    +0.000 C 
ATOM      2  C   UNL     1       2.788   3.476  17.688  0.00  0.00    +0.000 C 
ATOM      3  C   UNL     1       1.971   2.290  18.188  0.00  0.00    +0.000 C 
ATOM      4  C   UNL     1       0.782   2.665  19.053  0.00  0.00    +0.000 C 
ATOM      5  C   UNL     1       1.239   3.208  20.392  0.00  0.00    +0.000 C 
ATOM      6  C   UNL     1       1.530   4.706  20.396  0.00  0.00    +0.000 C 
ATOM      7  N   UNL     1       2.358   5.322  19.341  0.00  0.00    +0.000 NA
ENDROOT
BRANCH   1  11
ATOM      8  C   UNL     1       6.353   6.315  17.807  0.00  0.00    +0.000 A 
ATOM      9  C   UNL     1       5.601   6.681  16.712  0.00  0.00    +0.000 A 
ATOM     10  C   UNL     1       4.381   5.987  16.814  0.00  0.00    +0.000 A 
ATOM     11  C   UNL     1       4.439   5.258  17.990  0.00  0.00    +0.000 A 
ATOM     12  O   UNL     1       5.653   5.442  18.591  0.00  0.00    +0.000 OA
BRANCH   8  14
ATOM     13  C   UNL     1       8.028   8.150  17.879  0.00  0.00    +0.000 C 
ATOM     14  C   UNL     1       7.705   6.716  18.269  0.00  0.00    +0.000 C 
ENDBRANCH   8  14
ENDBRANCH   1  11
BRANCH   7  15
ATOM     15  C   UNL     1       2.923   6.595  19.888  0.00  0.00    +0.000 C 
BRANCH  15  16
ATOM     16  C   UNL     1       1.932   7.701  20.044  0.00  0.00    +0.000 A 
ATOM     17  N   UNL     1       1.340   8.148  21.133  0.00  0.00    +0.000 NA
ATOM     18  N   UNL     1       0.616   9.258  20.747  0.00  0.00    +0.000 NA
ATOM     19  C   UNL     1       0.807   9.400  19.450  0.00  0.00    +0.000 A 
ATOM     20  O   UNL     1       1.628   8.435  18.932  0.00  0.00    +0.000 OA
BRANCH  19  21
ATOM     21  C   UNL     1       0.210  10.537  18.644  0.00  0.00    +0.000 C 
ATOM     22  C   UNL     1      -1.115  10.295  17.945  0.00  0.00    +0.000 C 
ATOM     23  C   UNL     1      -1.063  11.195  19.132  0.00  0.00    +0.000 C 
ENDBRANCH  19  21
ENDBRANCH  15  16
ENDBRANCH   7  15
TORSDOF 5
ENDMDL
MODEL 5
REMARK VINA RESULT:      -7.7      1.542      1.826
REMARK  Name = 
REMARK  6 active torsions:
REMARK  status: ('A' for Active; 'I' for Inactive)
REMARK    1  A    between atoms: C_1  and  C_2
REMARK    2  A    between atoms: C_2  and  C_3
REMARK    3  A    between atoms: C_6  and  C_7
REMARK    4  A    between atoms: N_13  and  C_14
REMARK    5  A    between atoms: C_14  and  C_15
REMARK    6  A    between atoms: C_18  and  C_19
REMARK                            x       y       z     vdW  Elec       q    Type
REMARK                         _______ _______ _______ _____ _____    ______ ____
ROOT
ATOM      1  C   UNL     1       3.347   4.289  18.684  0.00  0.00    +0.000 C 
ATOM      2  C   UNL     1       2.689   3.282  17.700  0.00  0.00    +0.000 C 
ATOM      3  C   UNL     1       1.803   2.185  18.279  0.00  0.00    +0.000 C 
ATOM      4  C   UNL     1       0.632   2.691  19.102  0.00  0.00    +0.000 C 
ATOM      5  C   UNL     1       1.112   3.307  20.401  0.00  0.00    +0.000 C 
ATOM      6  C   UNL     1       1.487   4.782  20.296  0.00  0.00    +0.000 C 
ATOM      7  N   UNL     1       2.355   5.269  19.206  0.00  0.00    +0.000 NA
ENDROOT
BRANCH   1  11
ATOM      8  C   UNL     1       6.335   6.065  17.671  0.00  0.00    +0.000 A 
ATOM      9  C   UNL     1       5.684   6.183  16.462  0.00  0.00    +0.000 A 
ATOM     10  C   UNL     1       4.475   5.473  16.589  0.00  0.00    +0.000 A 
ATOM     11  C   UNL     1       4.436   4.987  17.885  0.00  0.00    +0.000 A 
ATOM     12  O   UNL     1       5.583   5.332  18.544  0.00  0.00    +0.000 OA
BRANCH   8  14
ATOM     13  C   UNL     1       7.863   8.026  17.687  0.00  0.00    +0.000 C 
ATOM     14  C   UNL     1       7.628   6.602  18.165  0.00  0.00    +0.000 C 
ENDBRANCH   8  14
ENDBRANCH   1  11
BRANCH   7  15
ATOM     15  C   UNL     1       2.988   6.546  19.662  0.00  0.00    +0.000 C 
BRANCH  15  16
ATOM     16  C   UNL     1       2.026   7.647  19.962  0.00  0.00    +0.000 A 
ATOM     17  N   UNL     1       1.630   8.645  19.199  0.00  0.00    +0.000 NA
ATOM     18  N   UNL     1       0.644   9.302  19.907  0.00  0.00    +0.000 NA
ATOM     19  C   UNL     1       0.519   8.667  21.056  0.00  0.00    +0.000 A 
ATOM     20  O   UNL     1       1.378   7.606  21.165  0.00  0.00    +0.000 OA
BRANCH  19  21
ATOM     21  C   UNL     1      -0.497   9.055  22.112  0.00  0.00    +0.000 C 
ATOM     22  C   UNL     1       0.020   9.538  23.454  0.00  0.00    +0.000 C 
ATOM     23  C   UNL     1      -0.616  10.508  22.519  0.00  0.00    +0.000 C 
ENDBRANCH  19  21
ENDBRANCH  15  16
ENDBRANCH   7  15
TORSDOF 5
ENDMDL
MODEL 6
REMARK VINA RESULT:      -7.7      1.651      4.564
REMARK  Name = 
REMARK  6 active torsions:
REMARK  status: ('A' for Active; 'I' for Inactive)
REMARK    1  A    between atoms: C_1  and  C_2
REMARK    2  A    between atoms: C_2  and  C_3
REMARK    3  A    between atoms: C_6  and  C_7
REMARK    4  A    between atoms: N_13  and  C_14
REMARK    5  A    between atoms: C_14  and  C_15
REMARK    6  A    between atoms: C_18  and  C_19
REMARK                            x       y       z     vdW  Elec       q    Type
REMARK                         _______ _______ _______ _____ _____    ______ ____
ROOT
ATOM      1  C   UNL     1       4.848   5.186  17.803  0.00  0.00    +0.000 C 
ATOM      2  C   UNL     1       5.796   4.708  18.938  0.00  0.00    +0.000 C 
ATOM      3  C   UNL     1       7.292   4.951  18.775  0.00  0.00    +0.000 C 
ATOM      4  C   UNL     1       7.676   6.407  18.585  0.00  0.00    +0.000 C 
ATOM      5  C   UNL     1       7.214   6.914  17.233  0.00  0.00    +0.000 C 
ATOM      6  C   UNL     1       5.782   7.441  17.217  0.00  0.00    +0.000 C 
ATOM      7  N   UNL     1       4.680   6.666  17.820  0.00  0.00    +0.000 NA
ENDROOT
BRANCH   1  11
ATOM      8  C   UNL     1       1.870   3.800  19.326  0.00  0.00    +0.000 A 
ATOM      9  C   UNL     1       1.736   3.136  18.126  0.00  0.00    +0.000 A 
ATOM     10  C   UNL     1       2.783   3.590  17.300  0.00  0.00    +0.000 A 
ATOM     11  C   UNL     1       3.523   4.483  18.056  0.00  0.00    +0.000 A 
ATOM     12  O   UNL     1       2.956   4.628  19.290  0.00  0.00    +0.000 OA
BRANCH   8  14
ATOM     13  C   UNL     1       1.753   2.819  21.608  0.00  0.00    +0.000 C 
ATOM     14  C   UNL     1       1.096   3.740  20.591  0.00  0.00    +0.000 C 
ENDBRANCH   8  14
ENDBRANCH   1  11
BRANCH   7  15
ATOM     15  C   UNL     1       3.403   7.110  17.178  0.00  0.00    +0.000 C 
BRANCH  15  16
ATOM     16  C   UNL     1       2.623   8.108  17.967  0.00  0.00    +0.000 A 
ATOM     17  N   UNL     1       2.229   9.320  17.631  0.00  0.00    +0.000 NA
ATOM     18  N   UNL     1       1.439   9.768  18.670  0.00  0.00    +0.000 NA
ATOM     19  C   UNL     1       1.419   8.805  19.571  0.00  0.00    +0.000 A 
ATOM     20  O   UNL     1       2.163   7.719  19.195  0.00  0.00    +0.000 OA
BRANCH  19  21
ATOM     21  C   UNL     1       0.622   8.890  20.857  0.00  0.00    +0.000 C 
ATOM     22  C   UNL     1       1.379   9.137  22.149  0.00  0.00    +0.000 C 
ATOM     23  C   UNL     1       0.528  10.218  21.578  0.00  0.00    +0.000 C 
ENDBRANCH  19  21
ENDBRANCH  15  16
ENDBRANCH   7  15
TORSDOF 5
ENDMDL
MODEL 7
REMARK VINA RESULT:      -7.6      2.244      5.642
REMARK  Name = 
REMARK  6 active torsions:
REMARK  status: ('A' for Active; 'I' for Inactive)
REMARK    1  A    between atoms: C_1  and  C_2
REMARK    2  A    between atoms: C_2  and  C_3
REMARK    3  A    between atoms: C_6  and  C_7
REMARK    4  A    between atoms: N_13  and  C_14
REMARK    5  A    between atoms: C_14  and  C_15
REMARK    6  A    between atoms: C_18  and  C_19
REMARK                            x       y       z     vdW  Elec       q    Type
REMARK                         _______ _______ _______ _____ _____    ______ ____
ROOT
ATOM      1  C   UNL     1       2.496   4.628  18.783  0.00  0.00    +0.000 C 
ATOM      2  C   UNL     1       1.262   3.805  19.248  0.00  0.00    +0.000 C 
ATOM      3  C   UNL     1       1.106   2.383  18.723  0.00  0.00    +0.000 C 
ATOM      4  C   UNL     1       2.277   1.467  19.030  0.00  0.00    +0.000 C 
ATOM      5  C   UNL     1       3.502   1.872  18.233  0.00  0.00    +0.000 C 
ATOM      6  C   UNL     1       4.356   2.947  18.899  0.00  0.00    +0.000 C 
ATOM      7  N   UNL     1       3.743   4.169  19.455  0.00  0.00    +0.000 NA
ENDROOT
BRANCH   1  11
ATOM      8  C   UNL     1       2.071   8.223  18.724  0.00  0.00    +0.000 A 
ATOM      9  C   UNL     1       1.892   8.082  20.084  0.00  0.00    +0.000 A 
ATOM     10  C   UNL     1       1.940   6.700  20.351  0.00  0.00    +0.000 A 
ATOM     11  C   UNL     1       2.181   6.072  19.142  0.00  0.00    +0.000 A 
ATOM     12  O   UNL     1       2.243   7.000  18.141  0.00  0.00    +0.000 OA
BRANCH   8  14
ATOM     13  C   UNL     1       1.404  10.603  18.452  0.00  0.00    +0.000 C 
ATOM     14  C   UNL     1       2.139   9.417  17.846  0.00  0.00    +0.000 C 
ENDBRANCH   8  14
ENDBRANCH   1  11
BRANCH   7  15
ATOM     15  C   UNL     1       4.797   5.229  19.503  0.00  0.00    +0.000 C 
BRANCH  15  16
ATOM     16  C   UNL     1       5.912   5.043  18.527  0.00  0.00    +0.000 A 
ATOM     17  N   UNL     1       7.167   4.704  18.743  0.00  0.00    +0.000 NA
ATOM     18  N   UNL     1       7.743   4.551  17.498  0.00  0.00    +0.000 NA
ATOM     19  C   UNL     1       6.803   4.820  16.613  0.00  0.00    +0.000 A 
ATOM     20  O   UNL     1       5.610   5.153  17.198  0.00  0.00    +0.000 OA
BRANCH  19  21
ATOM     21  C   UNL     1       7.022   4.726  15.116  0.00  0.00    +0.000 C 
ATOM     22  C   UNL     1       6.191   3.723  14.336  0.00  0.00    +0.000 C 
ATOM     23  C   UNL     1       5.921   5.181  14.181  0.00  0.00    +0.000 C 
ENDBRANCH  19  21
ENDBRANCH  15  16
ENDBRANCH   7  15
TORSDOF 5
ENDMDL
MODEL 8
REMARK VINA RESULT:      -7.6      1.710      2.333
REMARK  Name = 
REMARK  6 active torsions:
REMARK  status: ('A' for Active; 'I' for Inactive)
REMARK    1  A    between atoms: C_1  and  C_2
REMARK    2  A    between atoms: C_2  and  C_3
REMARK    3  A    between atoms: C_6  and  C_7
REMARK    4  A    between atoms: N_13  and  C_14
REMARK    5  A    between atoms: C_14  and  C_15
REMARK    6  A    between atoms: C_18  and  C_19
REMARK                            x       y       z     vdW  Elec       q    Type
REMARK                         _______ _______ _______ _____ _____    ______ ____
ROOT
ATOM      1  C   UNL     1       3.875   3.945  18.387  0.00  0.00    +0.000 C 
ATOM      2  C   UNL     1       3.332   2.675  17.674  0.00  0.00    +0.000 C 
ATOM      3  C   UNL     1       2.239   1.872  18.369  0.00  0.00    +0.000 C 
ATOM      4  C   UNL     1       0.982   2.663  18.686  0.00  0.00    +0.000 C 
ATOM      5  C   UNL     1       1.247   3.681  19.777  0.00  0.00    +0.000 C 
ATOM      6  C   UNL     1       1.785   5.016  19.273  0.00  0.00    +0.000 C 
ATOM      7  N   UNL     1       2.903   5.070  18.311  0.00  0.00    +0.000 NA
ENDROOT
BRANCH   1  11
ATOM      8  C   UNL     1       6.464   4.432  15.904  0.00  0.00    +0.000 A 
ATOM      9  C   UNL     1       7.278   4.635  16.998  0.00  0.00    +0.000 A 
ATOM     10  C   UNL     1       6.446   4.569  18.132  0.00  0.00    +0.000 A 
ATOM     11  C   UNL     1       5.170   4.292  17.670  0.00  0.00    +0.000 A 
ATOM     12  O   UNL     1       5.175   4.226  16.305  0.00  0.00    +0.000 OA
BRANCH   8  14
ATOM     13  C   UNL     1       5.510   3.979  13.653  0.00  0.00    +0.000 C 
ATOM     14  C   UNL     1       6.747   4.367  14.449  0.00  0.00    +0.000 C 
ENDBRANCH   8  14
ENDBRANCH   1  11
BRANCH   7  15
ATOM     15  C   UNL     1       3.557   6.409  18.445  0.00  0.00    +0.000 C 
BRANCH  15  16
ATOM     16  C   UNL     1       2.612   7.550  18.628  0.00  0.00    +0.000 A 
ATOM     17  N   UNL     1       2.005   8.290  17.723  0.00  0.00    +0.000 NA
ATOM     18  N   UNL     1       1.149   9.120  18.416  0.00  0.00    +0.000 NA
ATOM     19  C   UNL     1       1.304   8.838  19.695  0.00  0.00    +0.000 A 
ATOM     20  O   UNL     1       2.231   7.852  19.906  0.00  0.00    +0.000 OA
BRANCH  19  21
ATOM     21  C   UNL     1       0.506   9.510  20.795  0.00  0.00    +0.000 C 
ATOM     22  C   UNL     1      -0.351   8.634  21.690  0.00  0.00    +0.000 C 
ATOM     23  C   UNL     1       0.886   9.257  22.239  0.00  0.00    +0.000 C 
ENDBRANCH  19  21
ENDBRANCH  15  16
ENDBRANCH   7  15
TORSDOF 5
ENDMDL
MODEL 9
REMARK VINA RESULT:      -7.5      1.460      1.959
REMARK  Name = 
REMARK  6 active torsions:
REMARK  status: ('A' for Active; 'I' for Inactive)
REMARK    1  A    between atoms: C_1  and  C_2
REMARK    2  A    between atoms: C_2  and  C_3
REMARK    3  A    between atoms: C_6  and  C_7
REMARK    4  A    between atoms: N_13  and  C_14
REMARK    5  A    between atoms: C_14  and  C_15
REMARK    6  A    between atoms: C_18  and  C_19
REMARK                            x       y       z     vdW  Elec       q    Type
REMARK                         _______ _______ _______ _____ _____    ______ ____
ROOT
ATOM      1  C   UNL     1       3.666   3.938  18.974  0.00  0.00    +0.000 C 
ATOM      2  C   UNL     1       3.219   2.852  17.956  0.00  0.00    +0.000 C 
ATOM      3  C   UNL     1       2.138   1.866  18.384  0.00  0.00    +0.000 C 
ATOM      4  C   UNL     1       0.831   2.511  18.807  0.00  0.00    +0.000 C 
ATOM      5  C   UNL     1       0.995   3.253  20.119  0.00  0.00    +0.000 C 
ATOM      6  C   UNL     1       1.488   4.690  19.970  0.00  0.00    +0.000 C 
ATOM      7  N   UNL     1       2.643   5.012  19.109  0.00  0.00    +0.000 NA
ENDROOT
BRANCH   1  11
ATOM      8  C   UNL     1       6.464   4.827  16.855  0.00  0.00    +0.000 A 
ATOM      9  C   UNL     1       7.065   5.187  18.041  0.00  0.00    +0.000 A 
ATOM     10  C   UNL     1       6.103   4.996  19.052  0.00  0.00    +0.000 A 
ATOM     11  C   UNL     1       4.973   4.493  18.430  0.00  0.00    +0.000 A 
ATOM     12  O   UNL     1       5.184   4.407  17.082  0.00  0.00    +0.000 OA
BRANCH   8  14
ATOM     13  C   UNL     1       6.079   3.918  14.573  0.00  0.00    +0.000 C 
ATOM     14  C   UNL     1       6.959   4.788  15.457  0.00  0.00    +0.000 C 
ENDBRANCH   8  14
ENDBRANCH   1  11
BRANCH   7  15
ATOM     15  C   UNL     1       3.223   6.305  19.587  0.00  0.00    +0.000 C 
BRANCH  15  16
ATOM     16  C   UNL     1       2.237   7.417  19.726  0.00  0.00    +0.000 A 
ATOM     17  N   UNL     1       1.669   7.904  20.811  0.00  0.00    +0.000 NA
ATOM     18  N   UNL     1       0.937   9.000  20.402  0.00  0.00    +0.000 NA
ATOM     19  C   UNL     1       1.099   9.096  19.097  0.00  0.00    +0.000 A 
ATOM     20  O   UNL     1       1.908   8.112  18.595  0.00  0.00    +0.000 OA
BRANCH  19  21
ATOM     21  C   UNL     1       0.485  10.204  18.265  0.00  0.00    +0.000 C 
ATOM     22  C   UNL     1      -0.977  10.077  17.878  0.00  0.00    +0.000 C 
ATOM     23  C   UNL     1      -0.568  11.095  18.888  0.00  0.00    +0.000 C 
ENDBRANCH  19  21
ENDBRANCH  15  16
ENDBRANCH   7  15
TORSDOF 5
ENDMDL
