MODEL 1
REMARK VINA RESULT:      -7.8      0.000      0.000
REMARK  Name = 
REMARK  6 active torsions:
REMARK  status: ('A' for Active; 'I' for Inactive)
REMARK    1  A    between atoms: C_1  and  C_2
REMARK    2  A    between atoms: C_2  and  C_3
REMARK    3  A    between atoms: C_2  and  N_4
REMARK    4  A    between atoms: C_5  and  C_7
REMARK    5  A    between atoms: C_7  and  S_8
REMARK    6  A    between atoms: S_8  and  C_11
REMARK                            x       y       z     vdW  Elec       q    Type
REMARK                         _______ _______ _______ _____ _____    ______ ____
ROOT
ATOM      1  S   UNL     1       5.929   5.898  16.316  0.00  0.00    +0.000 S 
ATOM      2  O   UNL     1       6.735   6.456  17.393  0.00  0.00    +0.000 OA
ATOM      3  O   UNL     1       5.519   6.717  15.195  0.00  0.00    +0.000 OA
ENDROOT
BRANCH   1   4
ATOM      4  C   UNL     1       4.443   5.264  17.074  0.00  0.00    +0.000 A 
ATOM      5  C   UNL     1       3.601   6.136  17.773  0.00  0.00    +0.000 A 
ATOM      6  C   UNL     1       2.451   5.657  18.411  0.00  0.00    +0.000 A 
ATOM      7  C   UNL     1       2.199   4.282  18.326  0.00  0.00    +0.000 A 
ATOM      8  N   UNL     1       1.189   3.508  18.836  0.00  0.00    +0.000 N 
ATOM      9  N   UNL     1       1.303   2.199  18.548  0.00  0.00    +0.000 NA
ATOM     10  C   UNL     1       2.432   2.133  17.840  0.00  0.00    +0.000 A 
ATOM     11  C   UNL     1       3.035   3.397  17.655  0.00  0.00    +0.000 A 
ATOM     12  C   UNL     1       4.187   3.885  17.014  0.00  0.00    +0.000 A 
ATOM     13  H   UNL     1       0.394   3.810  19.388  0.00  0.00    +0.000 HD
ENDBRANCH   1   4
BRANCH   1  14
ATOM     14  C   UNL     1       6.744   4.449  15.727  0.00  0.00    +0.000 C 
BRANCH  14  16
ATOM     15  N   UNL     1       5.961   3.578  13.584  0.00  0.00    +0.000 N 
ATOM     16  C   UNL     1       6.797   4.470  14.226  0.00  0.00    +0.000 C 
ATOM     17  O   UNL     1       7.461   5.314  13.627  0.00  0.00    +0.000 OA
ATOM     18  H   UNL     1       5.643   2.764  14.110  0.00  0.00    +0.000 HD
BRANCH  15  20
ATOM     19  C   UNL     1       6.815   2.294  11.662  0.00  0.00    +0.000 C 
ATOM     20  C   UNL     1       5.942   3.457  12.130  0.00  0.00    +0.000 C 
ATOM     21  C   UNL     1       4.510   3.280  11.637  0.00  0.00    +0.000 C 
ENDBRANCH  15  20
ENDBRANCH  14  16
ENDBRANCH   1  14
TORSDOF 4
ENDMDL
MODEL 2
REMARK VINA RESULT:      -7.6      0.731      1.620
REMARK  Name = 
REMARK  6 active torsions:
REMARK  status: ('A' for Active; 'I' for Inactive)
REMARK    1  A    between atoms: C_1  and  C_2
REMARK    2  A    between atoms: C_2  and  C_3
REMARK    3  A    between atoms: C_2  and  N_4
REMARK    4  A    between atoms: C_5  and  C_7
REMARK    5  A    between atoms: C_7  and  S_8
REMARK    6  A    between atoms: S_8  and  C_11
REMARK                            x       y       z     vdW  Elec       q    Type
REMARK                         _______ _______ _______ _____ _____    ______ ____
ROOT
ATOM      1  S   UNL     1       5.800   5.882  16.438  0.00  0.00    +0.000 S 
ATOM      2  O   UNL     1       6.558   6.629  17.432  0.00  0.00    +0.000 OA
ATOM      3  O   UNL     1       5.220   6.550  15.292  0.00  0.00    +0.000 OA
ENDROOT
BRANCH   1   4
ATOM      4  C   UNL     1       4.465   5.087  17.314  0.00  0.00    +0.000 A 
ATOM      5  C   UNL     1       3.938   3.887  16.825  0.00  0.00    +0.000 A 
ATOM      6  C   UNL     1       2.863   3.264  17.471  0.00  0.00    +0.000 A 
ATOM      7  C   UNL     1       2.345   3.901  18.605  0.00  0.00    +0.000 A 
ATOM      8  N   UNL     1       1.312   3.569  19.443  0.00  0.00    +0.000 N 
ATOM      9  N   UNL     1       1.102   4.455  20.432  0.00  0.00    +0.000 NA
ATOM     10  C   UNL     1       2.026   5.393  20.211  0.00  0.00    +0.000 A 
ATOM     11  C   UNL     1       2.841   5.103  19.095  0.00  0.00    +0.000 A 
ATOM     12  C   UNL     1       3.921   5.722  18.443  0.00  0.00    +0.000 A 
ATOM     13  H   UNL     1       0.711   2.753  19.395  0.00  0.00    +0.000 HD
ENDBRANCH   1   4
BRANCH   1  14
ATOM     14  C   UNL     1       6.801   4.534  15.896  0.00  0.00    +0.000 C 
BRANCH  14  16
ATOM     15  N   UNL     1       5.999   3.752  13.726  0.00  0.00    +0.000 N 
ATOM     16  C   UNL     1       6.906   4.548  14.398  0.00  0.00    +0.000 C 
ATOM     17  O   UNL     1       7.677   5.314  13.823  0.00  0.00    +0.000 OA
ATOM     18  H   UNL     1       5.578   2.977  14.239  0.00  0.00    +0.000 HD
BRANCH  15  20
ATOM     19  C   UNL     1       7.000   2.555  11.818  0.00  0.00    +0.000 C 
ATOM     20  C   UNL     1       6.015   3.632  12.272  0.00  0.00    +0.000 C 
ATOM     21  C   UNL     1       4.614   3.325  11.755  0.00  0.00    +0.000 C 
ENDBRANCH  15  20
ENDBRANCH  14  16
ENDBRANCH   1  14
TORSDOF 4
ENDMDL
MODEL 3
REMARK VINA RESULT:      -7.5      1.929      2.529
REMARK  Name = 
REMARK  6 active torsions:
REMARK  status: ('A' for Active; 'I' for Inactive)
REMARK    1  A    between atoms: C_1  and  C_2
REMARK    2  A    between atoms: C_2  and  C_3
REMARK    3  A    between atoms: C_2  and  N_4
REMARK    4  A    between atoms: C_5  and  C_7
REMARK    5  A    between atoms: C_7  and  S_8
REMARK    6  A    between atoms: S_8  and  C_11
REMARK                            x       y       z     vdW  Elec       q    Type
REMARK                         _______ _______ _______ _____ _____    ______ ____
ROOT
ATOM      1  S   UNL     1       7.007   5.249  18.683  0.00  0.00    +0.000 S 
ATOM      2  O   UNL     1       7.647   4.157  17.963  0.00  0.00    +0.000 OA
ATOM      3  O   UNL     1       7.409   5.584  20.033  0.00  0.00    +0.000 OA
ENDROOT
BRANCH   1   4
ATOM      4  C   UNL     1       5.265   4.869  18.732  0.00  0.00    +0.000 A 
ATOM      5  C   UNL     1       4.400   5.695  19.457  0.00  0.00    +0.000 A 
ATOM      6  C   UNL     1       3.035   5.396  19.546  0.00  0.00    +0.000 A 
ATOM      7  C   UNL     1       2.592   4.239  18.893  0.00  0.00    +0.000 A 
ATOM      8  N   UNL     1       1.348   3.669  18.793  0.00  0.00    +0.000 N 
ATOM      9  N   UNL     1       1.324   2.529  18.080  0.00  0.00    +0.000 NA
ATOM     10  C   UNL     1       2.598   2.358  17.721  0.00  0.00    +0.000 A 
ATOM     11  C   UNL     1       3.438   3.394  18.185  0.00  0.00    +0.000 A 
ATOM     12  C   UNL     1       4.807   3.702  18.098  0.00  0.00    +0.000 A 
ATOM     13  H   UNL     1       0.478   4.006  19.189  0.00  0.00    +0.000 HD
ENDBRANCH   1   4
BRANCH   1  14
ATOM     14  C   UNL     1       7.088   6.688  17.665  0.00  0.00    +0.000 C 
BRANCH  14  16
ATOM     15  N   UNL     1       7.220   5.496  15.538  0.00  0.00    +0.000 N 
ATOM     16  C   UNL     1       6.505   6.388  16.313  0.00  0.00    +0.000 C 
ATOM     17  O   UNL     1       5.405   6.827  15.985  0.00  0.00    +0.000 OA
ATOM     18  H   UNL     1       8.211   5.373  15.747  0.00  0.00    +0.000 HD
BRANCH  15  20
ATOM     19  C   UNL     1       7.967   5.220  13.205  0.00  0.00    +0.000 C 
ATOM     20  C   UNL     1       6.797   5.147  14.185  0.00  0.00    +0.000 C 
ATOM     21  C   UNL     1       6.176   3.754  14.172  0.00  0.00    +0.000 C 
ENDBRANCH  15  20
ENDBRANCH  14  16
ENDBRANCH   1  14
TORSDOF 4
ENDMDL
MODEL 4
REMARK VINA RESULT:      -7.5      1.233      1.248
REMARK  Name = 
REMARK  6 active torsions:
REMARK  status: ('A' for Active; 'I' for Inactive)
REMARK    1  A    between atoms: C_1  and  C_2
REMARK    2  A    between atoms: C_2  and  C_3
REMARK    3  A    between atoms: C_2  and  N_4
REMARK    4  A    between atoms: C_5  and  C_7
REMARK    5  A    between atoms: C_7  and  S_8
REMARK    6  A    between atoms: S_8  and  C_11
REMARK                            x       y       z     vdW  Elec       q    Type
REMARK                         _______ _______ _______ _____ _____    ______ ____
ROOT
ATOM      1  S   UNL     1       6.032   5.955  16.389  0.00  0.00    +0.000 S 
ATOM      2  O   UNL     1       6.986   6.736  17.164  0.00  0.00    +0.000 OA
ATOM      3  O   UNL     1       5.294   6.556  15.298  0.00  0.00    +0.000 OA
ENDROOT
BRANCH   1   4
ATOM      4  C   UNL     1       4.832   5.327  17.551  0.00  0.00    +0.000 A 
ATOM      5  C   UNL     1       3.649   6.040  17.773  0.00  0.00    +0.000 A 
ATOM      6  C   UNL     1       2.711   5.590  18.709  0.00  0.00    +0.000 A 
ATOM      7  C   UNL     1       3.018   4.417  19.408  0.00  0.00    +0.000 A 
ATOM      8  N   UNL     1       2.335   3.728  20.378  0.00  0.00    +0.000 N 
ATOM      9  N   UNL     1       2.974   2.633  20.825  0.00  0.00    +0.000 NA
ATOM     10  C   UNL     1       4.111   2.627  20.126  0.00  0.00    +0.000 A 
ATOM     11  C   UNL     1       4.197   3.705  19.217  0.00  0.00    +0.000 A 
ATOM     12  C   UNL     1       5.134   4.161  18.274  0.00  0.00    +0.000 A 
ATOM     13  H   UNL     1       1.431   3.953  20.778  0.00  0.00    +0.000 HD
ENDBRANCH   1   4
BRANCH   1  14
ATOM     14  C   UNL     1       6.858   4.503  15.820  0.00  0.00    +0.000 C 
BRANCH  14  16
ATOM     15  N   UNL     1       6.027   3.710  13.665  0.00  0.00    +0.000 N 
ATOM     16  C   UNL     1       6.936   4.518  14.320  0.00  0.00    +0.000 C 
ATOM     17  O   UNL     1       7.688   5.292  13.732  0.00  0.00    +0.000 OA
ATOM     18  H   UNL     1       5.623   2.931  14.186  0.00  0.00    +0.000 HD
BRANCH  15  20
ATOM     19  C   UNL     1       6.928   2.452  11.747  0.00  0.00    +0.000 C 
ATOM     20  C   UNL     1       6.019   3.590  12.211  0.00  0.00    +0.000 C 
ATOM     21  C   UNL     1       4.595   3.372  11.710  0.00  0.00    +0.000 C 
ENDBRANCH  15  20
ENDBRANCH  14  16
ENDBRANCH   1  14
TORSDOF 4
ENDMDL
MODEL 5
REMARK VINA RESULT:      -7.4      1.701      2.254
REMARK  Name = 
REMARK  6 active torsions:
REMARK  status: ('A' for Active; 'I' for Inactive)
REMARK    1  A    between atoms: C_1  and  C_2
REMARK    2  A    between atoms: C_2  and  C_3
REMARK    3  A    between atoms: C_2  and  N_4
REMARK    4  A    between atoms: C_5  and  C_7
REMARK    5  A    between atoms: C_7  and  S_8
REMARK    6  A    between atoms: S_8  and  C_11
REMARK                            x       y       z     vdW  Elec       q    Type
REMARK                         _______ _______ _______ _____ _____    ______ ____
ROOT
ATOM      1  S   UNL     1       6.141   5.742  15.997  0.00  0.00    +0.000 S 
ATOM      2  O   UNL     1       7.418   6.282  16.442  0.00  0.00    +0.000 OA
ATOM      3  O   UNL     1       5.331   6.454  15.032  0.00  0.00    +0.000 OA
ENDROOT
BRANCH   1   4
ATOM      4  C   UNL     1       5.147   5.528  17.463  0.00  0.00    +0.000 A 
ATOM      5  C   UNL     1       5.316   4.383  18.249  0.00  0.00    +0.000 A 
ATOM      6  C   UNL     1       4.520   4.171  19.381  0.00  0.00    +0.000 A 
ATOM      7  C   UNL     1       3.553   5.142  19.672  0.00  0.00    +0.000 A 
ATOM      8  N   UNL     1       2.626   5.231  20.678  0.00  0.00    +0.000 N 
ATOM      9  N   UNL     1       1.849   6.326  20.612  0.00  0.00    +0.000 NA
ATOM     10  C   UNL     1       2.287   6.954  19.519  0.00  0.00    +0.000 A 
ATOM     11  C   UNL     1       3.356   6.275  18.892  0.00  0.00    +0.000 A 
ATOM     12  C   UNL     1       4.160   6.483  17.758  0.00  0.00    +0.000 A 
ATOM     13  H   UNL     1       2.471   4.578  21.439  0.00  0.00    +0.000 HD
ENDBRANCH   1   4
BRANCH   1  14
ATOM     14  C   UNL     1       6.418   4.091  15.439  0.00  0.00    +0.000 C 
BRANCH  14  16
ATOM     15  N   UNL     1       5.576   3.267  13.300  0.00  0.00    +0.000 N 
ATOM     16  C   UNL     1       6.501   4.069  13.940  0.00  0.00    +0.000 C 
ATOM     17  O   UNL     1       7.272   4.812  13.336  0.00  0.00    +0.000 OA
ATOM     18  H   UNL     1       5.153   2.510  13.837  0.00  0.00    +0.000 HD
BRANCH  15  20
ATOM     19  C   UNL     1       6.142   1.757  11.436  0.00  0.00    +0.000 C 
ATOM     20  C   UNL     1       5.570   3.113  11.849  0.00  0.00    +0.000 C 
ATOM     21  C   UNL     1       4.153   3.280  11.309  0.00  0.00    +0.000 C 
ENDBRANCH  15  20
ENDBRANCH  14  16
ENDBRANCH   1  14
TORSDOF 4
ENDMDL
MODEL 6
REMARK VINA RESULT:      -7.3      3.946      6.544
REMARK  Name = 
REMARK  6 active torsions:
REMARK  status: ('A' for Active; 'I' for Inactive)
REMARK    1  A    between atoms: C_1  and  C_2
REMARK    2  A    between atoms: C_2  and  C_3
REMARK    3  A    between atoms: C_2  and  N_4
REMARK    4  A    between atoms: C_5  and  C_7
REMARK    5  A    between atoms: C_7  and  S_8
REMARK    6  A    between atoms: S_8  and  C_11
REMARK                            x       y       z     vdW  Elec       q    Type
REMARK                         _______ _______ _______ _____ _____    ______ ____
ROOT
ATOM      1  S   UNL     1       3.982   2.507  19.570  0.00  0.00    +0.000 S 
ATOM      2  O   UNL     1       5.065   1.926  20.350  0.00  0.00    +0.000 OA
ATOM      3  O   UNL     1       3.112   1.671  18.770  0.00  0.00    +0.000 OA
ENDROOT
BRANCH   1   4
ATOM      4  C   UNL     1       4.734   3.690  18.466  0.00  0.00    +0.000 A 
ATOM      5  C   UNL     1       4.341   3.727  17.124  0.00  0.00    +0.000 A 
ATOM      6  C   UNL     1       4.945   4.617  16.228  0.00  0.00    +0.000 A 
ATOM      7  C   UNL     1       5.954   5.446  16.734  0.00  0.00    +0.000 A 
ATOM      8  N   UNL     1       6.735   6.400  16.135  0.00  0.00    +0.000 N 
ATOM      9  N   UNL     1       7.620   6.983  16.963  0.00  0.00    +0.000 NA
ATOM     10  C   UNL     1       7.406   6.371  18.129  0.00  0.00    +0.000 A 
ATOM     11  C   UNL     1       6.373   5.410  18.059  0.00  0.00    +0.000 A 
ATOM     12  C   UNL     1       5.761   4.515  18.954  0.00  0.00    +0.000 A 
ATOM     13  H   UNL     1       6.714   6.701  15.167  0.00  0.00    +0.000 HD
ENDBRANCH   1   4
BRANCH   1  14
ATOM     14  C   UNL     1       3.013   3.508  20.652  0.00  0.00    +0.000 C 
BRANCH  14  16
ATOM     15  N   UNL     1       2.703   5.853  20.044  0.00  0.00    +0.000 N 
ATOM     16  C   UNL     1       2.279   4.551  19.859  0.00  0.00    +0.000 C 
ATOM     17  O   UNL     1       1.438   4.235  19.020  0.00  0.00    +0.000 OA
ATOM     18  H   UNL     1       3.203   6.070  20.906  0.00  0.00    +0.000 HD
BRANCH  15  20
ATOM     19  C   UNL     1       1.754   8.106  20.356  0.00  0.00    +0.000 C 
ATOM     20  C   UNL     1       2.050   6.973  19.374  0.00  0.00    +0.000 C 
ATOM     21  C   UNL     1       2.919   7.476  18.226  0.00  0.00    +0.000 C 
ENDBRANCH  15  20
ENDBRANCH  14  16
ENDBRANCH   1  14
TORSDOF 4
ENDMDL
MODEL 7
REMARK VINA RESULT:      -7.3      2.010      2.935
REMARK  Name = 
REMARK  6 active torsions:
REMARK  status: ('A' for Active; 'I' for Inactive)
REMARK    1  A    between atoms: C_1  and  C_2
REMARK    2  A    between atoms: C_2  and  C_3
REMARK    3  A    between atoms: C_2  and  N_4
REMARK    4  A    between atoms: C_5  and  C_7
REMARK    5  A    between atoms: C_7  and  S_8
REMARK    6  A    between atoms: S_8  and  C_11
REMARK                            x       y       z     vdW  Elec       q    Type
REMARK                         _______ _______ _______ _____ _____    ______ ____
ROOT
ATOM      1  S   UNL     1       7.095   5.262  18.602  0.00  0.00    +0.000 S 
ATOM      2  O   UNL     1       7.858   4.271  17.856  0.00  0.00    +0.000 OA
ATOM      3  O   UNL     1       7.462   5.614  19.958  0.00  0.00    +0.000 OA
ENDROOT
BRANCH   1   4
ATOM      4  C   UNL     1       5.412   4.673  18.650  0.00  0.00    +0.000 A 
ATOM      5  C   UNL     1       4.980   3.746  17.695  0.00  0.00    +0.000 A 
ATOM      6  C   UNL     1       3.653   3.299  17.685  0.00  0.00    +0.000 A 
ATOM      7  C   UNL     1       2.794   3.829  18.655  0.00  0.00    +0.000 A 
ATOM      8  N   UNL     1       1.463   3.615  18.908  0.00  0.00    +0.000 N 
ATOM      9  N   UNL     1       0.978   4.334  19.935  0.00  0.00    +0.000 NA
ATOM     10  C   UNL     1       2.032   5.042  20.346  0.00  0.00    +0.000 A 
ATOM     11  C   UNL     1       3.198   4.767  19.598  0.00  0.00    +0.000 A 
ATOM     12  C   UNL     1       4.532   5.209  19.604  0.00  0.00    +0.000 A 
ATOM     13  H   UNL     1       0.831   2.992  18.417  0.00  0.00    +0.000 HD
ENDBRANCH   1   4
BRANCH   1  14
ATOM     14  C   UNL     1       6.996   6.722  17.616  0.00  0.00    +0.000 C 
BRANCH  14  16
ATOM     15  N   UNL     1       7.195   5.545  15.486  0.00  0.00    +0.000 N 
ATOM     16  C   UNL     1       6.427   6.386  16.267  0.00  0.00    +0.000 C 
ATOM     17  O   UNL     1       5.298   6.751  15.946  0.00  0.00    +0.000 OA
ATOM     18  H   UNL     1       8.193   5.489  15.689  0.00  0.00    +0.000 HD
BRANCH  15  20
ATOM     19  C   UNL     1       7.961   5.268  13.160  0.00  0.00    +0.000 C 
ATOM     20  C   UNL     1       6.789   5.173  14.135  0.00  0.00    +0.000 C 
ATOM     21  C   UNL     1       6.207   3.763  14.132  0.00  0.00    +0.000 C 
ENDBRANCH  15  20
ENDBRANCH  14  16
ENDBRANCH   1  14
TORSDOF 4
ENDMDL
MODEL 8
REMARK VINA RESULT:      -7.1      3.118      6.179
REMARK  Name = 
REMARK  6 active torsions:
REMARK  status: ('A' for Active; 'I' for Inactive)
REMARK    1  A    between atoms: C_1  and  C_2
REMARK    2  A    between atoms: C_2  and  C_3
REMARK    3  A    between atoms: C_2  and  N_4
REMARK    4  A    between atoms: C_5  and  C_7
REMARK    5  A    between atoms: C_7  and  S_8
REMARK    6  A    between atoms: S_8  and  C_11
REMARK                            x       y       z     vdW  Elec       q    Type
REMARK                         _______ _______ _______ _____ _____    ______ ____
ROOT
ATOM      1  S   UNL     1       2.631   6.656  18.520  0.00  0.00    +0.000 S 
ATOM      2  O   UNL     1       2.514   7.910  17.790  0.00  0.00    +0.000 OA
ATOM      3  O   UNL     1       2.552   6.629  19.966  0.00  0.00    +0.000 OA
ENDROOT
BRANCH   1   4
ATOM      4  C   UNL     1       4.206   5.952  18.067  0.00  0.00    +0.000 A 
ATOM      5  C   UNL     1       5.095   5.551  19.071  0.00  0.00    +0.000 A 
ATOM      6  C   UNL     1       6.354   5.034  18.742  0.00  0.00    +0.000 A 
ATOM      7  C   UNL     1       6.676   4.953  17.382  0.00  0.00    +0.000 A 
ATOM      8  N   UNL     1       7.804   4.514  16.737  0.00  0.00    +0.000 N 
ATOM      9  N   UNL     1       7.741   4.608  15.397  0.00  0.00    +0.000 NA
ATOM     10  C   UNL     1       6.535   5.137  15.178  0.00  0.00    +0.000 A 
ATOM     11  C   UNL     1       5.815   5.366  16.371  0.00  0.00    +0.000 A 
ATOM     12  C   UNL     1       4.552   5.882  16.708  0.00  0.00    +0.000 A 
ATOM     13  H   UNL     1       8.650   4.140  17.152  0.00  0.00    +0.000 HD
ENDBRANCH   1   4
BRANCH   1  14
ATOM     14  C   UNL     1       1.460   5.524  17.841  0.00  0.00    +0.000 C 
BRANCH  14  16
ATOM     15  N   UNL     1       1.791   3.948  19.676  0.00  0.00    +0.000 N 
ATOM     16  C   UNL     1       1.771   4.131  18.307  0.00  0.00    +0.000 C 
ATOM     17  O   UNL     1       1.881   3.203  17.507  0.00  0.00    +0.000 OA
ATOM     18  H   UNL     1       1.943   4.769  20.262  0.00  0.00    +0.000 HD
BRANCH  15  20
ATOM     19  C   UNL     1       3.637   2.451  20.328  0.00  0.00    +0.000 C 
ATOM     20  C   UNL     1       2.124   2.658  20.271  0.00  0.00    +0.000 C 
ATOM     21  C   UNL     1       1.519   2.552  21.667  0.00  0.00    +0.000 C 
ENDBRANCH  15  20
ENDBRANCH  14  16
ENDBRANCH   1  14
TORSDOF 4
ENDMDL
MODEL 9
REMARK VINA RESULT:      -7.1      3.450      6.652
REMARK  Name = 
REMARK  6 active torsions:
REMARK  status: ('A' for Active; 'I' for Inactive)
REMARK    1  A    between atoms: C_1  and  C_2
REMARK    2  A    between atoms: C_2  and  C_3
REMARK    3  A    between atoms: C_2  and  N_4
REMARK    4  A    between atoms: C_5  and  C_7
REMARK    5  A    between atoms: C_7  and  S_8
REMARK    6  A    between atoms: S_8  and  C_11
REMARK                            x       y       z     vdW  Elec       q    Type
REMARK                         _______ _______ _______ _____ _____    ______ ____
ROOT
ATOM      1  S   UNL     1       3.045   2.937  18.438  0.00  0.00    +0.000 S 
ATOM      2  O   UNL     1       3.344   1.519  18.576  0.00  0.00    +0.000 OA
ATOM      3  O   UNL     1       1.893   3.382  17.682  0.00  0.00    +0.000 OA
ENDROOT
BRANCH   1   4
ATOM      4  C   UNL     1       4.483   3.686  17.693  0.00  0.00    +0.000 A 
ATOM      5  C   UNL     1       5.452   4.278  18.511  0.00  0.00    +0.000 A 
ATOM      6  C   UNL     1       6.569   4.909  17.950  0.00  0.00    +0.000 A 
ATOM      7  C   UNL     1       6.658   4.926  16.553  0.00  0.00    +0.000 A 
ATOM      8  N   UNL     1       7.597   5.457  15.706  0.00  0.00    +0.000 N 
ATOM      9  N   UNL     1       7.321   5.280  14.401  0.00  0.00    +0.000 NA
ATOM     10  C   UNL     1       6.159   4.624  14.415  0.00  0.00    +0.000 A 
ATOM     11  C   UNL     1       5.696   4.361  15.723  0.00  0.00    +0.000 A 
ATOM     12  C   UNL     1       4.578   3.728  16.293  0.00  0.00    +0.000 A 
ATOM     13  H   UNL     1       8.447   5.952  15.953  0.00  0.00    +0.000 HD
ENDBRANCH   1   4
BRANCH   1  14
ATOM     14  C   UNL     1       3.002   3.641  20.055  0.00  0.00    +0.000 C 
BRANCH  14  16
ATOM     15  N   UNL     1       2.520   5.976  19.530  0.00  0.00    +0.000 N 
ATOM     16  C   UNL     1       2.048   4.800  20.080  0.00  0.00    +0.000 C 
ATOM     17  O   UNL     1       0.888   4.660  20.462  0.00  0.00    +0.000 OA
ATOM     18  H   UNL     1       3.531   6.099  19.470  0.00  0.00    +0.000 HD
BRANCH  15  20
ATOM     19  C   UNL     1       1.727   7.863  20.903  0.00  0.00    +0.000 C 
ATOM     20  C   UNL     1       1.719   7.196  19.528  0.00  0.00    +0.000 C 
ATOM     21  C   UNL     1       2.235   8.160  18.465  0.00  0.00    +0.000 C 
ENDBRANCH  15  20
ENDBRANCH  14  16
ENDBRANCH   1  14
TORSDOF 4
ENDMDL
