MODEL 1
REMARK VINA RESULT:      -6.2      0.000      0.000
REMARK  Name = 
REMARK  6 active torsions:
REMARK  status: ('A' for Active; 'I' for Inactive)
REMARK    1  A    between atoms: C_1  and  C_2
REMARK    2  A    between atoms: C_2  and  N_3
REMARK    3  A    between atoms: C_7  and  N_8
REMARK    4  A    between atoms: N_8  and  C_9
REMARK    5  A    between atoms: C_9  and  C_10
REMARK    6  A    between atoms: C_10  and  N_11
REMARK                            x       y       z     vdW  Elec       q    Type
REMARK                         _______ _______ _______ _____ _____    ______ ____
ROOT
ATOM      1  N   UNL     1       1.553   8.182  20.191  0.00  0.00    +0.000 N 
ATOM      2  C   UNL     1       2.067   6.902  20.027  0.00  0.00    +0.000 C 
ATOM      3  O   UNL     1       2.140   6.071  20.921  0.00  0.00    +0.000 OA
ATOM      4  C   UNL     1       2.552   6.715  18.636  0.00  0.00    +0.000 C 
ATOM      5  C   UNL     1       3.117   5.625  18.110  0.00  0.00    +0.000 C 
ATOM      6  S   UNL     1       2.359   8.184  17.751  0.00  0.00    +0.000 S 
ATOM      7  C   UNL     1       1.645   9.032  19.111  0.00  0.00    +0.000 C 
ATOM      8  S   UNL     1       1.178  10.630  19.012  0.00  0.00    +0.000 S 
ENDROOT
BRANCH   1  10
ATOM      9  C   UNL     1      -0.447   8.447  21.611  0.00  0.00    +0.000 C 
ATOM     10  C   UNL     1       1.068   8.561  21.517  0.00  0.00    +0.000 C 
ENDBRANCH   1  10
BRANCH   5  11
ATOM     11  N   UNL     1       3.400   4.378  18.620  0.00  0.00    +0.000 N 
ATOM     12  H   UNL     1       2.738   4.111  19.346  0.00  0.00    +0.000 HD
BRANCH  11  13
ATOM     13  C   UNL     1       4.742   3.837  18.908  0.00  0.00    +0.000 C 
BRANCH  13  14
ATOM     14  C   UNL     1       5.671   5.047  19.112  0.00  0.00    +0.000 C 
BRANCH  14  15
ATOM     15  N   UNL     1       7.086   4.988  18.716  0.00  0.00    +0.000 NA
ATOM     16  C   UNL     1       7.828   6.264  18.819  0.00  0.00    +0.000 C 
ATOM     17  C   UNL     1       7.605   7.295  17.689  0.00  0.00    +0.000 C 
ATOM     18  O   UNL     1       7.655   6.705  16.376  0.00  0.00    +0.000 OA
ATOM     19  C   UNL     1       6.749   5.606  16.292  0.00  0.00    +0.000 C 
ATOM     20  C   UNL     1       7.160   4.524  17.304  0.00  0.00    +0.000 C 
ENDBRANCH  14  15
ENDBRANCH  13  14
ENDBRANCH  11  13
ENDBRANCH   5  11
TORSDOF 5
ENDMDL
MODEL 2
REMARK VINA RESULT:      -5.8      0.916      1.049
REMARK  Name = 
REMARK  6 active torsions:
REMARK  status: ('A' for Active; 'I' for Inactive)
REMARK    1  A    between atoms: C_1  and  C_2
REMARK    2  A    between atoms: C_2  and  N_3
REMARK    3  A    between atoms: C_7  and  N_8
REMARK    4  A    between atoms: N_8  and  C_9
REMARK    5  A    between atoms: C_9  and  C_10
REMARK    6  A    between atoms: C_10  and  N_11
REMARK                            x       y       z     vdW  Elec       q    Type
REMARK                         _______ _______ _______ _____ _____    ______ ____
ROOT
ATOM      1  N   UNL     1       0.833   8.860  20.249  0.00  0.00    +0.000 N 
ATOM      2  C   UNL     1       1.573   7.706  20.025  0.00  0.00    +0.000 C 
ATOM      3  O   UNL     1       1.638   6.768  20.808  0.00  0.00    +0.000 OA
ATOM      4  C   UNL     1       2.300   7.802  18.735  0.00  0.00    +0.000 C 
ATOM      5  C   UNL     1       3.118   6.896  18.191  0.00  0.00    +0.000 C 
ATOM      6  S   UNL     1       2.011   9.344  18.017  0.00  0.00    +0.000 S 
ATOM      7  C   UNL     1       0.954   9.867  19.318  0.00  0.00    +0.000 C 
ATOM      8  S   UNL     1       0.249  11.378  19.333  0.00  0.00    +0.000 S 
ENDROOT
BRANCH   1  10
ATOM      9  C   UNL     1       0.950   9.500  22.629  0.00  0.00    +0.000 C 
ATOM     10  C   UNL     1       0.083   8.961  21.500  0.00  0.00    +0.000 C 
ENDBRANCH   1  10
BRANCH   5  11
ATOM     11  N   UNL     1       3.519   5.639  18.586  0.00  0.00    +0.000 N 
ATOM     12  H   UNL     1       2.729   5.071  18.887  0.00  0.00    +0.000 HD
BRANCH  11  13
ATOM     13  C   UNL     1       4.728   5.315  19.367  0.00  0.00    +0.000 C 
BRANCH  13  14
ATOM     14  C   UNL     1       5.583   4.383  18.489  0.00  0.00    +0.000 C 
BRANCH  14  15
ATOM     15  N   UNL     1       7.030   4.600  18.345  0.00  0.00    +0.000 NA
ATOM     16  C   UNL     1       7.508   5.954  18.703  0.00  0.00    +0.000 C 
ATOM     17  C   UNL     1       7.286   7.071  17.658  0.00  0.00    +0.000 C 
ATOM     18  O   UNL     1       7.645   6.669  16.323  0.00  0.00    +0.000 OA
ATOM     19  C   UNL     1       6.974   5.460  15.972  0.00  0.00    +0.000 C 
ATOM     20  C   UNL     1       7.407   4.336  16.930  0.00  0.00    +0.000 C 
ENDBRANCH  14  15
ENDBRANCH  13  14
ENDBRANCH  11  13
ENDBRANCH   5  11
TORSDOF 5
ENDMDL
MODEL 3
REMARK VINA RESULT:      -5.7      2.803      4.249
REMARK  Name = 
REMARK  6 active torsions:
REMARK  status: ('A' for Active; 'I' for Inactive)
REMARK    1  A    between atoms: C_1  and  C_2
REMARK    2  A    between atoms: C_2  and  N_3
REMARK    3  A    between atoms: C_7  and  N_8
REMARK    4  A    between atoms: N_8  and  C_9
REMARK    5  A    between atoms: C_9  and  C_10
REMARK    6  A    between atoms: C_10  and  N_11
REMARK                            x       y       z     vdW  Elec       q    Type
REMARK                         _______ _______ _______ _____ _____    ______ ____
ROOT
ATOM      1  N   UNL     1       1.134   9.488  19.337  0.00  0.00    +0.000 N 
ATOM      2  C   UNL     1       1.883   8.665  18.506  0.00  0.00    +0.000 C 
ATOM      3  O   UNL     1       2.121   8.908  17.331  0.00  0.00    +0.000 OA
ATOM      4  C   UNL     1       2.303   7.442  19.234  0.00  0.00    +0.000 C 
ATOM      5  C   UNL     1       3.023   6.420  18.763  0.00  0.00    +0.000 C 
ATOM      6  S   UNL     1       1.647   7.461  20.830  0.00  0.00    +0.000 S 
ATOM      7  C   UNL     1       0.866   9.016  20.602  0.00  0.00    +0.000 C 
ATOM      8  S   UNL     1      -0.045   9.733  21.801  0.00  0.00    +0.000 S 
ENDROOT
BRANCH   1  10
ATOM      9  C   UNL     1      -0.797  10.515  18.192  0.00  0.00    +0.000 C 
ATOM     10  C   UNL     1       0.595  10.725  18.772  0.00  0.00    +0.000 C 
ENDBRANCH   1  10
BRANCH   5  11
ATOM     11  N   UNL     1       3.610   6.171  17.543  0.00  0.00    +0.000 N 
ATOM     12  H   UNL     1       3.048   6.536  16.776  0.00  0.00    +0.000 HD
BRANCH  11  13
ATOM     13  C   UNL     1       4.300   4.930  17.143  0.00  0.00    +0.000 C 
BRANCH  13  14
ATOM     14  C   UNL     1       4.492   4.100  18.425  0.00  0.00    +0.000 C 
BRANCH  14  15
ATOM     15  N   UNL     1       3.979   2.724  18.517  0.00  0.00    +0.000 NA
ATOM     16  C   UNL     1       2.640   2.505  17.927  0.00  0.00    +0.000 C 
ATOM     17  C   UNL     1       1.424   2.962  18.765  0.00  0.00    +0.000 C 
ATOM     18  O   UNL     1       1.516   2.566  20.147  0.00  0.00    +0.000 OA
ATOM     19  C   UNL     1       2.753   3.003  20.706  0.00  0.00    +0.000 C 
ATOM     20  C   UNL     1       3.919   2.340  19.954  0.00  0.00    +0.000 C 
ENDBRANCH  14  15
ENDBRANCH  13  14
ENDBRANCH  11  13
ENDBRANCH   5  11
TORSDOF 5
ENDMDL
MODEL 4
REMARK VINA RESULT:      -5.6      2.756      4.119
REMARK  Name = 
REMARK  6 active torsions:
REMARK  status: ('A' for Active; 'I' for Inactive)
REMARK    1  A    between atoms: C_1  and  C_2
REMARK    2  A    between atoms: C_2  and  N_3
REMARK    3  A    between atoms: C_7  and  N_8
REMARK    4  A    between atoms: N_8  and  C_9
REMARK    5  A    between atoms: C_9  and  C_10
REMARK    6  A    between atoms: C_10  and  N_11
REMARK                            x       y       z     vdW  Elec       q    Type
REMARK                         _______ _______ _______ _____ _____    ______ ____
ROOT
ATOM      1  N   UNL     1       1.046   8.615  20.132  0.00  0.00    +0.000 N 
ATOM      2  C   UNL     1       1.910   7.593  19.761  0.00  0.00    +0.000 C 
ATOM      3  O   UNL     1       2.154   6.614  20.452  0.00  0.00    +0.000 OA
ATOM      4  C   UNL     1       2.522   7.890  18.442  0.00  0.00    +0.000 C 
ATOM      5  C   UNL     1       3.408   7.149  17.770  0.00  0.00    +0.000 C 
ATOM      6  S   UNL     1       1.984   9.431  17.883  0.00  0.00    +0.000 S 
ATOM      7  C   UNL     1       0.966   9.700  19.288  0.00  0.00    +0.000 C 
ATOM      8  S   UNL     1       0.074  11.096  19.481  0.00  0.00    +0.000 S 
ENDROOT
BRANCH   1  10
ATOM      9  C   UNL     1       1.178   9.218  22.521  0.00  0.00    +0.000 C 
ATOM     10  C   UNL     1       0.383   8.514  21.432  0.00  0.00    +0.000 C 
ENDBRANCH   1  10
BRANCH   5  11
ATOM     11  N   UNL     1       3.997   5.931  18.026  0.00  0.00    +0.000 N 
ATOM     12  H   UNL     1       4.986   6.032  18.247  0.00  0.00    +0.000 HD
BRANCH  11  13
ATOM     13  C   UNL     1       3.748   4.671  17.300  0.00  0.00    +0.000 C 
BRANCH  13  14
ATOM     14  C   UNL     1       2.343   4.195  17.712  0.00  0.00    +0.000 C 
BRANCH  14  15
ATOM     15  N   UNL     1       2.111   2.806  18.137  0.00  0.00    +0.000 NA
ATOM     16  C   UNL     1       0.910   2.590  18.974  0.00  0.00    +0.000 C 
ATOM     17  C   UNL     1       1.021   2.976  20.467  0.00  0.00    +0.000 C 
ATOM     18  O   UNL     1       2.239   2.510  21.076  0.00  0.00    +0.000 OA
ATOM     19  C   UNL     1       3.369   2.942  20.321  0.00  0.00    +0.000 C 
ATOM     20  C   UNL     1       3.299   2.345  18.905  0.00  0.00    +0.000 C 
ENDBRANCH  14  15
ENDBRANCH  13  14
ENDBRANCH  11  13
ENDBRANCH   5  11
TORSDOF 5
ENDMDL
MODEL 5
REMARK VINA RESULT:      -5.6      2.312      2.906
REMARK  Name = 
REMARK  6 active torsions:
REMARK  status: ('A' for Active; 'I' for Inactive)
REMARK    1  A    between atoms: C_1  and  C_2
REMARK    2  A    between atoms: C_2  and  N_3
REMARK    3  A    between atoms: C_7  and  N_8
REMARK    4  A    between atoms: N_8  and  C_9
REMARK    5  A    between atoms: C_9  and  C_10
REMARK    6  A    between atoms: C_10  and  N_11
REMARK                            x       y       z     vdW  Elec       q    Type
REMARK                         _______ _______ _______ _____ _____    ______ ____
ROOT
ATOM      1  N   UNL     1       0.726  10.210  19.559  0.00  0.00    +0.000 N 
ATOM      2  C   UNL     1       1.383   9.183  18.893  0.00  0.00    +0.000 C 
ATOM      3  O   UNL     1       1.591   9.169  17.687  0.00  0.00    +0.000 OA
ATOM      4  C   UNL     1       1.744   8.100  19.842  0.00  0.00    +0.000 C 
ATOM      5  C   UNL     1       2.370   6.953  19.568  0.00  0.00    +0.000 C 
ATOM      6  S   UNL     1       1.154   8.486  21.416  0.00  0.00    +0.000 S 
ATOM      7  C   UNL     1       0.476  10.021  20.900  0.00  0.00    +0.000 C 
ATOM      8  S   UNL     1      -0.335  11.029  21.952  0.00  0.00    +0.000 S 
ENDROOT
BRANCH   1  10
ATOM      9  C   UNL     1      -1.193  11.166  18.338  0.00  0.00    +0.000 C 
ATOM     10  C   UNL     1       0.255  11.348  18.771  0.00  0.00    +0.000 C 
ENDBRANCH   1  10
BRANCH   5  11
ATOM     11  N   UNL     1       2.890   6.423  18.408  0.00  0.00    +0.000 N 
ATOM     12  H   UNL     1       2.679   5.430  18.322  0.00  0.00    +0.000 HD
BRANCH  11  13
ATOM     13  C   UNL     1       4.209   6.730  17.822  0.00  0.00    +0.000 C 
BRANCH  13  14
ATOM     14  C   UNL     1       4.465   5.672  16.734  0.00  0.00    +0.000 C 
BRANCH  14  15
ATOM     15  N   UNL     1       5.074   4.376  17.069  0.00  0.00    +0.000 NA
ATOM     16  C   UNL     1       6.029   4.397  18.199  0.00  0.00    +0.000 C 
ATOM     17  C   UNL     1       7.449   4.932  17.904  0.00  0.00    +0.000 C 
ATOM     18  O   UNL     1       8.007   4.398  16.690  0.00  0.00    +0.000 OA
ATOM     19  C   UNL     1       7.112   4.608  15.598  0.00  0.00    +0.000 C 
ATOM     20  C   UNL     1       5.791   3.869  15.868  0.00  0.00    +0.000 C 
ENDBRANCH  14  15
ENDBRANCH  13  14
ENDBRANCH  11  13
ENDBRANCH   5  11
TORSDOF 5
ENDMDL
MODEL 6
REMARK VINA RESULT:      -5.6      2.821      4.475
REMARK  Name = 
REMARK  6 active torsions:
REMARK  status: ('A' for Active; 'I' for Inactive)
REMARK    1  A    between atoms: C_1  and  C_2
REMARK    2  A    between atoms: C_2  and  N_3
REMARK    3  A    between atoms: C_7  and  N_8
REMARK    4  A    between atoms: N_8  and  C_9
REMARK    5  A    between atoms: C_9  and  C_10
REMARK    6  A    between atoms: C_10  and  N_11
REMARK                            x       y       z     vdW  Elec       q    Type
REMARK                         _______ _______ _______ _____ _____    ______ ____
ROOT
ATOM      1  N   UNL     1       2.190   3.425  19.100  0.00  0.00    +0.000 N 
ATOM      2  C   UNL     1       2.517   4.493  18.275  0.00  0.00    +0.000 C 
ATOM      3  O   UNL     1       2.792   4.386  17.088  0.00  0.00    +0.000 OA
ATOM      4  C   UNL     1       2.529   5.759  19.050  0.00  0.00    +0.000 C 
ATOM      5  C   UNL     1       2.809   6.986  18.602  0.00  0.00    +0.000 C 
ATOM      6  S   UNL     1       2.198   5.427  20.711  0.00  0.00    +0.000 S 
ATOM      7  C   UNL     1       2.014   3.703  20.437  0.00  0.00    +0.000 C 
ATOM      8  S   UNL     1       1.677   2.641  21.678  0.00  0.00    +0.000 S 
ENDROOT
BRANCH   1  10
ATOM      9  C   UNL     1       3.555   1.449  18.534  0.00  0.00    +0.000 C 
ATOM     10  C   UNL     1       2.173   2.086  18.514  0.00  0.00    +0.000 C 
ENDBRANCH   1  10
BRANCH   5  11
ATOM     11  N   UNL     1       3.129   7.479  17.357  0.00  0.00    +0.000 N 
ATOM     12  H   UNL     1       2.309   7.542  16.757  0.00  0.00    +0.000 HD
BRANCH  11  13
ATOM     13  C   UNL     1       4.331   7.145  16.569  0.00  0.00    +0.000 C 
BRANCH  13  14
ATOM     14  C   UNL     1       5.508   7.093  17.560  0.00  0.00    +0.000 C 
BRANCH  14  15
ATOM     15  N   UNL     1       6.886   6.901  17.085  0.00  0.00    +0.000 NA
ATOM     16  C   UNL     1       7.126   5.659  16.318  0.00  0.00    +0.000 C 
ATOM     17  C   UNL     1       7.277   4.353  17.132  0.00  0.00    +0.000 C 
ATOM     18  O   UNL     1       8.143   4.501  18.273  0.00  0.00    +0.000 OA
ATOM     19  C   UNL     1       7.715   5.596  19.081  0.00  0.00    +0.000 C 
ATOM     20  C   UNL     1       7.793   6.898  18.265  0.00  0.00    +0.000 C 
ENDBRANCH  14  15
ENDBRANCH  13  14
ENDBRANCH  11  13
ENDBRANCH   5  11
TORSDOF 5
ENDMDL
MODEL 7
REMARK VINA RESULT:      -5.5      2.224      3.052
REMARK  Name = 
REMARK  6 active torsions:
REMARK  status: ('A' for Active; 'I' for Inactive)
REMARK    1  A    between atoms: C_1  and  C_2
REMARK    2  A    between atoms: C_2  and  N_3
REMARK    3  A    between atoms: C_7  and  N_8
REMARK    4  A    between atoms: N_8  and  C_9
REMARK    5  A    between atoms: C_9  and  C_10
REMARK    6  A    between atoms: C_10  and  N_11
REMARK                            x       y       z     vdW  Elec       q    Type
REMARK                         _______ _______ _______ _____ _____    ______ ____
ROOT
ATOM      1  N   UNL     1       0.922  10.189  19.530  0.00  0.00    +0.000 N 
ATOM      2  C   UNL     1       1.555   9.098  18.949  0.00  0.00    +0.000 C 
ATOM      3  O   UNL     1       1.863   9.031  17.767  0.00  0.00    +0.000 OA
ATOM      4  C   UNL     1       1.752   8.022  19.952  0.00  0.00    +0.000 C 
ATOM      5  C   UNL     1       2.313   6.824  19.763  0.00  0.00    +0.000 C 
ATOM      6  S   UNL     1       1.061   8.499  21.460  0.00  0.00    +0.000 S 
ATOM      7  C   UNL     1       0.545  10.061  20.848  0.00  0.00    +0.000 C 
ATOM      8  S   UNL     1      -0.274  11.158  21.800  0.00  0.00    +0.000 S 
ENDROOT
BRANCH   1  10
ATOM      9  C   UNL     1       1.703  12.386  18.721  0.00  0.00    +0.000 C 
ATOM     10  C   UNL     1       0.605  11.333  18.675  0.00  0.00    +0.000 C 
ENDBRANCH   1  10
BRANCH   5  11
ATOM     11  N   UNL     1       2.888   6.222  18.667  0.00  0.00    +0.000 N 
ATOM     12  H   UNL     1       2.278   6.264  17.853  0.00  0.00    +0.000 HD
BRANCH  11  13
ATOM     13  C   UNL     1       3.675   4.974  18.669  0.00  0.00    +0.000 C 
BRANCH  13  14
ATOM     14  C   UNL     1       4.245   4.809  17.249  0.00  0.00    +0.000 C 
BRANCH  14  15
ATOM     15  N   UNL     1       5.165   5.807  16.684  0.00  0.00    +0.000 NA
ATOM     16  C   UNL     1       5.606   5.551  15.295  0.00  0.00    +0.000 C 
ATOM     17  C   UNL     1       6.713   4.490  15.098  0.00  0.00    +0.000 C 
ATOM     18  O   UNL     1       7.802   4.638  16.028  0.00  0.00    +0.000 OA
ATOM     19  C   UNL     1       7.310   4.664  17.367  0.00  0.00    +0.000 C 
ATOM     20  C   UNL     1       6.375   5.873  17.547  0.00  0.00    +0.000 C 
ENDBRANCH  14  15
ENDBRANCH  13  14
ENDBRANCH  11  13
ENDBRANCH   5  11
TORSDOF 5
ENDMDL
MODEL 8
REMARK VINA RESULT:      -5.5      1.113      1.402
REMARK  Name = 
REMARK  6 active torsions:
REMARK  status: ('A' for Active; 'I' for Inactive)
REMARK    1  A    between atoms: C_1  and  C_2
REMARK    2  A    between atoms: C_2  and  N_3
REMARK    3  A    between atoms: C_7  and  N_8
REMARK    4  A    between atoms: N_8  and  C_9
REMARK    5  A    between atoms: C_9  and  C_10
REMARK    6  A    between atoms: C_10  and  N_11
REMARK                            x       y       z     vdW  Elec       q    Type
REMARK                         _______ _______ _______ _____ _____    ______ ____
ROOT
ATOM      1  N   UNL     1       1.457   8.467  20.203  0.00  0.00    +0.000 N 
ATOM      2  C   UNL     1       1.921   7.164  20.075  0.00  0.00    +0.000 C 
ATOM      3  O   UNL     1       1.958   6.355  20.992  0.00  0.00    +0.000 OA
ATOM      4  C   UNL     1       2.404   6.922  18.693  0.00  0.00    +0.000 C 
ATOM      5  C   UNL     1       2.929   5.797  18.199  0.00  0.00    +0.000 C 
ATOM      6  S   UNL     1       2.273   8.373  17.768  0.00  0.00    +0.000 S 
ATOM      7  C   UNL     1       1.586   9.284  19.102  0.00  0.00    +0.000 C 
ATOM      8  S   UNL     1       1.182  10.895  18.958  0.00  0.00    +0.000 S 
ENDROOT
BRANCH   1  10
ATOM      9  C   UNL     1      -0.498   8.590  21.704  0.00  0.00    +0.000 C 
ATOM     10  C   UNL     1       0.981   8.900  21.516  0.00  0.00    +0.000 C 
ENDBRANCH   1  10
BRANCH   5  11
ATOM     11  N   UNL     1       3.162   4.554  18.742  0.00  0.00    +0.000 N 
ATOM     12  H   UNL     1       2.971   4.541  19.743  0.00  0.00    +0.000 HD
BRANCH  11  13
ATOM     13  C   UNL     1       4.280   3.651  18.409  0.00  0.00    +0.000 C 
BRANCH  13  14
ATOM     14  C   UNL     1       4.501   3.765  16.890  0.00  0.00    +0.000 C 
BRANCH  14  15
ATOM     15  N   UNL     1       5.828   4.087  16.343  0.00  0.00    +0.000 NA
ATOM     16  C   UNL     1       6.775   4.706  17.296  0.00  0.00    +0.000 C 
ATOM     17  C   UNL     1       6.586   6.211  17.590  0.00  0.00    +0.000 C 
ATOM     18  O   UNL     1       6.376   6.992  16.399  0.00  0.00    +0.000 OA
ATOM     19  C   UNL     1       5.300   6.451  15.634  0.00  0.00    +0.000 C 
ATOM     20  C   UNL     1       5.651   5.019  15.197  0.00  0.00    +0.000 C 
ENDBRANCH  14  15
ENDBRANCH  13  14
ENDBRANCH  11  13
ENDBRANCH   5  11
TORSDOF 5
ENDMDL
MODEL 9
REMARK VINA RESULT:      -5.4      2.962      4.129
REMARK  Name = 
REMARK  6 active torsions:
REMARK  status: ('A' for Active; 'I' for Inactive)
REMARK    1  A    between atoms: C_1  and  C_2
REMARK    2  A    between atoms: C_2  and  N_3
REMARK    3  A    between atoms: C_7  and  N_8
REMARK    4  A    between atoms: N_8  and  C_9
REMARK    5  A    between atoms: C_9  and  C_10
REMARK    6  A    between atoms: C_10  and  N_11
REMARK                            x       y       z     vdW  Elec       q    Type
REMARK                         _______ _______ _______ _____ _____    ______ ____
ROOT
ATOM      1  N   UNL     1       0.740  10.327  19.607  0.00  0.00    +0.000 N 
ATOM      2  C   UNL     1       1.381   9.297  18.930  0.00  0.00    +0.000 C 
ATOM      3  O   UNL     1       1.601   9.298  17.726  0.00  0.00    +0.000 OA
ATOM      4  C   UNL     1       1.708   8.191  19.864  0.00  0.00    +0.000 C 
ATOM      5  C   UNL     1       2.312   7.034  19.577  0.00  0.00    +0.000 C 
ATOM      6  S   UNL     1       1.111   8.564  21.439  0.00  0.00    +0.000 S 
ATOM      7  C   UNL     1       0.472  10.121  20.941  0.00  0.00    +0.000 C 
ATOM      8  S   UNL     1      -0.327  11.130  22.002  0.00  0.00    +0.000 S 
ENDROOT
BRANCH   1  10
ATOM      9  C   UNL     1       1.335  12.604  18.865  0.00  0.00    +0.000 C 
ATOM     10  C   UNL     1       0.301  11.487  18.833  0.00  0.00    +0.000 C 
ENDBRANCH   1  10
BRANCH   5  11
ATOM     11  N   UNL     1       2.832   6.512  18.414  0.00  0.00    +0.000 N 
ATOM     12  H   UNL     1       2.186   5.858  17.976  0.00  0.00    +0.000 HD
BRANCH  11  13
ATOM     13  C   UNL     1       4.230   6.096  18.193  0.00  0.00    +0.000 C 
BRANCH  13  14
ATOM     14  C   UNL     1       4.525   4.980  19.211  0.00  0.00    +0.000 C 
BRANCH  14  15
ATOM     15  N   UNL     1       4.705   3.587  18.774  0.00  0.00    +0.000 NA
ATOM     16  C   UNL     1       4.034   3.229  17.505  0.00  0.00    +0.000 C 
ATOM     17  C   UNL     1       2.513   2.961  17.570  0.00  0.00    +0.000 C 
ATOM     18  O   UNL     1       2.140   2.117  18.676  0.00  0.00    +0.000 OA
ATOM     19  C   UNL     1       2.649   2.649  19.898  0.00  0.00    +0.000 C 
ATOM     20  C   UNL     1       4.185   2.689  19.841  0.00  0.00    +0.000 C 
ENDBRANCH  14  15
ENDBRANCH  13  14
ENDBRANCH  11  13
ENDBRANCH   5  11
TORSDOF 5
ENDMDL
