MODEL 1
REMARK VINA RESULT:      -7.9      0.000      0.000
REMARK  Name = 
REMARK  8 active torsions:
REMARK  status: ('A' for Active; 'I' for Inactive)
REMARK    1  A    between atoms: C_1  and  O_2
REMARK    2  A    between atoms: O_2  and  C_3
REMARK    3  A    between atoms: C_6  and  C_7
REMARK    4  A    between atoms: N_9  and  C_10
REMARK    5  A    between atoms: N_13  and  C_14
REMARK    6  A    between atoms: C_14  and  C_15
REMARK    7  A    between atoms: C_16  and  C_17
REMARK    8  A    between atoms: C_20  and  C_21
REMARK                            x       y       z     vdW  Elec       q    Type
REMARK                         _______ _______ _______ _____ _____    ______ ____
ROOT
ATOM      1  C   UNL     1       2.737   6.001  19.470  0.00  0.00    +0.000 A 
ATOM      2  C   UNL     1       2.226   4.840  18.848  0.00  0.00    +0.000 A 
ATOM      3  N   UNL     1       3.182   4.104  18.269  0.00  0.00    +0.000 NA
ATOM      4  N   UNL     1       4.311   4.802  18.510  0.00  0.00    +0.000 N 
ATOM      5  C   UNL     1       4.086   5.968  19.196  0.00  0.00    +0.000 A 
ENDROOT
BRANCH   1   8
ATOM      6  C   UNL     1       1.699   8.198  19.698  0.00  0.00    +0.000 C 
ATOM      7  O   UNL     1       1.824   8.548  18.530  0.00  0.00    +0.000 OA
ATOM      8  N   UNL     1       2.124   6.989  20.223  0.00  0.00    +0.000 N 
ATOM      9  H   UNL     1       1.888   6.747  21.174  0.00  0.00    +0.000 HD
BRANCH   6  13
ATOM     10  C   UNL     1      -0.413  10.721  22.477  0.00  0.00    +0.000 A 
ATOM     11  C   UNL     1      -0.286   9.349  22.697  0.00  0.00    +0.000 A 
ATOM     12  C   UNL     1       0.415   8.548  21.793  0.00  0.00    +0.000 A 
ATOM     13  C   UNL     1       0.991   9.110  20.647  0.00  0.00    +0.000 A 
ATOM     14  C   UNL     1       0.848  10.485  20.416  0.00  0.00    +0.000 A 
ATOM     15  C   UNL     1       0.149  11.287  21.331  0.00  0.00    +0.000 A 
BRANCH  10  17
ATOM     16  C   UNL     1      -1.547  12.713  23.081  0.00  0.00    +0.000 C 
ATOM     17  O   UNL     1      -1.151  11.388  23.414  0.00  0.00    +0.000 OA
ENDBRANCH  10  17
ENDBRANCH   6  13
ENDBRANCH   1   8
BRANCH   4  18
ATOM     18  C   UNL     1       5.610   4.203  18.221  0.00  0.00    +0.000 C 
BRANCH  18  19
ATOM     19  C   UNL     1       6.381   4.986  17.224  0.00  0.00    +0.000 A 
ATOM     20  C   UNL     1       6.389   4.855  15.805  0.00  0.00    +0.000 A 
ATOM     21  C   UNL     1       5.631   3.920  14.939  0.00  0.00    +0.000 C 
ATOM     22  N   UNL     1       7.247   5.714  15.242  0.00  0.00    +0.000 NA
ATOM     23  O   UNL     1       7.814   6.422  16.280  0.00  0.00    +0.000 OA
ATOM     24  C   UNL     1       7.305   5.983  17.459  0.00  0.00    +0.000 A 
ATOM     25  C   UNL     1       7.839   6.625  18.675  0.00  0.00    +0.000 C 
ENDBRANCH  18  19
ENDBRANCH   4  18
TORSDOF 5
ENDMDL
MODEL 2
REMARK VINA RESULT:      -7.9      0.252      1.004
REMARK  Name = 
REMARK  8 active torsions:
REMARK  status: ('A' for Active; 'I' for Inactive)
REMARK    1  A    between atoms: C_1  and  O_2
REMARK    2  A    between atoms: O_2  and  C_3
REMARK    3  A    between atoms: C_6  and  C_7
REMARK    4  A    between atoms: N_9  and  C_10
REMARK    5  A    between atoms: N_13  and  C_14
REMARK    6  A    between atoms: C_14  and  C_15
REMARK    7  A    between atoms: C_16  and  C_17
REMARK    8  A    between atoms: C_20  and  C_21
REMARK                            x       y       z     vdW  Elec       q    Type
REMARK                         _______ _______ _______ _____ _____    ______ ____
ROOT
ATOM      1  C   UNL     1       2.801   5.826  19.620  0.00  0.00    +0.000 A 
ATOM      2  C   UNL     1       2.336   4.620  19.048  0.00  0.00    +0.000 A 
ATOM      3  N   UNL     1       3.313   3.922  18.457  0.00  0.00    +0.000 NA
ATOM      4  N   UNL     1       4.407   4.688  18.640  0.00  0.00    +0.000 N 
ATOM      5  C   UNL     1       4.140   5.860  19.300  0.00  0.00    +0.000 A 
ENDROOT
BRANCH   1   8
ATOM      6  C   UNL     1       1.749   8.016  19.845  0.00  0.00    +0.000 C 
ATOM      7  O   UNL     1       1.916   8.386  18.688  0.00  0.00    +0.000 OA
ATOM      8  N   UNL     1       2.158   6.800  20.365  0.00  0.00    +0.000 N 
ATOM      9  H   UNL     1       1.888   6.542  21.303  0.00  0.00    +0.000 HD
BRANCH   6  13
ATOM     10  C   UNL     1      -0.346  10.705  22.478  0.00  0.00    +0.000 A 
ATOM     11  C   UNL     1       0.039  11.100  21.196  0.00  0.00    +0.000 A 
ATOM     12  C   UNL     1       0.704  10.210  20.350  0.00  0.00    +0.000 A 
ATOM     13  C   UNL     1       1.004   8.912  20.782  0.00  0.00    +0.000 A 
ATOM     14  C   UNL     1       0.635   8.521  22.075  0.00  0.00    +0.000 A 
ATOM     15  C   UNL     1      -0.041   9.416  22.919  0.00  0.00    +0.000 A 
BRANCH  10  17
ATOM     16  C   UNL     1      -1.444  12.806  22.505  0.00  0.00    +0.000 C 
ATOM     17  O   UNL     1      -0.958  11.677  23.220  0.00  0.00    +0.000 OA
ENDBRANCH  10  17
ENDBRANCH   6  13
ENDBRANCH   1   8
BRANCH   4  18
ATOM     18  C   UNL     1       5.728   4.154  18.322  0.00  0.00    +0.000 C 
BRANCH  18  19
ATOM     19  C   UNL     1       6.431   4.965  17.298  0.00  0.00    +0.000 A 
ATOM     20  C   UNL     1       6.388   4.835  15.880  0.00  0.00    +0.000 A 
ATOM     21  C   UNL     1       5.627   3.876  15.042  0.00  0.00    +0.000 C 
ATOM     22  N   UNL     1       7.192   5.725  15.285  0.00  0.00    +0.000 NA
ATOM     23  O   UNL     1       7.776   6.449  16.302  0.00  0.00    +0.000 OA
ATOM     24  C   UNL     1       7.330   5.992  17.499  0.00  0.00    +0.000 A 
ATOM     25  C   UNL     1       7.890   6.650  18.694  0.00  0.00    +0.000 C 
ENDBRANCH  18  19
ENDBRANCH   4  18
TORSDOF 5
ENDMDL
MODEL 3
REMARK VINA RESULT:      -7.8      0.543      1.918
REMARK  Name = 
REMARK  8 active torsions:
REMARK  status: ('A' for Active; 'I' for Inactive)
REMARK    1  A    between atoms: C_1  and  O_2
REMARK    2  A    between atoms: O_2  and  C_3
REMARK    3  A    between atoms: C_6  and  C_7
REMARK    4  A    between atoms: N_9  and  C_10
REMARK    5  A    between atoms: N_13  and  C_14
REMARK    6  A    between atoms: C_14  and  C_15
REMARK    7  A    between atoms: C_16  and  C_17
REMARK    8  A    between atoms: C_20  and  C_21
REMARK                            x       y       z     vdW  Elec       q    Type
REMARK                         _______ _______ _______ _____ _____    ______ ____
ROOT
ATOM      1  C   UNL     1       2.714   5.769  19.531  0.00  0.00    +0.000 A 
ATOM      2  C   UNL     1       2.219   4.631  18.857  0.00  0.00    +0.000 A 
ATOM      3  N   UNL     1       3.186   3.926  18.259  0.00  0.00    +0.000 NA
ATOM      4  N   UNL     1       4.307   4.621  18.540  0.00  0.00    +0.000 N 
ATOM      5  C   UNL     1       4.066   5.757  19.270  0.00  0.00    +0.000 A 
ENDROOT
BRANCH   1   8
ATOM      6  C   UNL     1       1.717   7.973  19.853  0.00  0.00    +0.000 C 
ATOM      7  O   UNL     1       1.911   8.396  18.719  0.00  0.00    +0.000 OA
ATOM      8  N   UNL     1       2.086   6.722  20.317  0.00  0.00    +0.000 N 
ATOM      9  H   UNL     1       1.795   6.423  21.236  0.00  0.00    +0.000 HD
BRANCH   6  13
ATOM     10  C   UNL     1      -0.393  10.573  22.562  0.00  0.00    +0.000 A 
ATOM     11  C   UNL     1      -0.393  10.807  21.186  0.00  0.00    +0.000 A 
ATOM     12  C   UNL     1       0.284   9.945  20.321  0.00  0.00    +0.000 A 
ATOM     13  C   UNL     1       0.982   8.840  20.824  0.00  0.00    +0.000 A 
ATOM     14  C   UNL     1       0.997   8.615  22.207  0.00  0.00    +0.000 A 
ATOM     15  C   UNL     1       0.308   9.480  23.072  0.00  0.00    +0.000 A 
BRANCH  10  17
ATOM     16  C   UNL     1      -1.590  12.619  22.592  0.00  0.00    +0.000 C 
ATOM     17  O   UNL     1      -1.062  11.507  23.304  0.00  0.00    +0.000 OA
ENDBRANCH  10  17
ENDBRANCH   6  13
ENDBRANCH   1   8
BRANCH   4  18
ATOM     18  C   UNL     1       5.614   4.044  18.240  0.00  0.00    +0.000 C 
BRANCH  18  19
ATOM     19  C   UNL     1       6.382   4.865  17.272  0.00  0.00    +0.000 A 
ATOM     20  C   UNL     1       7.334   5.891  17.537  0.00  0.00    +0.000 A 
ATOM     21  C   UNL     1       7.828   6.409  18.836  0.00  0.00    +0.000 C 
ATOM     22  N   UNL     1       7.789   6.438  16.403  0.00  0.00    +0.000 NA
ATOM     23  O   UNL     1       7.143   5.780  15.378  0.00  0.00    +0.000 OA
ATOM     24  C   UNL     1       6.300   4.852  15.895  0.00  0.00    +0.000 A 
ATOM     25  C   UNL     1       5.507   4.081  14.919  0.00  0.00    +0.000 C 
ENDBRANCH  18  19
ENDBRANCH   4  18
TORSDOF 5
ENDMDL
MODEL 4
REMARK VINA RESULT:      -7.7      0.516      1.684
REMARK  Name = 
REMARK  8 active torsions:
REMARK  status: ('A' for Active; 'I' for Inactive)
REMARK    1  A    between atoms: C_1  and  O_2
REMARK    2  A    between atoms: O_2  and  C_3
REMARK    3  A    between atoms: C_6  and  C_7
REMARK    4  A    between atoms: N_9  and  C_10
REMARK    5  A    between atoms: N_13  and  C_14
REMARK    6  A    between atoms: C_14  and  C_15
REMARK    7  A    between atoms: C_16  and  C_17
REMARK    8  A    between atoms: C_20  and  C_21
REMARK                            x       y       z     vdW  Elec       q    Type
REMARK                         _______ _______ _______ _____ _____    ______ ____
ROOT
ATOM      1  C   UNL     1       2.680   6.121  19.455  0.00  0.00    +0.000 A 
ATOM      2  C   UNL     1       2.126   4.983  18.828  0.00  0.00    +0.000 A 
ATOM      3  N   UNL     1       3.055   4.206  18.260  0.00  0.00    +0.000 NA
ATOM      4  N   UNL     1       4.210   4.855  18.513  0.00  0.00    +0.000 N 
ATOM      5  C   UNL     1       4.029   6.030  19.196  0.00  0.00    +0.000 A 
ENDROOT
BRANCH   1   8
ATOM      6  C   UNL     1       1.624   8.313  19.651  0.00  0.00    +0.000 C 
ATOM      7  O   UNL     1       1.665   8.609  18.461  0.00  0.00    +0.000 OA
ATOM      8  N   UNL     1       2.102   7.136  20.201  0.00  0.00    +0.000 N 
ATOM      9  H   UNL     1       1.934   6.936  21.176  0.00  0.00    +0.000 HD
BRANCH   6  13
ATOM     10  C   UNL     1      -0.352  10.939  22.434  0.00  0.00    +0.000 A 
ATOM     11  C   UNL     1      -0.312   9.560  22.643  0.00  0.00    +0.000 A 
ATOM     12  C   UNL     1       0.346   8.725  21.738  0.00  0.00    +0.000 A 
ATOM     13  C   UNL     1       0.966   9.260  20.601  0.00  0.00    +0.000 A 
ATOM     14  C   UNL     1       0.911  10.642  20.381  0.00  0.00    +0.000 A 
ATOM     15  C   UNL     1       0.254  11.479  21.298  0.00  0.00    +0.000 A 
BRANCH  10  17
ATOM     16  C   UNL     1      -2.463  11.714  23.183  0.00  0.00    +0.000 C 
ATOM     17  O   UNL     1      -1.055  11.643  23.371  0.00  0.00    +0.000 OA
ENDBRANCH  10  17
ENDBRANCH   6  13
ENDBRANCH   1   8
BRANCH   4  18
ATOM     18  C   UNL     1       5.486   4.200  18.237  0.00  0.00    +0.000 C 
BRANCH  18  19
ATOM     19  C   UNL     1       6.301   4.950  17.251  0.00  0.00    +0.000 A 
ATOM     20  C   UNL     1       7.310   5.927  17.492  0.00  0.00    +0.000 A 
ATOM     21  C   UNL     1       7.830   6.449  18.779  0.00  0.00    +0.000 C 
ATOM     22  N   UNL     1       7.797   6.417  16.346  0.00  0.00    +0.000 NA
ATOM     23  O   UNL     1       7.116   5.772  15.336  0.00  0.00    +0.000 OA
ATOM     24  C   UNL     1       6.220   4.906  15.874  0.00  0.00    +0.000 A 
ATOM     25  C   UNL     1       5.386   4.158  14.916  0.00  0.00    +0.000 C 
ENDBRANCH  18  19
ENDBRANCH   4  18
TORSDOF 5
ENDMDL
MODEL 5
REMARK VINA RESULT:      -7.6      1.329      1.458
REMARK  Name = 
REMARK  8 active torsions:
REMARK  status: ('A' for Active; 'I' for Inactive)
REMARK    1  A    between atoms: C_1  and  O_2
REMARK    2  A    between atoms: O_2  and  C_3
REMARK    3  A    between atoms: C_6  and  C_7
REMARK    4  A    between atoms: N_9  and  C_10
REMARK    5  A    between atoms: N_13  and  C_14
REMARK    6  A    between atoms: C_14  and  C_15
REMARK    7  A    between atoms: C_16  and  C_17
REMARK    8  A    between atoms: C_20  and  C_21
REMARK                            x       y       z     vdW  Elec       q    Type
REMARK                         _______ _______ _______ _____ _____    ______ ____
ROOT
ATOM      1  C   UNL     1       2.573   5.697  18.026  0.00  0.00    +0.000 A 
ATOM      2  C   UNL     1       1.980   4.440  17.772  0.00  0.00    +0.000 A 
ATOM      3  N   UNL     1       2.837   3.570  17.223  0.00  0.00    +0.000 NA
ATOM      4  N   UNL     1       3.981   4.275  17.113  0.00  0.00    +0.000 N 
ATOM      5  C   UNL     1       3.858   5.571  17.548  0.00  0.00    +0.000 A 
ENDROOT
BRANCH   1   8
ATOM      6  C   UNL     1       1.834   6.949  19.986  0.00  0.00    +0.000 C 
ATOM      7  O   UNL     1       2.000   6.055  20.810  0.00  0.00    +0.000 OA
ATOM      8  N   UNL     1       2.080   6.843  18.628  0.00  0.00    +0.000 N 
ATOM      9  H   UNL     1       2.011   7.663  18.042  0.00  0.00    +0.000 HD
BRANCH   6  13
ATOM     10  C   UNL     1       0.451  10.745  21.477  0.00  0.00    +0.000 A 
ATOM     11  C   UNL     1       0.640   9.658  22.330  0.00  0.00    +0.000 A 
ATOM     12  C   UNL     1       1.104   8.438  21.832  0.00  0.00    +0.000 A 
ATOM     13  C   UNL     1       1.375   8.287  20.466  0.00  0.00    +0.000 A 
ATOM     14  C   UNL     1       1.168   9.374  19.606  0.00  0.00    +0.000 A 
ATOM     15  C   UNL     1       0.709  10.600  20.112  0.00  0.00    +0.000 A 
BRANCH  10  17
ATOM     16  C   UNL     1      -1.179  11.698  22.910  0.00  0.00    +0.000 C 
ATOM     17  O   UNL     1      -0.038  11.871  22.079  0.00  0.00    +0.000 OA
ENDBRANCH  10  17
ENDBRANCH   6  13
ENDBRANCH   1   8
BRANCH   4  18
ATOM     18  C   UNL     1       5.222   3.595  16.756  0.00  0.00    +0.000 C 
BRANCH  18  19
ATOM     19  C   UNL     1       6.162   4.485  16.030  0.00  0.00    +0.000 A 
ATOM     20  C   UNL     1       6.421   4.550  14.630  0.00  0.00    +0.000 A 
ATOM     21  C   UNL     1       5.822   3.767  13.522  0.00  0.00    +0.000 C 
ATOM     22  N   UNL     1       7.370   5.452  14.353  0.00  0.00    +0.000 NA
ATOM     23  O   UNL     1       7.748   5.991  15.563  0.00  0.00    +0.000 OA
ATOM     24  C   UNL     1       7.036   5.410  16.561  0.00  0.00    +0.000 A 
ATOM     25  C   UNL     1       7.351   5.861  17.930  0.00  0.00    +0.000 C 
ENDBRANCH  18  19
ENDBRANCH   4  18
TORSDOF 5
ENDMDL
MODEL 6
REMARK VINA RESULT:      -7.4      1.167      1.328
REMARK  Name = 
REMARK  8 active torsions:
REMARK  status: ('A' for Active; 'I' for Inactive)
REMARK    1  A    between atoms: C_1  and  O_2
REMARK    2  A    between atoms: O_2  and  C_3
REMARK    3  A    between atoms: C_6  and  C_7
REMARK    4  A    between atoms: N_9  and  C_10
REMARK    5  A    between atoms: N_13  and  C_14
REMARK    6  A    between atoms: C_14  and  C_15
REMARK    7  A    between atoms: C_16  and  C_17
REMARK    8  A    between atoms: C_20  and  C_21
REMARK                            x       y       z     vdW  Elec       q    Type
REMARK                         _______ _______ _______ _____ _____    ______ ____
ROOT
ATOM      1  C   UNL     1       2.440   5.899  18.224  0.00  0.00    +0.000 A 
ATOM      2  C   UNL     1       1.856   4.708  17.738  0.00  0.00    +0.000 A 
ATOM      3  N   UNL     1       2.759   3.869  17.215  0.00  0.00    +0.000 NA
ATOM      4  N   UNL     1       3.927   4.530  17.357  0.00  0.00    +0.000 N 
ATOM      5  C   UNL     1       3.777   5.770  17.924  0.00  0.00    +0.000 A 
ENDROOT
BRANCH   1   8
ATOM      6  C   UNL     1       1.936   8.281  18.389  0.00  0.00    +0.000 C 
ATOM      7  O   UNL     1       2.460   8.622  17.335  0.00  0.00    +0.000 OA
ATOM      8  N   UNL     1       1.897   6.989  18.885  0.00  0.00    +0.000 N 
ATOM      9  H   UNL     1       1.355   6.787  19.712  0.00  0.00    +0.000 HD
BRANCH   6  13
ATOM     10  C   UNL     1      -0.118  11.169  20.837  0.00  0.00    +0.000 A 
ATOM     11  C   UNL     1       0.465  10.031  21.395  0.00  0.00    +0.000 A 
ATOM     12  C   UNL     1       1.141   9.112  20.589  0.00  0.00    +0.000 A 
ATOM     13  C   UNL     1       1.231   9.316  19.206  0.00  0.00    +0.000 A 
ATOM     14  C   UNL     1       0.630  10.449  18.642  0.00  0.00    +0.000 A 
ATOM     15  C   UNL     1      -0.041  11.374  19.458  0.00  0.00    +0.000 A 
BRANCH  10  17
ATOM     16  C   UNL     1      -1.139  11.378  22.966  0.00  0.00    +0.000 C 
ATOM     17  O   UNL     1      -0.779  11.971  21.725  0.00  0.00    +0.000 OA
ENDBRANCH  10  17
ENDBRANCH   6  13
ENDBRANCH   1   8
BRANCH   4  18
ATOM     18  C   UNL     1       5.187   3.840  17.101  0.00  0.00    +0.000 C 
BRANCH  18  19
ATOM     19  C   UNL     1       6.132   4.669  16.312  0.00  0.00    +0.000 A 
ATOM     20  C   UNL     1       6.370   4.650  14.907  0.00  0.00    +0.000 A 
ATOM     21  C   UNL     1       5.739   3.818  13.853  0.00  0.00    +0.000 C 
ATOM     22  N   UNL     1       7.331   5.516  14.565  0.00  0.00    +0.000 NA
ATOM     23  O   UNL     1       7.738   6.116  15.737  0.00  0.00    +0.000 OA
ATOM     24  C   UNL     1       7.031   5.605  16.777  0.00  0.00    +0.000 A 
ATOM     25  C   UNL     1       7.375   6.127  18.113  0.00  0.00    +0.000 C 
ENDBRANCH  18  19
ENDBRANCH   4  18
TORSDOF 5
ENDMDL
MODEL 7
REMARK VINA RESULT:      -7.4      1.660      2.190
REMARK  Name = 
REMARK  8 active torsions:
REMARK  status: ('A' for Active; 'I' for Inactive)
REMARK    1  A    between atoms: C_1  and  O_2
REMARK    2  A    between atoms: O_2  and  C_3
REMARK    3  A    between atoms: C_6  and  C_7
REMARK    4  A    between atoms: N_9  and  C_10
REMARK    5  A    between atoms: N_13  and  C_14
REMARK    6  A    between atoms: C_14  and  C_15
REMARK    7  A    between atoms: C_16  and  C_17
REMARK    8  A    between atoms: C_20  and  C_21
REMARK                            x       y       z     vdW  Elec       q    Type
REMARK                         _______ _______ _______ _____ _____    ______ ____
ROOT
ATOM      1  C   UNL     1       3.251   5.305  18.890  0.00  0.00    +0.000 A 
ATOM      2  C   UNL     1       3.926   4.361  19.697  0.00  0.00    +0.000 A 
ATOM      3  N   UNL     1       4.657   3.501  18.978  0.00  0.00    +0.000 NA
ATOM      4  N   UNL     1       4.442   3.887  17.704  0.00  0.00    +0.000 N 
ATOM      5  C   UNL     1       3.573   4.943  17.601  0.00  0.00    +0.000 A 
ENDROOT
BRANCH   1   8
ATOM      6  C   UNL     1       2.571   7.632  18.616  0.00  0.00    +0.000 C 
ATOM      7  O   UNL     1       3.393   7.932  17.756  0.00  0.00    +0.000 OA
ATOM      8  N   UNL     1       2.451   6.389  19.213  0.00  0.00    +0.000 N 
ATOM      9  H   UNL     1       1.680   6.207  19.838  0.00  0.00    +0.000 HD
BRANCH   6  13
ATOM     10  C   UNL     1      -0.272  10.671  19.728  0.00  0.00    +0.000 A 
ATOM     11  C   UNL     1       0.151  10.523  18.406  0.00  0.00    +0.000 A 
ATOM     12  C   UNL     1       1.062   9.523  18.061  0.00  0.00    +0.000 A 
ATOM     13  C   UNL     1       1.572   8.661  19.039  0.00  0.00    +0.000 A 
ATOM     14  C   UNL     1       1.162   8.819  20.370  0.00  0.00    +0.000 A 
ATOM     15  C   UNL     1       0.240   9.822  20.711  0.00  0.00    +0.000 A 
BRANCH  10  17
ATOM     16  C   UNL     1      -2.208  11.839  19.017  0.00  0.00    +0.000 C 
ATOM     17  O   UNL     1      -1.137  11.707  19.943  0.00  0.00    +0.000 OA
ENDBRANCH  10  17
ENDBRANCH   6  13
ENDBRANCH   1   8
BRANCH   4  18
ATOM     18  C   UNL     1       5.251   3.322  16.628  0.00  0.00    +0.000 C 
BRANCH  18  19
ATOM     19  C   UNL     1       6.170   4.322  16.031  0.00  0.00    +0.000 A 
ATOM     20  C   UNL     1       6.477   4.537  14.656  0.00  0.00    +0.000 A 
ATOM     21  C   UNL     1       5.961   3.839  13.453  0.00  0.00    +0.000 C 
ATOM     22  N   UNL     1       7.388   5.505  14.507  0.00  0.00    +0.000 NA
ATOM     23  O   UNL     1       7.693   5.941  15.778  0.00  0.00    +0.000 OA
ATOM     24  C   UNL     1       6.975   5.231  16.685  0.00  0.00    +0.000 A 
ATOM     25  C   UNL     1       7.215   5.560  18.103  0.00  0.00    +0.000 C 
ENDBRANCH  18  19
ENDBRANCH   4  18
TORSDOF 5
ENDMDL
MODEL 8
REMARK VINA RESULT:      -7.4      1.559      1.928
REMARK  Name = 
REMARK  8 active torsions:
REMARK  status: ('A' for Active; 'I' for Inactive)
REMARK    1  A    between atoms: C_1  and  O_2
REMARK    2  A    between atoms: O_2  and  C_3
REMARK    3  A    between atoms: C_6  and  C_7
REMARK    4  A    between atoms: N_9  and  C_10
REMARK    5  A    between atoms: N_13  and  C_14
REMARK    6  A    between atoms: C_14  and  C_15
REMARK    7  A    between atoms: C_16  and  C_17
REMARK    8  A    between atoms: C_20  and  C_21
REMARK                            x       y       z     vdW  Elec       q    Type
REMARK                         _______ _______ _______ _____ _____    ______ ____
ROOT
ATOM      1  C   UNL     1       3.193   5.367  18.826  0.00  0.00    +0.000 A 
ATOM      2  C   UNL     1       3.911   4.487  19.667  0.00  0.00    +0.000 A 
ATOM      3  N   UNL     1       4.660   3.617  18.980  0.00  0.00    +0.000 NA
ATOM      4  N   UNL     1       4.413   3.931  17.692  0.00  0.00    +0.000 N 
ATOM      5  C   UNL     1       3.508   4.952  17.551  0.00  0.00    +0.000 A 
ENDROOT
BRANCH   1   8
ATOM      6  C   UNL     1       2.541   7.705  18.574  0.00  0.00    +0.000 C 
ATOM      7  O   UNL     1       3.446   8.036  17.814  0.00  0.00    +0.000 OA
ATOM      8  N   UNL     1       2.364   6.441  19.108  0.00  0.00    +0.000 N 
ATOM      9  H   UNL     1       1.533   6.236  19.644  0.00  0.00    +0.000 HD
BRANCH   6  13
ATOM     10  C   UNL     1      -0.474  10.557  19.726  0.00  0.00    +0.000 A 
ATOM     11  C   UNL     1       0.200   9.791  20.678  0.00  0.00    +0.000 A 
ATOM     12  C   UNL     1       1.185   8.882  20.288  0.00  0.00    +0.000 A 
ATOM     13  C   UNL     1       1.503   8.719  18.934  0.00  0.00    +0.000 A 
ATOM     14  C   UNL     1       0.814   9.475  17.976  0.00  0.00    +0.000 A 
ATOM     15  C   UNL     1      -0.170  10.393  18.373  0.00  0.00    +0.000 A 
BRANCH  10  17
ATOM     16  C   UNL     1      -1.313  12.766  19.919  0.00  0.00    +0.000 C 
ATOM     17  O   UNL     1      -1.439  11.384  20.231  0.00  0.00    +0.000 OA
ENDBRANCH  10  17
ENDBRANCH   6  13
ENDBRANCH   1   8
BRANCH   4  18
ATOM     18  C   UNL     1       5.223   3.339  16.632  0.00  0.00    +0.000 C 
BRANCH  18  19
ATOM     19  C   UNL     1       6.152   4.321  16.019  0.00  0.00    +0.000 A 
ATOM     20  C   UNL     1       6.450   4.520  14.640  0.00  0.00    +0.000 A 
ATOM     21  C   UNL     1       5.914   3.821  13.447  0.00  0.00    +0.000 C 
ATOM     22  N   UNL     1       7.374   5.475  14.476  0.00  0.00    +0.000 NA
ATOM     23  O   UNL     1       7.696   5.915  15.741  0.00  0.00    +0.000 OA
ATOM     24  C   UNL     1       6.976   5.223  16.659  0.00  0.00    +0.000 A 
ATOM     25  C   UNL     1       7.233   5.559  18.072  0.00  0.00    +0.000 C 
ENDBRANCH  18  19
ENDBRANCH   4  18
TORSDOF 5
ENDMDL
MODEL 9
REMARK VINA RESULT:      -7.3      1.158      2.263
REMARK  Name = 
REMARK  8 active torsions:
REMARK  status: ('A' for Active; 'I' for Inactive)
REMARK    1  A    between atoms: C_1  and  O_2
REMARK    2  A    between atoms: O_2  and  C_3
REMARK    3  A    between atoms: C_6  and  C_7
REMARK    4  A    between atoms: N_9  and  C_10
REMARK    5  A    between atoms: N_13  and  C_14
REMARK    6  A    between atoms: C_14  and  C_15
REMARK    7  A    between atoms: C_16  and  C_17
REMARK    8  A    between atoms: C_20  and  C_21
REMARK                            x       y       z     vdW  Elec       q    Type
REMARK                         _______ _______ _______ _____ _____    ______ ____
ROOT
ATOM      1  C   UNL     1       2.535   5.448  18.378  0.00  0.00    +0.000 A 
ATOM      2  C   UNL     1       1.865   4.360  17.773  0.00  0.00    +0.000 A 
ATOM      3  N   UNL     1       2.694   3.563  17.089  0.00  0.00    +0.000 NA
ATOM      4  N   UNL     1       3.900   4.147  17.246  0.00  0.00    +0.000 N 
ATOM      5  C   UNL     1       3.846   5.303  17.982  0.00  0.00    +0.000 A 
ENDROOT
BRANCH   1   8
ATOM      6  C   UNL     1       1.952   7.778  18.809  0.00  0.00    +0.000 C 
ATOM      7  O   UNL     1       2.226   8.213  17.696  0.00  0.00    +0.000 OA
ATOM      8  N   UNL     1       2.085   6.459  19.210  0.00  0.00    +0.000 N 
ATOM      9  H   UNL     1       1.740   6.175  20.115  0.00  0.00    +0.000 HD
BRANCH   6  13
ATOM     10  C   UNL     1       0.345  10.585  21.653  0.00  0.00    +0.000 A 
ATOM     11  C   UNL     1       0.510  10.928  20.311  0.00  0.00    +0.000 A 
ATOM     12  C   UNL     1       1.019  10.000  19.399  0.00  0.00    +0.000 A 
ATOM     13  C   UNL     1       1.380   8.715  19.823  0.00  0.00    +0.000 A 
ATOM     14  C   UNL     1       1.232   8.376  21.175  0.00  0.00    +0.000 A 
ATOM     15  C   UNL     1       0.713   9.310  22.086  0.00  0.00    +0.000 A 
BRANCH  10  17
ATOM     16  C   UNL     1      -1.235  12.328  21.947  0.00  0.00    +0.000 C 
ATOM     17  O   UNL     1      -0.128  11.590  22.450  0.00  0.00    +0.000 OA
ENDBRANCH  10  17
ENDBRANCH   6  13
ENDBRANCH   1   8
BRANCH   4  18
ATOM     18  C   UNL     1       5.108   3.444  16.823  0.00  0.00    +0.000 C 
BRANCH  18  19
ATOM     19  C   UNL     1       6.020   4.315  16.042  0.00  0.00    +0.000 A 
ATOM     20  C   UNL     1       7.012   5.218  16.521  0.00  0.00    +0.000 A 
ATOM     21  C   UNL     1       7.415   5.526  17.915  0.00  0.00    +0.000 C 
ATOM     22  N   UNL     1       7.610   5.864  15.512  0.00  0.00    +0.000 NA
ATOM     23  O   UNL     1       7.019   5.397  14.358  0.00  0.00    +0.000 OA
ATOM     24  C   UNL     1       6.068   4.483  14.673  0.00  0.00    +0.000 A 
ATOM     25  C   UNL     1       5.319   3.909  13.539  0.00  0.00    +0.000 C 
ENDBRANCH  18  19
ENDBRANCH   4  18
TORSDOF 5
ENDMDL
