MODEL 1
REMARK VINA RESULT:      -8.3      0.000      0.000
REMARK  Name = 
REMARK  4 active torsions:
REMARK  status: ('A' for Active; 'I' for Inactive)
REMARK    1  A    between atoms: C_1  and  O_2
REMARK    2  A    between atoms: O_2  and  C_3
REMARK    3  A    between atoms: C_6  and  N_7
REMARK    4  A    between atoms: C_24  and  O_25
REMARK                            x       y       z     vdW  Elec       q    Type
REMARK                         _______ _______ _______ _____ _____    ______ ____
ROOT
ATOM      1  N   UNL     1       3.100   7.464  18.066  0.00  0.00    +0.000 NA
ATOM      2  C   UNL     1       3.390   6.192  18.173  0.00  0.00    +0.000 C 
ATOM      3  C   UNL     1       2.690   5.141  18.994  0.00  0.00    +0.000 A 
ATOM      4  C   UNL     1       1.333   5.192  19.317  0.00  0.00    +0.000 A 
ATOM      5  C   UNL     1       0.830   4.448  20.392  0.00  0.00    +0.000 A 
ATOM      6  C   UNL     1       1.657   3.566  21.076  0.00  0.00    +0.000 A 
ATOM      7  C   UNL     1       2.953   3.348  20.617  0.00  0.00    +0.000 A 
ATOM      8  C   UNL     1       3.454   4.117  19.560  0.00  0.00    +0.000 A 
ATOM      9  C   UNL     1       4.759   3.769  18.978  0.00  0.00    +0.000 C 
ATOM     10  O   UNL     1       5.405   2.825  19.417  0.00  0.00    +0.000 OA
ATOM     11  C   UNL     1       5.236   4.523  17.807  0.00  0.00    +0.000 A 
ATOM     12  C   UNL     1       6.341   4.038  17.091  0.00  0.00    +0.000 A 
ATOM     13  C   UNL     1       6.842   4.759  16.012  0.00  0.00    +0.000 A 
ATOM     14  C   UNL     1       6.256   5.978  15.665  0.00  0.00    +0.000 A 
ATOM     15  C   UNL     1       5.144   6.453  16.371  0.00  0.00    +0.000 A 
ATOM     16  C   UNL     1       4.611   5.715  17.437  0.00  0.00    +0.000 A 
ENDROOT
BRANCH   1  20
ATOM     17  C   UNL     1       0.233   9.849  20.089  0.00  0.00    +0.000 A 
ATOM     18  C   UNL     1       0.987   8.880  20.757  0.00  0.00    +0.000 A 
ATOM     19  C   UNL     1       1.911   8.081  20.065  0.00  0.00    +0.000 A 
ATOM     20  C   UNL     1       2.058   8.184  18.680  0.00  0.00    +0.000 A 
ATOM     21  C   UNL     1       1.143   8.990  18.002  0.00  0.00    +0.000 A 
ATOM     22  C   UNL     1       0.331   9.899  18.698  0.00  0.00    +0.000 A 
BRANCH  17  24
ATOM     23  C   UNL     1      -0.446  10.396  22.315  0.00  0.00    +0.000 C 
ATOM     24  O   UNL     1      -0.518  10.634  20.920  0.00  0.00    +0.000 OA
ENDBRANCH  17  24
BRANCH  22  25
ATOM     25  O   UNL     1      -0.303  10.866  17.965  0.00  0.00    +0.000 OA
ATOM     26  H   UNL     1      -0.751  11.476  18.576  0.00  0.00    +0.000 HD
ENDBRANCH  22  25
ENDBRANCH   1  20
TORSDOF 3
ENDMDL
MODEL 2
REMARK VINA RESULT:      -8.0      0.819      1.534
REMARK  Name = 
REMARK  4 active torsions:
REMARK  status: ('A' for Active; 'I' for Inactive)
REMARK    1  A    between atoms: C_1  and  O_2
REMARK    2  A    between atoms: O_2  and  C_3
REMARK    3  A    between atoms: C_6  and  N_7
REMARK    4  A    between atoms: C_24  and  O_25
REMARK                            x       y       z     vdW  Elec       q    Type
REMARK                         _______ _______ _______ _____ _____    ______ ____
ROOT
ATOM      1  N   UNL     1       3.176   7.441  17.846  0.00  0.00    +0.000 NA
ATOM      2  C   UNL     1       3.376   6.154  17.969  0.00  0.00    +0.000 C 
ATOM      3  C   UNL     1       2.685   5.186  18.894  0.00  0.00    +0.000 A 
ATOM      4  C   UNL     1       1.375   5.355  19.349  0.00  0.00    +0.000 A 
ATOM      5  C   UNL     1       0.930   4.685  20.495  0.00  0.00    +0.000 A 
ATOM      6  C   UNL     1       1.752   3.758  21.124  0.00  0.00    +0.000 A 
ATOM      7  C   UNL     1       2.973   3.423  20.546  0.00  0.00    +0.000 A 
ATOM      8  C   UNL     1       3.420   4.120  19.417  0.00  0.00    +0.000 A 
ATOM      9  C   UNL     1       4.628   3.651  18.720  0.00  0.00    +0.000 C 
ATOM     10  O   UNL     1       5.241   2.671  19.126  0.00  0.00    +0.000 OA
ATOM     11  C   UNL     1       5.039   4.331  17.481  0.00  0.00    +0.000 A 
ATOM     12  C   UNL     1       6.024   3.739  16.675  0.00  0.00    +0.000 A 
ATOM     13  C   UNL     1       6.466   4.387  15.526  0.00  0.00    +0.000 A 
ATOM     14  C   UNL     1       5.944   5.639  15.196  0.00  0.00    +0.000 A 
ATOM     15  C   UNL     1       4.950   6.221  15.993  0.00  0.00    +0.000 A 
ATOM     16  C   UNL     1       4.474   5.559  17.133  0.00  0.00    +0.000 A 
ENDROOT
BRANCH   1  20
ATOM     17  C   UNL     1       0.135   9.710  19.745  0.00  0.00    +0.000 A 
ATOM     18  C   UNL     1       0.449   9.885  18.394  0.00  0.00    +0.000 A 
ATOM     19  C   UNL     1       1.477   9.145  17.791  0.00  0.00    +0.000 A 
ATOM     20  C   UNL     1       2.261   8.260  18.535  0.00  0.00    +0.000 A 
ATOM     21  C   UNL     1       2.085   8.266  19.919  0.00  0.00    +0.000 A 
ATOM     22  C   UNL     1       0.965   8.881  20.499  0.00  0.00    +0.000 A 
BRANCH  17  24
ATOM     23  C   UNL     1      -1.494  11.400  19.287  0.00  0.00    +0.000 C 
ATOM     24  O   UNL     1      -0.975  10.400  20.148  0.00  0.00    +0.000 OA
ENDBRANCH  17  24
BRANCH  22  25
ATOM     25  O   UNL     1       0.690   8.582  21.807  0.00  0.00    +0.000 OA
ATOM     26  H   UNL     1       1.157   9.216  22.376  0.00  0.00    +0.000 HD
ENDBRANCH  22  25
ENDBRANCH   1  20
TORSDOF 3
ENDMDL
MODEL 3
REMARK VINA RESULT:      -7.9      3.445      5.327
REMARK  Name = 
REMARK  4 active torsions:
REMARK  status: ('A' for Active; 'I' for Inactive)
REMARK    1  A    between atoms: C_1  and  O_2
REMARK    2  A    between atoms: O_2  and  C_3
REMARK    3  A    between atoms: C_6  and  N_7
REMARK    4  A    between atoms: C_24  and  O_25
REMARK                            x       y       z     vdW  Elec       q    Type
REMARK                         _______ _______ _______ _____ _____    ______ ____
ROOT
ATOM      1  N   UNL     1       3.734   3.771  16.058  0.00  0.00    +0.000 NA
ATOM      2  C   UNL     1       5.000   4.092  15.968  0.00  0.00    +0.000 C 
ATOM      3  C   UNL     1       5.927   4.548  17.063  0.00  0.00    +0.000 A 
ATOM      4  C   UNL     1       5.783   4.174  18.401  0.00  0.00    +0.000 A 
ATOM      5  C   UNL     1       6.388   4.926  19.417  0.00  0.00    +0.000 A 
ATOM      6  C   UNL     1       7.230   5.983  19.095  0.00  0.00    +0.000 A 
ATOM      7  C   UNL     1       7.552   6.219  17.762  0.00  0.00    +0.000 A 
ATOM      8  C   UNL     1       6.920   5.481  16.754  0.00  0.00    +0.000 A 
ATOM      9  C   UNL     1       7.384   5.623  15.365  0.00  0.00    +0.000 C 
ATOM     10  O   UNL     1       8.305   6.384  15.091  0.00  0.00    +0.000 OA
ATOM     11  C   UNL     1       6.778   4.776  14.325  0.00  0.00    +0.000 A 
ATOM     12  C   UNL     1       7.384   4.714  13.061  0.00  0.00    +0.000 A 
ATOM     13  C   UNL     1       6.801   3.961  12.046  0.00  0.00    +0.000 A 
ATOM     14  C   UNL     1       5.600   3.291  12.287  0.00  0.00    +0.000 A 
ATOM     15  C   UNL     1       5.006   3.341  13.554  0.00  0.00    +0.000 A 
ATOM     16  C   UNL     1       5.604   4.069  14.592  0.00  0.00    +0.000 A 
ENDROOT
BRANCH   1  20
ATOM     17  C   UNL     1       1.531   3.534  19.676  0.00  0.00    +0.000 A 
ATOM     18  C   UNL     1       1.709   2.421  18.849  0.00  0.00    +0.000 A 
ATOM     19  C   UNL     1       2.417   2.526  17.642  0.00  0.00    +0.000 A 
ATOM     20  C   UNL     1       2.909   3.756  17.198  0.00  0.00    +0.000 A 
ATOM     21  C   UNL     1       2.528   4.889  17.918  0.00  0.00    +0.000 A 
ATOM     22  C   UNL     1       1.959   4.772  19.196  0.00  0.00    +0.000 A 
BRANCH  17  24
ATOM     23  C   UNL     1       1.728   2.619  21.876  0.00  0.00    +0.000 C 
ATOM     24  O   UNL     1       0.941   3.243  20.875  0.00  0.00    +0.000 OA
ENDBRANCH  17  24
BRANCH  22  25
ATOM     25  O   UNL     1       1.904   5.903  19.966  0.00  0.00    +0.000 OA
ATOM     26  H   UNL     1       2.724   5.967  20.484  0.00  0.00    +0.000 HD
ENDBRANCH  22  25
ENDBRANCH   1  20
TORSDOF 3
ENDMDL
MODEL 4
REMARK VINA RESULT:      -7.2      4.541      9.808
REMARK  Name = 
REMARK  4 active torsions:
REMARK  status: ('A' for Active; 'I' for Inactive)
REMARK    1  A    between atoms: C_1  and  O_2
REMARK    2  A    between atoms: O_2  and  C_3
REMARK    3  A    between atoms: C_6  and  N_7
REMARK    4  A    between atoms: C_24  and  O_25
REMARK                            x       y       z     vdW  Elec       q    Type
REMARK                         _______ _______ _______ _____ _____    ______ ____
ROOT
ATOM      1  N   UNL     1      -1.844  11.850  19.910  0.00  0.00    +0.000 NA
ATOM      2  C   UNL     1      -2.991  11.728  19.291  0.00  0.00    +0.000 C 
ATOM      3  C   UNL     1      -3.278  11.034  17.986  0.00  0.00    +0.000 A 
ATOM      4  C   UNL     1      -2.537   9.952  17.508  0.00  0.00    +0.000 A 
ATOM      5  C   UNL     1      -2.566   9.616  16.148  0.00  0.00    +0.000 A 
ATOM      6  C   UNL     1      -3.422  10.287  15.283  0.00  0.00    +0.000 A 
ATOM      7  C   UNL     1      -4.323  11.214  15.796  0.00  0.00    +0.000 A 
ATOM      8  C   UNL     1      -4.266  11.563  17.151  0.00  0.00    +0.000 A 
ATOM      9  C   UNL     1      -5.322  12.417  17.715  0.00  0.00    +0.000 C 
ATOM     10  O   UNL     1      -6.235  12.826  17.008  0.00  0.00    +0.000 OA
ATOM     11  C   UNL     1      -5.306  12.702  19.159  0.00  0.00    +0.000 A 
ATOM     12  C   UNL     1      -6.436  13.289  19.748  0.00  0.00    +0.000 A 
ATOM     13  C   UNL     1      -6.426  13.616  21.101  0.00  0.00    +0.000 A 
ATOM     14  C   UNL     1      -5.278  13.379  21.859  0.00  0.00    +0.000 A 
ATOM     15  C   UNL     1      -4.157  12.778  21.273  0.00  0.00    +0.000 A 
ATOM     16  C   UNL     1      -4.171  12.414  19.919  0.00  0.00    +0.000 A 
ENDROOT
BRANCH   1  20
ATOM     17  C   UNL     1       1.778  10.146  18.502  0.00  0.00    +0.000 A 
ATOM     18  C   UNL     1       0.904   9.436  19.332  0.00  0.00    +0.000 A 
ATOM     19  C   UNL     1      -0.275  10.027  19.810  0.00  0.00    +0.000 A 
ATOM     20  C   UNL     1      -0.581  11.360  19.527  0.00  0.00    +0.000 A 
ATOM     21  C   UNL     1       0.405  12.116  18.892  0.00  0.00    +0.000 A 
ATOM     22  C   UNL     1       1.506  11.496  18.281  0.00  0.00    +0.000 A 
BRANCH  17  24
ATOM     23  C   UNL     1       2.666   7.981  18.010  0.00  0.00    +0.000 C 
ATOM     24  O   UNL     1       2.807   9.392  18.011  0.00  0.00    +0.000 OA
ENDBRANCH  17  24
BRANCH  22  25
ATOM     25  O   UNL     1       2.255  12.250  17.418  0.00  0.00    +0.000 OA
ATOM     26  H   UNL     1       3.029  11.731  17.142  0.00  0.00    +0.000 HD
ENDBRANCH  22  25
ENDBRANCH   1  20
TORSDOF 3
ENDMDL
MODEL 5
REMARK VINA RESULT:      -7.1      2.600      6.939
REMARK  Name = 
REMARK  4 active torsions:
REMARK  status: ('A' for Active; 'I' for Inactive)
REMARK    1  A    between atoms: C_1  and  O_2
REMARK    2  A    between atoms: O_2  and  C_3
REMARK    3  A    between atoms: C_6  and  N_7
REMARK    4  A    between atoms: C_24  and  O_25
REMARK                            x       y       z     vdW  Elec       q    Type
REMARK                         _______ _______ _______ _____ _____    ______ ____
ROOT
ATOM      1  N   UNL     1       4.792   3.824  18.316  0.00  0.00    +0.000 NA
ATOM      2  C   UNL     1       3.709   4.423  18.740  0.00  0.00    +0.000 C 
ATOM      3  C   UNL     1       3.159   5.762  18.324  0.00  0.00    +0.000 A 
ATOM      4  C   UNL     1       3.365   6.322  17.062  0.00  0.00    +0.000 A 
ATOM      5  C   UNL     1       3.203   7.699  16.861  0.00  0.00    +0.000 A 
ATOM      6  C   UNL     1       2.725   8.502  17.890  0.00  0.00    +0.000 A 
ATOM      7  C   UNL     1       2.309   7.913  19.079  0.00  0.00    +0.000 A 
ATOM      8  C   UNL     1       2.502   6.541  19.280  0.00  0.00    +0.000 A 
ATOM      9  C   UNL     1       1.913   5.902  20.467  0.00  0.00    +0.000 C 
ATOM     10  O   UNL     1       1.270   6.562  21.275  0.00  0.00    +0.000 OA
ATOM     11  C   UNL     1       2.041   4.444  20.623  0.00  0.00    +0.000 A 
ATOM     12  C   UNL     1       1.270   3.795  21.600  0.00  0.00    +0.000 A 
ATOM     13  C   UNL     1       1.411   2.426  21.802  0.00  0.00    +0.000 A 
ATOM     14  C   UNL     1       2.340   1.709  21.045  0.00  0.00    +0.000 A 
ATOM     15  C   UNL     1       3.096   2.355  20.059  0.00  0.00    +0.000 A 
ATOM     16  C   UNL     1       2.936   3.728  19.826  0.00  0.00    +0.000 A 
ENDROOT
BRANCH   1  20
ATOM     17  C   UNL     1       7.297   5.265  15.209  0.00  0.00    +0.000 A 
ATOM     18  C   UNL     1       6.566   4.081  15.076  0.00  0.00    +0.000 A 
ATOM     19  C   UNL     1       5.765   3.605  16.126  0.00  0.00    +0.000 A 
ATOM     20  C   UNL     1       5.724   4.264  17.357  0.00  0.00    +0.000 A 
ATOM     21  C   UNL     1       6.627   5.310  17.548  0.00  0.00    +0.000 A 
ATOM     22  C   UNL     1       7.309   5.880  16.461  0.00  0.00    +0.000 A 
BRANCH  17  24
ATOM     23  C   UNL     1       7.603   4.982  12.855  0.00  0.00    +0.000 C 
ATOM     24  O   UNL     1       7.916   5.665  14.057  0.00  0.00    +0.000 OA
ENDBRANCH  17  24
BRANCH  22  25
ATOM     25  O   UNL     1       7.925   7.085  16.667  0.00  0.00    +0.000 OA
ATOM     26  H   UNL     1       8.850   6.923  16.915  0.00  0.00    +0.000 HD
ENDBRANCH  22  25
ENDBRANCH   1  20
TORSDOF 3
ENDMDL
MODEL 6
REMARK VINA RESULT:      -6.9      7.135     10.439
REMARK  Name = 
REMARK  4 active torsions:
REMARK  status: ('A' for Active; 'I' for Inactive)
REMARK    1  A    between atoms: C_1  and  O_2
REMARK    2  A    between atoms: O_2  and  C_3
REMARK    3  A    between atoms: C_6  and  N_7
REMARK    4  A    between atoms: C_24  and  O_25
REMARK                            x       y       z     vdW  Elec       q    Type
REMARK                         _______ _______ _______ _____ _____    ______ ____
ROOT
ATOM      1  N   UNL     1      -2.807  12.750  20.502  0.00  0.00    +0.000 NA
ATOM      2  C   UNL     1      -3.766  12.258  19.760  0.00  0.00    +0.000 C 
ATOM      3  C   UNL     1      -3.649  11.508  18.459  0.00  0.00    +0.000 A 
ATOM      4  C   UNL     1      -2.542  10.729  18.115  0.00  0.00    +0.000 A 
ATOM      5  C   UNL     1      -2.293  10.403  16.776  0.00  0.00    +0.000 A 
ATOM      6  C   UNL     1      -3.207  10.755  15.790  0.00  0.00    +0.000 A 
ATOM      7  C   UNL     1      -4.417  11.336  16.157  0.00  0.00    +0.000 A 
ATOM      8  C   UNL     1      -4.644  11.684  17.494  0.00  0.00    +0.000 A 
ATOM      9  C   UNL     1      -5.982  12.143  17.897  0.00  0.00    +0.000 C 
ATOM     10  O   UNL     1      -6.884  12.231  17.073  0.00  0.00    +0.000 OA
ATOM     11  C   UNL     1      -6.238  12.418  19.320  0.00  0.00    +0.000 A 
ATOM     12  C   UNL     1      -7.561  12.602  19.749  0.00  0.00    +0.000 A 
ATOM     13  C   UNL     1      -7.825  12.914  21.080  0.00  0.00    +0.000 A 
ATOM     14  C   UNL     1      -6.764  13.067  21.975  0.00  0.00    +0.000 A 
ATOM     15  C   UNL     1      -5.446  12.867  21.548  0.00  0.00    +0.000 A 
ATOM     16  C   UNL     1      -5.174  12.519  20.218  0.00  0.00    +0.000 A 
ENDROOT
BRANCH   1  20
ATOM     17  C   UNL     1       1.409  12.934  20.067  0.00  0.00    +0.000 A 
ATOM     18  C   UNL     1       0.559  13.796  19.368  0.00  0.00    +0.000 A 
ATOM     19  C   UNL     1      -0.834  13.700  19.503  0.00  0.00    +0.000 A 
ATOM     20  C   UNL     1      -1.417  12.702  20.289  0.00  0.00    +0.000 A 
ATOM     21  C   UNL     1      -0.568  11.717  20.795  0.00  0.00    +0.000 A 
ATOM     22  C   UNL     1       0.824  11.896  20.792  0.00  0.00    +0.000 A 
BRANCH  17  24
ATOM     23  C   UNL     1       3.124  14.106  18.883  0.00  0.00    +0.000 C 
ATOM     24  O   UNL     1       2.736  13.240  19.936  0.00  0.00    +0.000 OA
ENDBRANCH  17  24
BRANCH  22  25
ATOM     25  O   UNL     1       1.568  11.054  21.575  0.00  0.00    +0.000 OA
ATOM     26  H   UNL     1       2.090  11.589  22.197  0.00  0.00    +0.000 HD
ENDBRANCH  22  25
ENDBRANCH   1  20
TORSDOF 3
ENDMDL
MODEL 7
REMARK VINA RESULT:      -6.9      8.799     10.172
REMARK  Name = 
REMARK  4 active torsions:
REMARK  status: ('A' for Active; 'I' for Inactive)
REMARK    1  A    between atoms: C_1  and  O_2
REMARK    2  A    between atoms: O_2  and  C_3
REMARK    3  A    between atoms: C_6  and  N_7
REMARK    4  A    between atoms: C_24  and  O_25
REMARK                            x       y       z     vdW  Elec       q    Type
REMARK                         _______ _______ _______ _____ _____    ______ ____
ROOT
ATOM      1  N   UNL     1       8.898  12.225  22.343  0.00  0.00    +0.000 NA
ATOM      2  C   UNL     1       8.865  13.052  21.329  0.00  0.00    +0.000 C 
ATOM      3  C   UNL     1       7.979  14.254  21.133  0.00  0.00    +0.000 A 
ATOM      4  C   UNL     1       7.467  15.014  22.187  0.00  0.00    +0.000 A 
ATOM      5  C   UNL     1       6.350  15.836  21.991  0.00  0.00    +0.000 A 
ATOM      6  C   UNL     1       5.812  15.990  20.719  0.00  0.00    +0.000 A 
ATOM      7  C   UNL     1       6.455  15.410  19.630  0.00  0.00    +0.000 A 
ATOM      8  C   UNL     1       7.553  14.567  19.840  0.00  0.00    +0.000 A 
ATOM      9  C   UNL     1       8.322  14.092  18.680  0.00  0.00    +0.000 C 
ATOM     10  O   UNL     1       8.002  14.421  17.544  0.00  0.00    +0.000 OA
ATOM     11  C   UNL     1       9.530  13.283  18.914  0.00  0.00    +0.000 A 
ATOM     12  C   UNL     1      10.407  13.047  17.844  0.00  0.00    +0.000 A 
ATOM     13  C   UNL     1      11.528  12.243  18.028  0.00  0.00    +0.000 A 
ATOM     14  C   UNL     1      11.758  11.654  19.272  0.00  0.00    +0.000 A 
ATOM     15  C   UNL     1      10.890  11.904  20.343  0.00  0.00    +0.000 A 
ATOM     16  C   UNL     1       9.777  12.741  20.176  0.00  0.00    +0.000 A 
ENDROOT
BRANCH   1  20
ATOM     17  C   UNL     1       6.607  11.894  25.898  0.00  0.00    +0.000 A 
ATOM     18  C   UNL     1       6.092  11.519  24.654  0.00  0.00    +0.000 A 
ATOM     19  C   UNL     1       6.856  11.662  23.485  0.00  0.00    +0.000 A 
ATOM     20  C   UNL     1       8.126  12.244  23.519  0.00  0.00    +0.000 A 
ATOM     21  C   UNL     1       8.529  12.816  24.726  0.00  0.00    +0.000 A 
ATOM     22  C   UNL     1       7.844  12.539  25.919  0.00  0.00    +0.000 A 
BRANCH  17  24
ATOM     23  C   UNL     1       4.675  10.737  26.704  0.00  0.00    +0.000 C 
ATOM     24  O   UNL     1       5.798  11.567  26.951  0.00  0.00    +0.000 OA
ENDBRANCH  17  24
BRANCH  22  25
ATOM     25  O   UNL     1       8.466  12.867  27.094  0.00  0.00    +0.000 OA
ATOM     26  H   UNL     1       8.539  13.835  27.147  0.00  0.00    +0.000 HD
ENDBRANCH  22  25
ENDBRANCH   1  20
TORSDOF 3
ENDMDL
MODEL 8
REMARK VINA RESULT:      -6.9      6.814      9.972
REMARK  Name = 
REMARK  4 active torsions:
REMARK  status: ('A' for Active; 'I' for Inactive)
REMARK    1  A    between atoms: C_1  and  O_2
REMARK    2  A    between atoms: O_2  and  C_3
REMARK    3  A    between atoms: C_6  and  N_7
REMARK    4  A    between atoms: C_24  and  O_25
REMARK                            x       y       z     vdW  Elec       q    Type
REMARK                         _______ _______ _______ _____ _____    ______ ____
ROOT
ATOM      1  N   UNL     1      -1.780  13.498  20.384  0.00  0.00    +0.000 NA
ATOM      2  C   UNL     1      -2.680  12.642  19.971  0.00  0.00    +0.000 C 
ATOM      3  C   UNL     1      -2.510  11.504  18.999  0.00  0.00    +0.000 A 
ATOM      4  C   UNL     1      -1.306  10.822  18.813  0.00  0.00    +0.000 A 
ATOM      5  C   UNL     1      -1.083  10.081  17.646  0.00  0.00    +0.000 A 
ATOM      6  C   UNL     1      -2.101   9.925  16.713  0.00  0.00    +0.000 A 
ATOM      7  C   UNL     1      -3.371  10.417  17.000  0.00  0.00    +0.000 A 
ATOM      8  C   UNL     1      -3.576  11.181  18.155  0.00  0.00    +0.000 A 
ATOM      9  C   UNL     1      -4.947  11.556  18.530  0.00  0.00    +0.000 C 
ATOM     10  O   UNL     1      -5.898  11.214  17.838  0.00  0.00    +0.000 OA
ATOM     11  C   UNL     1      -5.163  12.278  19.795  0.00  0.00    +0.000 A 
ATOM     12  C   UNL     1      -6.470  12.410  20.287  0.00  0.00    +0.000 A 
ATOM     13  C   UNL     1      -6.706  13.132  21.453  0.00  0.00    +0.000 A 
ATOM     14  C   UNL     1      -5.638  13.744  22.113  0.00  0.00    +0.000 A 
ATOM     15  C   UNL     1      -4.332  13.598  21.628  0.00  0.00    +0.000 A 
ATOM     16  C   UNL     1      -4.082  12.843  20.474  0.00  0.00    +0.000 A 
ENDROOT
BRANCH   1  20
ATOM     17  C   UNL     1       2.289  14.127  19.363  0.00  0.00    +0.000 A 
ATOM     18  C   UNL     1       1.256  14.376  18.455  0.00  0.00    +0.000 A 
ATOM     19  C   UNL     1      -0.082  14.135  18.801  0.00  0.00    +0.000 A 
ATOM     20  C   UNL     1      -0.418  13.578  20.038  0.00  0.00    +0.000 A 
ATOM     21  C   UNL     1       0.632  13.127  20.837  0.00  0.00    +0.000 A 
ATOM     22  C   UNL     1       1.957  13.505  20.566  0.00  0.00    +0.000 A 
BRANCH  17  24
ATOM     23  C   UNL     1       3.588  15.300  17.733  0.00  0.00    +0.000 C 
ATOM     24  O   UNL     1       3.518  14.539  18.927  0.00  0.00    +0.000 OA
ENDBRANCH  17  24
BRANCH  22  25
ATOM     25  O   UNL     1       2.885  13.297  21.551  0.00  0.00    +0.000 OA
ATOM     26  H   UNL     1       2.656  12.481  22.027  0.00  0.00    +0.000 HD
ENDBRANCH  22  25
ENDBRANCH   1  20
TORSDOF 3
ENDMDL
MODEL 9
REMARK VINA RESULT:      -6.8      5.420      8.025
REMARK  Name = 
REMARK  4 active torsions:
REMARK  status: ('A' for Active; 'I' for Inactive)
REMARK    1  A    between atoms: C_1  and  O_2
REMARK    2  A    between atoms: O_2  and  C_3
REMARK    3  A    between atoms: C_6  and  N_7
REMARK    4  A    between atoms: C_24  and  O_25
REMARK                            x       y       z     vdW  Elec       q    Type
REMARK                         _______ _______ _______ _____ _____    ______ ____
ROOT
ATOM      1  N   UNL     1      -2.427  12.632  20.763  0.00  0.00    +0.000 NA
ATOM      2  C   UNL     1      -1.905  11.546  20.253  0.00  0.00    +0.000 C 
ATOM      3  C   UNL     1      -0.931  10.590  20.890  0.00  0.00    +0.000 A 
ATOM      4  C   UNL     1      -0.854  10.371  22.267  0.00  0.00    +0.000 A 
ATOM      5  C   UNL     1       0.301   9.817  22.834  0.00  0.00    +0.000 A 
ATOM      6  C   UNL     1       1.336   9.375  22.018  0.00  0.00    +0.000 A 
ATOM      7  C   UNL     1       1.170   9.389  20.636  0.00  0.00    +0.000 A 
ATOM      8  C   UNL     1       0.025   9.971  20.080  0.00  0.00    +0.000 A 
ATOM      9  C   UNL     1      -0.217   9.835  18.635  0.00  0.00    +0.000 C 
ATOM     10  O   UNL     1       0.577   9.229  17.926  0.00  0.00    +0.000 OA
ATOM     11  C   UNL     1      -1.469  10.368  18.073  0.00  0.00    +0.000 A 
ATOM     12  C   UNL     1      -1.828  10.019  16.762  0.00  0.00    +0.000 A 
ATOM     13  C   UNL     1      -2.979  10.552  16.191  0.00  0.00    +0.000 A 
ATOM     14  C   UNL     1      -3.758  11.453  16.919  0.00  0.00    +0.000 A 
ATOM     15  C   UNL     1      -3.406  11.787  18.233  0.00  0.00    +0.000 A 
ATOM     16  C   UNL     1      -2.267  11.229  18.829  0.00  0.00    +0.000 A 
ENDROOT
BRANCH   1  20
ATOM     17  C   UNL     1      -1.865  14.666  24.444  0.00  0.00    +0.000 A 
ATOM     18  C   UNL     1      -0.884  14.663  23.448  0.00  0.00    +0.000 A 
ATOM     19  C   UNL     1      -1.077  13.961  22.248  0.00  0.00    +0.000 A 
ATOM     20  C   UNL     1      -2.224  13.191  22.038  0.00  0.00    +0.000 A 
ATOM     21  C   UNL     1      -3.082  13.023  23.125  0.00  0.00    +0.000 A 
ATOM     22  C   UNL     1      -2.975  13.840  24.261  0.00  0.00    +0.000 A 
BRANCH  17  24
ATOM     23  C   UNL     1      -2.110  16.820  25.452  0.00  0.00    +0.000 C 
ATOM     24  O   UNL     1      -1.588  15.503  25.489  0.00  0.00    +0.000 OA
ENDBRANCH  17  24
BRANCH  22  25
ATOM     25  O   UNL     1      -4.025  13.839  25.140  0.00  0.00    +0.000 OA
ATOM     26  H   UNL     1      -4.093  12.957  25.542  0.00  0.00    +0.000 HD
ENDBRANCH  22  25
ENDBRANCH   1  20
TORSDOF 3
ENDMDL
