MODEL 1
REMARK VINA RESULT:      -7.9      0.000      0.000
REMARK  Name = 
REMARK  7 active torsions:
REMARK  status: ('A' for Active; 'I' for Inactive)
REMARK    1  A    between atoms: C_1  and  C_2
REMARK    2  A    between atoms: C_2  and  C_3
REMARK    3  A    between atoms: C_3  and  C_4
REMARK    4  A    between atoms: N_6  and  C_7
REMARK    5  A    between atoms: C_11  and  N_12
REMARK    6  A    between atoms: C_13  and  C_15
REMARK    7  A    between atoms: C_19  and  N_20
REMARK                            x       y       z     vdW  Elec       q    Type
REMARK                         _______ _______ _______ _____ _____    ______ ____
ROOT
ATOM      1  C   UNL     1       5.934   4.432  15.457  0.00  0.00    +0.000 A 
ATOM      2  C   UNL     1       7.155   4.226  16.101  0.00  0.00    +0.000 A 
ATOM      3  C   UNL     1       7.451   4.895  17.283  0.00  0.00    +0.000 A 
ATOM      4  C   UNL     1       6.531   5.784  17.827  0.00  0.00    +0.000 A 
ATOM      5  C   UNL     1       5.313   6.043  17.192  0.00  0.00    +0.000 A 
ATOM      6  C   UNL     1       5.019   5.355  15.999  0.00  0.00    +0.000 A 
ENDROOT
BRANCH   1   9
ATOM      7  C   UNL     1       6.265   3.876  13.050  0.00  0.00    +0.000 C 
ATOM      8  O   UNL     1       7.312   4.487  12.855  0.00  0.00    +0.000 OA
ATOM      9  N   UNL     1       5.597   3.756  14.261  0.00  0.00    +0.000 N 
ATOM     10  H   UNL     1       4.872   3.053  14.320  0.00  0.00    +0.000 HD
BRANCH   7  11
ATOM     11  C   UNL     1       5.602   3.135  11.905  0.00  0.00    +0.000 C 
BRANCH  11  13
ATOM     12  C   UNL     1       3.468   2.823  10.561  0.00  0.00    +0.000 C 
ATOM     13  C   UNL     1       4.254   3.726  11.502  0.00  0.00    +0.000 C 
ENDBRANCH  11  13
ENDBRANCH   7  11
ENDBRANCH   1   9
BRANCH   5  14
ATOM     14  N   UNL     1       4.358   6.953  17.723  0.00  0.00    +0.000 N 
ATOM     15  C   UNL     1       3.253   6.572  18.476  0.00  0.00    +0.000 C 
ATOM     16  O   UNL     1       3.004   5.438  18.873  0.00  0.00    +0.000 OA
ATOM     17  H   UNL     1       4.572   7.940  17.646  0.00  0.00    +0.000 HD
BRANCH  15  18
ATOM     18  C   UNL     1       2.296   7.636  18.893  0.00  0.00    +0.000 A 
ATOM     19  C   UNL     1       1.927   8.575  17.913  0.00  0.00    +0.000 A 
ATOM     20  C   UNL     1       1.136   9.676  18.233  0.00  0.00    +0.000 A 
ATOM     21  C   UNL     1       0.706   9.857  19.544  0.00  0.00    +0.000 A 
ATOM     22  C   UNL     1       1.071   8.923  20.527  0.00  0.00    +0.000 A 
ATOM     23  C   UNL     1       1.865   7.804  20.212  0.00  0.00    +0.000 A 
BRANCH  22  24
ATOM     24  N   UNL     1       0.633   9.138  21.912  0.00  0.00    +0.000 N 
ATOM     25  O   UNL     1       1.487   9.477  22.743  0.00  0.00    +0.000 OA
ATOM     26  O   UNL     1      -0.569   8.976  22.163  0.00  0.00    +0.000 OA
ENDBRANCH  22  24
ENDBRANCH  15  18
ENDBRANCH   5  14
TORSDOF 6
ENDMDL
MODEL 2
REMARK VINA RESULT:      -7.5      2.327      3.592
REMARK  Name = 
REMARK  7 active torsions:
REMARK  status: ('A' for Active; 'I' for Inactive)
REMARK    1  A    between atoms: C_1  and  C_2
REMARK    2  A    between atoms: C_2  and  C_3
REMARK    3  A    between atoms: C_3  and  C_4
REMARK    4  A    between atoms: N_6  and  C_7
REMARK    5  A    between atoms: C_11  and  N_12
REMARK    6  A    between atoms: C_13  and  C_15
REMARK    7  A    between atoms: C_19  and  N_20
REMARK                            x       y       z     vdW  Elec       q    Type
REMARK                         _______ _______ _______ _____ _____    ______ ____
ROOT
ATOM      1  C   UNL     1       4.719   3.972  19.115  0.00  0.00    +0.000 A 
ATOM      2  C   UNL     1       4.315   2.757  19.667  0.00  0.00    +0.000 A 
ATOM      3  C   UNL     1       3.193   2.692  20.487  0.00  0.00    +0.000 A 
ATOM      4  C   UNL     1       2.472   3.846  20.769  0.00  0.00    +0.000 A 
ATOM      5  C   UNL     1       2.868   5.088  20.264  0.00  0.00    +0.000 A 
ATOM      6  C   UNL     1       4.000   5.142  19.428  0.00  0.00    +0.000 A 
ENDROOT
BRANCH   1   9
ATOM      7  C   UNL     1       5.917   4.821  17.101  0.00  0.00    +0.000 C 
ATOM      8  O   UNL     1       5.068   5.606  16.690  0.00  0.00    +0.000 OA
ATOM      9  N   UNL     1       5.846   4.068  18.265  0.00  0.00    +0.000 N 
ATOM     10  H   UNL     1       6.701   3.632  18.586  0.00  0.00    +0.000 HD
BRANCH   7  11
ATOM     11  C   UNL     1       7.205   4.630  16.322  0.00  0.00    +0.000 C 
BRANCH  11  13
ATOM     12  C   UNL     1       6.272   3.788  14.114  0.00  0.00    +0.000 C 
ATOM     13  C   UNL     1       7.051   4.886  14.826  0.00  0.00    +0.000 C 
ENDBRANCH  11  13
ENDBRANCH   7  11
ENDBRANCH   1   9
BRANCH   5  14
ATOM     14  N   UNL     1       2.153   6.285  20.543  0.00  0.00    +0.000 N 
ATOM     15  C   UNL     1       2.037   7.349  19.657  0.00  0.00    +0.000 C 
ATOM     16  O   UNL     1       2.433   7.370  18.495  0.00  0.00    +0.000 OA
ATOM     17  H   UNL     1       1.598   6.301  21.390  0.00  0.00    +0.000 HD
BRANCH  15  18
ATOM     18  C   UNL     1       1.325   8.571  20.126  0.00  0.00    +0.000 A 
ATOM     19  C   UNL     1       1.336   9.681  19.262  0.00  0.00    +0.000 A 
ATOM     20  C   UNL     1       0.806  10.907  19.659  0.00  0.00    +0.000 A 
ATOM     21  C   UNL     1       0.260  11.042  20.932  0.00  0.00    +0.000 A 
ATOM     22  C   UNL     1       0.247   9.937  21.799  0.00  0.00    +0.000 A 
ATOM     23  C   UNL     1       0.774   8.693  21.405  0.00  0.00    +0.000 A 
BRANCH  22  24
ATOM     24  N   UNL     1      -0.308  10.098  23.149  0.00  0.00    +0.000 N 
ATOM     25  O   UNL     1      -1.383  10.704  23.265  0.00  0.00    +0.000 OA
ATOM     26  O   UNL     1       0.330   9.610  24.092  0.00  0.00    +0.000 OA
ENDBRANCH  22  24
ENDBRANCH  15  18
ENDBRANCH   5  14
TORSDOF 6
ENDMDL
MODEL 3
REMARK VINA RESULT:      -7.5      2.675      3.868
REMARK  Name = 
REMARK  7 active torsions:
REMARK  status: ('A' for Active; 'I' for Inactive)
REMARK    1  A    between atoms: C_1  and  C_2
REMARK    2  A    between atoms: C_2  and  C_3
REMARK    3  A    between atoms: C_3  and  C_4
REMARK    4  A    between atoms: N_6  and  C_7
REMARK    5  A    between atoms: C_11  and  N_12
REMARK    6  A    between atoms: C_13  and  C_15
REMARK    7  A    between atoms: C_19  and  N_20
REMARK                            x       y       z     vdW  Elec       q    Type
REMARK                         _______ _______ _______ _____ _____    ______ ____
ROOT
ATOM      1  C   UNL     1       4.307   3.752  19.040  0.00  0.00    +0.000 A 
ATOM      2  C   UNL     1       4.086   2.629  19.837  0.00  0.00    +0.000 A 
ATOM      3  C   UNL     1       3.142   2.662  20.858  0.00  0.00    +0.000 A 
ATOM      4  C   UNL     1       2.418   3.826  21.096  0.00  0.00    +0.000 A 
ATOM      5  C   UNL     1       2.639   4.982  20.342  0.00  0.00    +0.000 A 
ATOM      6  C   UNL     1       3.591   4.935  19.305  0.00  0.00    +0.000 A 
ENDROOT
BRANCH   1   9
ATOM      7  C   UNL     1       6.425   4.482  17.947  0.00  0.00    +0.000 C 
ATOM      8  O   UNL     1       6.889   5.157  18.860  0.00  0.00    +0.000 OA
ATOM      9  N   UNL     1       5.250   3.745  17.984  0.00  0.00    +0.000 N 
ATOM     10  H   UNL     1       5.102   3.072  17.243  0.00  0.00    +0.000 HD
BRANCH   7  11
ATOM     11  C   UNL     1       7.175   4.377  16.632  0.00  0.00    +0.000 C 
BRANCH  11  13
ATOM     12  C   UNL     1       5.440   5.963  15.666  0.00  0.00    +0.000 C 
ATOM     13  C   UNL     1       6.326   4.748  15.421  0.00  0.00    +0.000 C 
ENDBRANCH  11  13
ENDBRANCH   7  11
ENDBRANCH   1   9
BRANCH   5  14
ATOM     14  N   UNL     1       1.918   6.186  20.570  0.00  0.00    +0.000 N 
ATOM     15  C   UNL     1       2.031   7.324  19.779  0.00  0.00    +0.000 C 
ATOM     16  O   UNL     1       2.670   7.420  18.735  0.00  0.00    +0.000 OA
ATOM     17  H   UNL     1       1.193   6.161  21.277  0.00  0.00    +0.000 HD
BRANCH  15  18
ATOM     18  C   UNL     1       1.273   8.538  20.195  0.00  0.00    +0.000 A 
ATOM     19  C   UNL     1       1.147   9.563  19.240  0.00  0.00    +0.000 A 
ATOM     20  C   UNL     1       0.565  10.785  19.570  0.00  0.00    +0.000 A 
ATOM     21  C   UNL     1       0.103  11.002  20.864  0.00  0.00    +0.000 A 
ATOM     22  C   UNL     1       0.226   9.981  21.822  0.00  0.00    +0.000 A 
ATOM     23  C   UNL     1       0.807   8.741  21.497  0.00  0.00    +0.000 A 
BRANCH  22  24
ATOM     24  N   UNL     1      -0.242  10.231  23.191  0.00  0.00    +0.000 N 
ATOM     25  O   UNL     1       0.302   9.604  24.111  0.00  0.00    +0.000 OA
ATOM     26  O   UNL     1      -1.148  11.061  23.343  0.00  0.00    +0.000 OA
ENDBRANCH  22  24
ENDBRANCH  15  18
ENDBRANCH   5  14
TORSDOF 6
ENDMDL
MODEL 4
REMARK VINA RESULT:      -7.5      3.729      4.967
REMARK  Name = 
REMARK  7 active torsions:
REMARK  status: ('A' for Active; 'I' for Inactive)
REMARK    1  A    between atoms: C_1  and  C_2
REMARK    2  A    between atoms: C_2  and  C_3
REMARK    3  A    between atoms: C_3  and  C_4
REMARK    4  A    between atoms: N_6  and  C_7
REMARK    5  A    between atoms: C_11  and  N_12
REMARK    6  A    between atoms: C_13  and  C_15
REMARK    7  A    between atoms: C_19  and  N_20
REMARK                            x       y       z     vdW  Elec       q    Type
REMARK                         _______ _______ _______ _____ _____    ______ ____
ROOT
ATOM      1  C   UNL     1       4.154   4.232  19.328  0.00  0.00    +0.000 A 
ATOM      2  C   UNL     1       3.738   2.984  19.793  0.00  0.00    +0.000 A 
ATOM      3  C   UNL     1       2.635   2.874  20.632  0.00  0.00    +0.000 A 
ATOM      4  C   UNL     1       1.943   4.016  21.021  0.00  0.00    +0.000 A 
ATOM      5  C   UNL     1       2.352   5.287  20.604  0.00  0.00    +0.000 A 
ATOM      6  C   UNL     1       3.465   5.386  19.748  0.00  0.00    +0.000 A 
ENDROOT
BRANCH   1   9
ATOM      7  C   UNL     1       6.491   4.923  18.805  0.00  0.00    +0.000 C 
ATOM      8  O   UNL     1       6.847   5.259  19.931  0.00  0.00    +0.000 OA
ATOM      9  N   UNL     1       5.264   4.374  18.461  0.00  0.00    +0.000 N 
ATOM     10  H   UNL     1       5.187   3.951  17.545  0.00  0.00    +0.000 HD
BRANCH   7  11
ATOM     11  C   UNL     1       7.449   5.069  17.638  0.00  0.00    +0.000 C 
BRANCH  11  13
ATOM     12  C   UNL     1       7.670   7.600  17.599  0.00  0.00    +0.000 C 
ATOM     13  C   UNL     1       7.239   6.352  16.840  0.00  0.00    +0.000 C 
ENDBRANCH  11  13
ENDBRANCH   7  11
ENDBRANCH   1   9
BRANCH   5  14
ATOM     14  N   UNL     1       1.666   6.470  20.994  0.00  0.00    +0.000 N 
ATOM     15  C   UNL     1       1.658   7.646  20.252  0.00  0.00    +0.000 C 
ATOM     16  O   UNL     1       2.138   7.799  19.132  0.00  0.00    +0.000 OA
ATOM     17  H   UNL     1       1.053   6.402  21.796  0.00  0.00    +0.000 HD
BRANCH  15  18
ATOM     18  C   UNL     1       0.963   8.829  20.832  0.00  0.00    +0.000 A 
ATOM     19  C   UNL     1       0.753   8.821  22.223  0.00  0.00    +0.000 A 
ATOM     20  C   UNL     1       0.005   9.820  22.844  0.00  0.00    +0.000 A 
ATOM     21  C   UNL     1      -0.548  10.841  22.079  0.00  0.00    +0.000 A 
ATOM     22  C   UNL     1      -0.342  10.855  20.690  0.00  0.00    +0.000 A 
ATOM     23  C   UNL     1       0.416   9.854  20.054  0.00  0.00    +0.000 A 
BRANCH  22  24
ATOM     24  N   UNL     1      -0.953  11.924  19.890  0.00  0.00    +0.000 N 
ATOM     25  O   UNL     1      -0.244  12.496  19.049  0.00  0.00    +0.000 OA
ATOM     26  O   UNL     1      -2.146  12.184  20.099  0.00  0.00    +0.000 OA
ENDBRANCH  22  24
ENDBRANCH  15  18
ENDBRANCH   5  14
TORSDOF 6
ENDMDL
MODEL 5
REMARK VINA RESULT:      -7.3      2.996      4.511
REMARK  Name = 
REMARK  7 active torsions:
REMARK  status: ('A' for Active; 'I' for Inactive)
REMARK    1  A    between atoms: C_1  and  C_2
REMARK    2  A    between atoms: C_2  and  C_3
REMARK    3  A    between atoms: C_3  and  C_4
REMARK    4  A    between atoms: N_6  and  C_7
REMARK    5  A    between atoms: C_11  and  N_12
REMARK    6  A    between atoms: C_13  and  C_15
REMARK    7  A    between atoms: C_19  and  N_20
REMARK                            x       y       z     vdW  Elec       q    Type
REMARK                         _______ _______ _______ _____ _____    ______ ____
ROOT
ATOM      1  C   UNL     1       4.233   3.935  19.315  0.00  0.00    +0.000 A 
ATOM      2  C   UNL     1       3.898   2.748  19.969  0.00  0.00    +0.000 A 
ATOM      3  C   UNL     1       2.870   2.722  20.904  0.00  0.00    +0.000 A 
ATOM      4  C   UNL     1       2.173   3.888  21.201  0.00  0.00    +0.000 A 
ATOM      5  C   UNL     1       2.503   5.104  20.594  0.00  0.00    +0.000 A 
ATOM      6  C   UNL     1       3.541   5.118  19.642  0.00  0.00    +0.000 A 
ENDROOT
BRANCH   1   9
ATOM      7  C   UNL     1       6.493   4.614  18.514  0.00  0.00    +0.000 C 
ATOM      8  O   UNL     1       6.924   5.108  19.551  0.00  0.00    +0.000 OA
ATOM      9  N   UNL     1       5.264   3.990  18.348  0.00  0.00    +0.000 N 
ATOM     10  H   UNL     1       5.132   3.446  17.506  0.00  0.00    +0.000 HD
BRANCH   7  11
ATOM     11  C   UNL     1       7.349   4.628  17.262  0.00  0.00    +0.000 C 
BRANCH  11  13
ATOM     12  C   UNL     1       6.723   4.501  14.802  0.00  0.00    +0.000 C 
ATOM     13  C   UNL     1       6.682   5.327  16.081  0.00  0.00    +0.000 C 
ENDBRANCH  11  13
ENDBRANCH   7  11
ENDBRANCH   1   9
BRANCH   5  14
ATOM     14  N   UNL     1       1.811   6.311  20.886  0.00  0.00    +0.000 N 
ATOM     15  C   UNL     1       1.894   7.463  20.112  0.00  0.00    +0.000 C 
ATOM     16  O   UNL     1       2.474   7.572  19.036  0.00  0.00    +0.000 OA
ATOM     17  H   UNL     1       1.128   6.279  21.632  0.00  0.00    +0.000 HD
BRANCH  15  18
ATOM     18  C   UNL     1       1.175   8.677  20.594  0.00  0.00    +0.000 A 
ATOM     19  C   UNL     1       0.924   8.757  21.975  0.00  0.00    +0.000 A 
ATOM     20  C   UNL     1       0.153   9.789  22.507  0.00  0.00    +0.000 A 
ATOM     21  C   UNL     1      -0.384  10.754  21.662  0.00  0.00    +0.000 A 
ATOM     22  C   UNL     1      -0.136  10.679  20.281  0.00  0.00    +0.000 A 
ATOM     23  C   UNL     1       0.646   9.644  19.734  0.00  0.00    +0.000 A 
BRANCH  22  24
ATOM     24  N   UNL     1      -0.730  11.689  19.395  0.00  0.00    +0.000 N 
ATOM     25  O   UNL     1      -0.876  12.836  19.842  0.00  0.00    +0.000 OA
ATOM     26  O   UNL     1      -1.040  11.334  18.250  0.00  0.00    +0.000 OA
ENDBRANCH  22  24
ENDBRANCH  15  18
ENDBRANCH   5  14
TORSDOF 6
ENDMDL
MODEL 6
REMARK VINA RESULT:      -7.3      5.082      7.073
REMARK  Name = 
REMARK  7 active torsions:
REMARK  status: ('A' for Active; 'I' for Inactive)
REMARK    1  A    between atoms: C_1  and  C_2
REMARK    2  A    between atoms: C_2  and  C_3
REMARK    3  A    between atoms: C_3  and  C_4
REMARK    4  A    between atoms: N_6  and  C_7
REMARK    5  A    between atoms: C_11  and  N_12
REMARK    6  A    between atoms: C_13  and  C_15
REMARK    7  A    between atoms: C_19  and  N_20
REMARK                            x       y       z     vdW  Elec       q    Type
REMARK                         _______ _______ _______ _____ _____    ______ ____
ROOT
ATOM      1  C   UNL     1       4.582   5.277  17.188  0.00  0.00    +0.000 A 
ATOM      2  C   UNL     1       5.297   4.286  16.514  0.00  0.00    +0.000 A 
ATOM      3  C   UNL     1       6.601   4.520  16.091  0.00  0.00    +0.000 A 
ATOM      4  C   UNL     1       7.197   5.753  16.330  0.00  0.00    +0.000 A 
ATOM      5  C   UNL     1       6.500   6.782  16.970  0.00  0.00    +0.000 A 
ATOM      6  C   UNL     1       5.183   6.532  17.402  0.00  0.00    +0.000 A 
ENDROOT
BRANCH   1   9
ATOM      7  C   UNL     1       2.885   4.860  18.966  0.00  0.00    +0.000 C 
ATOM      8  O   UNL     1       3.614   4.947  19.950  0.00  0.00    +0.000 OA
ATOM      9  N   UNL     1       3.260   5.064  17.645  0.00  0.00    +0.000 N 
ATOM     10  H   UNL     1       2.518   5.169  16.965  0.00  0.00    +0.000 HD
BRANCH   7  11
ATOM     11  C   UNL     1       1.416   4.527  19.144  0.00  0.00    +0.000 C 
BRANCH  11  13
ATOM     12  C   UNL     1       1.540   1.998  18.928  0.00  0.00    +0.000 C 
ATOM     13  C   UNL     1       1.178   3.180  19.818  0.00  0.00    +0.000 C 
ENDBRANCH  11  13
ENDBRANCH   7  11
ENDBRANCH   1   9
BRANCH   5  14
ATOM     14  N   UNL     1       7.085   8.054  17.220  0.00  0.00    +0.000 N 
ATOM     15  C   UNL     1       8.045   8.292  18.197  0.00  0.00    +0.000 C 
ATOM     16  O   UNL     1       8.593   7.444  18.896  0.00  0.00    +0.000 OA
ATOM     17  H   UNL     1       6.872   8.794  16.563  0.00  0.00    +0.000 HD
BRANCH  15  18
ATOM     18  C   UNL     1       8.502   9.696  18.395  0.00  0.00    +0.000 A 
ATOM     19  C   UNL     1       8.049  10.647  17.462  0.00  0.00    +0.000 A 
ATOM     20  C   UNL     1       8.516  11.959  17.488  0.00  0.00    +0.000 A 
ATOM     21  C   UNL     1       9.450  12.339  18.445  0.00  0.00    +0.000 A 
ATOM     22  C   UNL     1       9.907  11.394  19.380  0.00  0.00    +0.000 A 
ATOM     23  C   UNL     1       9.436  10.068  19.366  0.00  0.00    +0.000 A 
BRANCH  22  24
ATOM     24  N   UNL     1      10.912  11.801  20.370  0.00  0.00    +0.000 N 
ATOM     25  O   UNL     1      10.519  12.392  21.385  0.00  0.00    +0.000 OA
ATOM     26  O   UNL     1      12.095  11.518  20.132  0.00  0.00    +0.000 OA
ENDBRANCH  22  24
ENDBRANCH  15  18
ENDBRANCH   5  14
TORSDOF 6
ENDMDL
MODEL 7
REMARK VINA RESULT:      -7.2      1.960      2.694
REMARK  Name = 
REMARK  7 active torsions:
REMARK  status: ('A' for Active; 'I' for Inactive)
REMARK    1  A    between atoms: C_1  and  C_2
REMARK    2  A    between atoms: C_2  and  C_3
REMARK    3  A    between atoms: C_3  and  C_4
REMARK    4  A    between atoms: N_6  and  C_7
REMARK    5  A    between atoms: C_11  and  N_12
REMARK    6  A    between atoms: C_13  and  C_15
REMARK    7  A    between atoms: C_19  and  N_20
REMARK                            x       y       z     vdW  Elec       q    Type
REMARK                         _______ _______ _______ _____ _____    ______ ____
ROOT
ATOM      1  C   UNL     1       4.536   4.299  17.504  0.00  0.00    +0.000 A 
ATOM      2  C   UNL     1       4.765   3.273  18.420  0.00  0.00    +0.000 A 
ATOM      3  C   UNL     1       4.146   3.287  19.666  0.00  0.00    +0.000 A 
ATOM      4  C   UNL     1       3.300   4.335  20.008  0.00  0.00    +0.000 A 
ATOM      5  C   UNL     1       3.075   5.400  19.131  0.00  0.00    +0.000 A 
ATOM      6  C   UNL     1       3.700   5.372  17.869  0.00  0.00    +0.000 A 
ENDROOT
BRANCH   1   9
ATOM      7  C   UNL     1       6.477   4.564  15.963  0.00  0.00    +0.000 C 
ATOM      8  O   UNL     1       7.365   4.708  16.797  0.00  0.00    +0.000 OA
ATOM      9  N   UNL     1       5.138   4.306  16.223  0.00  0.00    +0.000 N 
ATOM     10  H   UNL     1       4.566   4.000  15.447  0.00  0.00    +0.000 HD
BRANCH   7  11
ATOM     11  C   UNL     1       6.813   4.634  14.485  0.00  0.00    +0.000 C 
BRANCH  11  13
ATOM     12  C   UNL     1       6.397   3.487  12.256  0.00  0.00    +0.000 C 
ATOM     13  C   UNL     1       5.811   3.898  13.601  0.00  0.00    +0.000 C 
ENDBRANCH  11  13
ENDBRANCH   7  11
ENDBRANCH   1   9
BRANCH   5  14
ATOM     14  N   UNL     1       2.221   6.488  19.460  0.00  0.00    +0.000 N 
ATOM     15  C   UNL     1       2.312   7.751  18.888  0.00  0.00    +0.000 C 
ATOM     16  O   UNL     1       3.053   8.076  17.964  0.00  0.00    +0.000 OA
ATOM     17  H   UNL     1       1.427   6.284  20.055  0.00  0.00    +0.000 HD
BRANCH  15  18
ATOM     18  C   UNL     1       1.399   8.813  19.397  0.00  0.00    +0.000 A 
ATOM     19  C   UNL     1       0.997   9.798  18.476  0.00  0.00    +0.000 A 
ATOM     20  C   UNL     1       0.246  10.899  18.882  0.00  0.00    +0.000 A 
ATOM     21  C   UNL     1      -0.111  11.033  20.220  0.00  0.00    +0.000 A 
ATOM     22  C   UNL     1       0.287  10.053  21.144  0.00  0.00    +0.000 A 
ATOM     23  C   UNL     1       1.041   8.935  20.743  0.00  0.00    +0.000 A 
BRANCH  22  24
ATOM     24  N   UNL     1      -0.074  10.220  22.558  0.00  0.00    +0.000 N 
ATOM     25  O   UNL     1      -1.081  10.891  22.823  0.00  0.00    +0.000 OA
ATOM     26  O   UNL     1       0.648   9.670  23.401  0.00  0.00    +0.000 OA
ENDBRANCH  22  24
ENDBRANCH  15  18
ENDBRANCH   5  14
TORSDOF 6
ENDMDL
MODEL 8
REMARK VINA RESULT:      -7.2      2.401      8.919
REMARK  Name = 
REMARK  7 active torsions:
REMARK  status: ('A' for Active; 'I' for Inactive)
REMARK    1  A    between atoms: C_1  and  C_2
REMARK    2  A    between atoms: C_2  and  C_3
REMARK    3  A    between atoms: C_3  and  C_4
REMARK    4  A    between atoms: N_6  and  C_7
REMARK    5  A    between atoms: C_11  and  N_12
REMARK    6  A    between atoms: C_13  and  C_15
REMARK    7  A    between atoms: C_19  and  N_20
REMARK                            x       y       z     vdW  Elec       q    Type
REMARK                         _______ _______ _______ _____ _____    ______ ____
ROOT
ATOM      1  C   UNL     1       1.727   5.371  20.308  0.00  0.00    +0.000 A 
ATOM      2  C   UNL     1       0.945   4.242  20.558  0.00  0.00    +0.000 A 
ATOM      3  C   UNL     1       1.047   3.118  19.746  0.00  0.00    +0.000 A 
ATOM      4  C   UNL     1       1.927   3.118  18.669  0.00  0.00    +0.000 A 
ATOM      5  C   UNL     1       2.700   4.242  18.366  0.00  0.00    +0.000 A 
ATOM      6  C   UNL     1       2.595   5.373  19.199  0.00  0.00    +0.000 A 
ENDROOT
BRANCH   1   9
ATOM      7  C   UNL     1       1.588   7.833  20.669  0.00  0.00    +0.000 C 
ATOM      8  O   UNL     1       1.458   8.190  19.502  0.00  0.00    +0.000 OA
ATOM      9  N   UNL     1       1.657   6.524  21.125  0.00  0.00    +0.000 N 
ATOM     10  H   UNL     1       1.549   6.375  22.120  0.00  0.00    +0.000 HD
BRANCH   7  11
ATOM     11  C   UNL     1       1.657   8.873  21.771  0.00  0.00    +0.000 C 
BRANCH  11  13
ATOM     12  C   UNL     1      -0.308   9.641  23.188  0.00  0.00    +0.000 C 
ATOM     13  C   UNL     1       0.414   9.753  21.851  0.00  0.00    +0.000 C 
ENDBRANCH  11  13
ENDBRANCH   7  11
ENDBRANCH   1   9
BRANCH   5  14
ATOM     14  N   UNL     1       3.601   4.270  17.266  0.00  0.00    +0.000 N 
ATOM     15  C   UNL     1       4.981   4.164  17.387  0.00  0.00    +0.000 C 
ATOM     16  O   UNL     1       5.602   3.929  18.421  0.00  0.00    +0.000 OA
ATOM     17  H   UNL     1       3.195   4.243  16.339  0.00  0.00    +0.000 HD
BRANCH  15  18
ATOM     18  C   UNL     1       5.800   4.294  16.149  0.00  0.00    +0.000 A 
ATOM     19  C   UNL     1       6.900   5.169  16.206  0.00  0.00    +0.000 A 
ATOM     20  C   UNL     1       7.652   5.454  15.069  0.00  0.00    +0.000 A 
ATOM     21  C   UNL     1       7.312   4.870  13.853  0.00  0.00    +0.000 A 
ATOM     22  C   UNL     1       6.215   3.995  13.790  0.00  0.00    +0.000 A 
ATOM     23  C   UNL     1       5.451   3.696  14.934  0.00  0.00    +0.000 A 
BRANCH  22  24
ATOM     24  N   UNL     1       5.849   3.404  12.496  0.00  0.00    +0.000 N 
ATOM     25  O   UNL     1       6.742   2.849  11.840  0.00  0.00    +0.000 OA
ATOM     26  O   UNL     1       4.665   3.491  12.142  0.00  0.00    +0.000 OA
ENDBRANCH  22  24
ENDBRANCH  15  18
ENDBRANCH   5  14
TORSDOF 6
ENDMDL
MODEL 9
REMARK VINA RESULT:      -7.2      3.336      8.479
REMARK  Name = 
REMARK  7 active torsions:
REMARK  status: ('A' for Active; 'I' for Inactive)
REMARK    1  A    between atoms: C_1  and  C_2
REMARK    2  A    between atoms: C_2  and  C_3
REMARK    3  A    between atoms: C_3  and  C_4
REMARK    4  A    between atoms: N_6  and  C_7
REMARK    5  A    between atoms: C_11  and  N_12
REMARK    6  A    between atoms: C_13  and  C_15
REMARK    7  A    between atoms: C_19  and  N_20
REMARK                            x       y       z     vdW  Elec       q    Type
REMARK                         _______ _______ _______ _____ _____    ______ ____
ROOT
ATOM      1  C   UNL     1      -0.413  10.334  19.293  0.00  0.00    +0.000 A 
ATOM      2  C   UNL     1      -0.470  10.648  20.651  0.00  0.00    +0.000 A 
ATOM      3  C   UNL     1       0.359  10.003  21.561  0.00  0.00    +0.000 A 
ATOM      4  C   UNL     1       1.247   9.027  21.121  0.00  0.00    +0.000 A 
ATOM      5  C   UNL     1       1.307   8.659  19.773  0.00  0.00    +0.000 A 
ATOM      6  C   UNL     1       0.469   9.325  18.858  0.00  0.00    +0.000 A 
ENDROOT
BRANCH   1   9
ATOM      7  C   UNL     1      -2.374  10.449  17.760  0.00  0.00    +0.000 C 
ATOM      8  O   UNL     1      -2.916   9.391  18.062  0.00  0.00    +0.000 OA
ATOM      9  N   UNL     1      -1.232  10.984  18.340  0.00  0.00    +0.000 N 
ATOM     10  H   UNL     1      -1.024  11.953  18.142  0.00  0.00    +0.000 HD
BRANCH   7  11
ATOM     11  C   UNL     1      -2.977  11.320  16.673  0.00  0.00    +0.000 C 
BRANCH  11  13
ATOM     12  C   UNL     1      -3.913   9.984  14.724  0.00  0.00    +0.000 C 
ATOM     13  C   UNL     1      -2.735  10.784  15.266  0.00  0.00    +0.000 C 
ENDBRANCH  11  13
ENDBRANCH   7  11
ENDBRANCH   1   9
BRANCH   5  14
ATOM     14  N   UNL     1       2.200   7.659  19.298  0.00  0.00    +0.000 N 
ATOM     15  C   UNL     1       2.799   7.682  18.044  0.00  0.00    +0.000 C 
ATOM     16  O   UNL     1       2.732   8.595  17.226  0.00  0.00    +0.000 OA
ATOM     17  H   UNL     1       2.505   6.962  19.966  0.00  0.00    +0.000 HD
BRANCH  15  18
ATOM     18  C   UNL     1       3.647   6.519  17.658  0.00  0.00    +0.000 A 
ATOM     19  C   UNL     1       3.070   5.243  17.791  0.00  0.00    +0.000 A 
ATOM     20  C   UNL     1       3.819   4.089  17.573  0.00  0.00    +0.000 A 
ATOM     21  C   UNL     1       5.161   4.194  17.224  0.00  0.00    +0.000 A 
ATOM     22  C   UNL     1       5.743   5.466  17.090  0.00  0.00    +0.000 A 
ATOM     23  C   UNL     1       4.993   6.638  17.302  0.00  0.00    +0.000 A 
BRANCH  22  24
ATOM     24  N   UNL     1       7.168   5.564  16.747  0.00  0.00    +0.000 N 
ATOM     25  O   UNL     1       7.639   6.693  16.548  0.00  0.00    +0.000 OA
ATOM     26  O   UNL     1       7.815   4.510  16.685  0.00  0.00    +0.000 OA
ENDBRANCH  22  24
ENDBRANCH  15  18
ENDBRANCH   5  14
TORSDOF 6
ENDMDL
