MODEL 1
REMARK VINA RESULT:      -8.8      0.000      0.000
REMARK  Name = 
REMARK  9 active torsions:
REMARK  status: ('A' for Active; 'I' for Inactive)
REMARK    1  A    between atoms: N_1  and  C_2
REMARK    2  A    between atoms: C_2  and  C_3
REMARK    3  A    between atoms: C_3  and  C_4
REMARK    4  A    between atoms: C_4  and  N_5
REMARK    5  A    between atoms: C_6  and  S_7
REMARK    6  A    between atoms: S_7  and  C_8
REMARK    7  A    between atoms: C_8  and  C_9
REMARK    8  A    between atoms: C_9  and  C_10
REMARK    9  A    between atoms: C_21  and  C_22
REMARK                            x       y       z     vdW  Elec       q    Type
REMARK                         _______ _______ _______ _____ _____    ______ ____
ROOT
ATOM      1  N   UNL     1       2.456   6.425  19.937  0.00  0.00    +0.000 N 
ATOM      2  C   UNL     1       3.298   6.144  18.882  0.00  0.00    +0.000 A 
ATOM      3  N   UNL     1       3.279   7.134  18.026  0.00  0.00    +0.000 NA
ATOM      4  N   UNL     1       2.485   8.118  18.549  0.00  0.00    +0.000 NA
ATOM      5  C   UNL     1       2.024   7.732  19.732  0.00  0.00    +0.000 A 
ENDROOT
BRANCH   5   6
ATOM      6  C   UNL     1       1.170   8.590  20.580  0.00  0.00    +0.000 A 
ATOM      7  C   UNL     1       1.161   8.554  21.977  0.00  0.00    +0.000 A 
ATOM      8  C   UNL     1       0.338   9.409  22.723  0.00  0.00    +0.000 A 
ATOM      9  C   UNL     1      -0.464  10.370  22.096  0.00  0.00    +0.000 A 
ATOM     10  C   UNL     1      -1.270  11.253  22.836  0.00  0.00    +0.000 A 
ATOM     11  C   UNL     1      -2.028  12.235  22.198  0.00  0.00    +0.000 A 
ATOM     12  C   UNL     1      -1.985  12.347  20.810  0.00  0.00    +0.000 A 
ATOM     13  C   UNL     1      -1.197  11.467  20.064  0.00  0.00    +0.000 A 
ATOM     14  C   UNL     1      -0.432  10.467  20.690  0.00  0.00    +0.000 A 
ATOM     15  C   UNL     1       0.374   9.572  19.957  0.00  0.00    +0.000 A 
ENDBRANCH   5   6
BRANCH   1  16
ATOM     16  C   UNL     1       2.050   5.513  20.991  0.00  0.00    +0.000 C 
BRANCH  16  17
ATOM     17  C   UNL     1       1.005   4.490  20.533  0.00  0.00    +0.000 C 
BRANCH  17  18
ATOM     18  C   UNL     1       1.497   3.048  20.674  0.00  0.00    +0.000 C 
BRANCH  18  19
ATOM     19  N   UNL     1       1.830   2.733  22.060  0.00  0.00    +0.000 NA
ATOM     20  H   UNL     1       2.544   2.002  22.073  0.00  0.00    +0.000 HD
ATOM     21  H   UNL     1       1.015   2.328  22.527  0.00  0.00    +0.000 HD
ENDBRANCH  18  19
ENDBRANCH  17  18
ENDBRANCH  16  17
ENDBRANCH   1  16
BRANCH   2  22
ATOM     22  S   UNL     1       4.265   4.714  18.746  0.00  0.00    +0.000 S 
BRANCH  22  23
ATOM     23  C   UNL     1       3.874   4.071  17.077  0.00  0.00    +0.000 C 
BRANCH  23  24
ATOM     24  C   UNL     1       4.979   3.239  16.408  0.00  0.00    +0.000 C 
BRANCH  24  25
ATOM     25  C   UNL     1       5.945   4.112  15.645  0.00  0.00    +0.000 A 
ATOM     26  C   UNL     1       6.799   5.048  16.200  0.00  0.00    +0.000 A 
ATOM     27  N   UNL     1       7.560   5.591  15.201  0.00  0.00    +0.000 N 
ATOM     28  C   UNL     1       7.262   4.995  14.000  0.00  0.00    +0.000 A 
ATOM     29  C   UNL     1       7.851   5.171  12.740  0.00  0.00    +0.000 A 
ATOM     30  C   UNL     1       7.336   4.428  11.674  0.00  0.00    +0.000 A 
ATOM     31  C   UNL     1       6.240   3.591  11.857  0.00  0.00    +0.000 A 
ATOM     32  C   UNL     1       5.661   3.427  13.125  0.00  0.00    +0.000 A 
ATOM     33  C   UNL     1       6.202   4.115  14.231  0.00  0.00    +0.000 A 
ATOM     34  H   UNL     1       8.265   6.305  15.324  0.00  0.00    +0.000 HD
ENDBRANCH  24  25
ENDBRANCH  23  24
ENDBRANCH  22  23
ENDBRANCH   2  22
TORSDOF 9
ENDMDL
MODEL 2
REMARK VINA RESULT:      -8.4      0.741      1.503
REMARK  Name = 
REMARK  9 active torsions:
REMARK  status: ('A' for Active; 'I' for Inactive)
REMARK    1  A    between atoms: N_1  and  C_2
REMARK    2  A    between atoms: C_2  and  C_3
REMARK    3  A    between atoms: C_3  and  C_4
REMARK    4  A    between atoms: C_4  and  N_5
REMARK    5  A    between atoms: C_6  and  S_7
REMARK    6  A    between atoms: S_7  and  C_8
REMARK    7  A    between atoms: C_8  and  C_9
REMARK    8  A    between atoms: C_9  and  C_10
REMARK    9  A    between atoms: C_21  and  C_22
REMARK                            x       y       z     vdW  Elec       q    Type
REMARK                         _______ _______ _______ _____ _____    ______ ____
ROOT
ATOM      1  N   UNL     1       2.751   6.341  19.594  0.00  0.00    +0.000 N 
ATOM      2  C   UNL     1       3.784   5.835  18.833  0.00  0.00    +0.000 A 
ATOM      3  N   UNL     1       4.021   6.635  17.825  0.00  0.00    +0.000 NA
ATOM      4  N   UNL     1       3.199   7.721  17.956  0.00  0.00    +0.000 NA
ATOM      5  C   UNL     1       2.464   7.590  19.052  0.00  0.00    +0.000 A 
ENDROOT
BRANCH   5   6
ATOM      6  C   UNL     1       1.505   8.620  19.504  0.00  0.00    +0.000 A 
ATOM      7  C   UNL     1       0.799   9.467  18.646  0.00  0.00    +0.000 A 
ATOM      8  C   UNL     1      -0.110  10.412  19.140  0.00  0.00    +0.000 A 
ATOM      9  C   UNL     1      -0.387  10.503  20.509  0.00  0.00    +0.000 A 
ATOM     10  C   UNL     1      -1.320  11.427  21.013  0.00  0.00    +0.000 A 
ATOM     11  C   UNL     1      -1.617  11.473  22.375  0.00  0.00    +0.000 A 
ATOM     12  C   UNL     1      -0.986  10.592  23.249  0.00  0.00    +0.000 A 
ATOM     13  C   UNL     1      -0.048   9.678  22.762  0.00  0.00    +0.000 A 
ATOM     14  C   UNL     1       0.268   9.622  21.393  0.00  0.00    +0.000 A 
ATOM     15  C   UNL     1       1.208   8.705  20.879  0.00  0.00    +0.000 A 
ENDBRANCH   5   6
BRANCH   1  16
ATOM     16  C   UNL     1       2.062   5.667  20.680  0.00  0.00    +0.000 C 
BRANCH  16  17
ATOM     17  C   UNL     1       1.107   4.569  20.199  0.00  0.00    +0.000 C 
BRANCH  17  18
ATOM     18  C   UNL     1       1.532   3.177  20.670  0.00  0.00    +0.000 C 
BRANCH  18  19
ATOM     19  N   UNL     1       2.069   3.215  22.026  0.00  0.00    +0.000 NA
ATOM     20  H   UNL     1       1.310   3.054  22.690  0.00  0.00    +0.000 HD
ATOM     21  H   UNL     1       2.417   4.155  22.233  0.00  0.00    +0.000 HD
ENDBRANCH  18  19
ENDBRANCH  17  18
ENDBRANCH  16  17
ENDBRANCH   1  16
BRANCH   2  22
ATOM     22  S   UNL     1       4.657   4.386  19.196  0.00  0.00    +0.000 S 
BRANCH  22  23
ATOM     23  C   UNL     1       4.532   3.396  17.660  0.00  0.00    +0.000 C 
BRANCH  23  24
ATOM     24  C   UNL     1       4.173   4.182  16.388  0.00  0.00    +0.000 C 
BRANCH  24  25
ATOM     25  C   UNL     1       5.406   4.551  15.599  0.00  0.00    +0.000 A 
ATOM     26  C   UNL     1       6.507   5.229  16.091  0.00  0.00    +0.000 A 
ATOM     27  N   UNL     1       7.442   5.322  15.096  0.00  0.00    +0.000 N 
ATOM     28  C   UNL     1       7.002   4.673  13.968  0.00  0.00    +0.000 A 
ATOM     29  C   UNL     1       7.659   4.439  12.752  0.00  0.00    +0.000 A 
ATOM     30  C   UNL     1       6.960   3.748  11.759  0.00  0.00    +0.000 A 
ATOM     31  C   UNL     1       5.638   3.362  11.961  0.00  0.00    +0.000 A 
ATOM     32  C   UNL     1       4.994   3.605  13.184  0.00  0.00    +0.000 A 
ATOM     33  C   UNL     1       5.698   4.243  14.226  0.00  0.00    +0.000 A 
ATOM     34  H   UNL     1       8.343   5.772  15.179  0.00  0.00    +0.000 HD
ENDBRANCH  24  25
ENDBRANCH  23  24
ENDBRANCH  22  23
ENDBRANCH   2  22
TORSDOF 9
ENDMDL
MODEL 3
REMARK VINA RESULT:      -8.3      1.682      2.639
REMARK  Name = 
REMARK  9 active torsions:
REMARK  status: ('A' for Active; 'I' for Inactive)
REMARK    1  A    between atoms: N_1  and  C_2
REMARK    2  A    between atoms: C_2  and  C_3
REMARK    3  A    between atoms: C_3  and  C_4
REMARK    4  A    between atoms: C_4  and  N_5
REMARK    5  A    between atoms: C_6  and  S_7
REMARK    6  A    between atoms: S_7  and  C_8
REMARK    7  A    between atoms: C_8  and  C_9
REMARK    8  A    between atoms: C_9  and  C_10
REMARK    9  A    between atoms: C_21  and  C_22
REMARK                            x       y       z     vdW  Elec       q    Type
REMARK                         _______ _______ _______ _____ _____    ______ ____
ROOT
ATOM      1  N   UNL     1       2.357   6.034  19.985  0.00  0.00    +0.000 N 
ATOM      2  C   UNL     1       3.236   5.622  19.005  0.00  0.00    +0.000 A 
ATOM      3  N   UNL     1       3.406   6.584  18.134  0.00  0.00    +0.000 NA
ATOM      4  N   UNL     1       2.703   7.672  18.575  0.00  0.00    +0.000 NA
ATOM      5  C   UNL     1       2.108   7.378  19.723  0.00  0.00    +0.000 A 
ENDROOT
BRANCH   5   6
ATOM      6  C   UNL     1       1.306   8.357  20.486  0.00  0.00    +0.000 A 
ATOM      7  C   UNL     1       1.264   8.422  21.882  0.00  0.00    +0.000 A 
ATOM      8  C   UNL     1       0.495   9.389  22.543  0.00  0.00    +0.000 A 
ATOM      9  C   UNL     1      -0.217  10.360  21.830  0.00  0.00    +0.000 A 
ATOM     10  C   UNL     1      -0.967  11.353  22.484  0.00  0.00    +0.000 A 
ATOM     11  C   UNL     1      -1.633  12.342  21.758  0.00  0.00    +0.000 A 
ATOM     12  C   UNL     1      -1.552  12.349  20.368  0.00  0.00    +0.000 A 
ATOM     13  C   UNL     1      -0.819  11.361  19.707  0.00  0.00    +0.000 A 
ATOM     14  C   UNL     1      -0.147  10.354  20.422  0.00  0.00    +0.000 A 
ATOM     15  C   UNL     1       0.602   9.349  19.775  0.00  0.00    +0.000 A 
ENDBRANCH   5   6
BRANCH   1  16
ATOM     16  C   UNL     1       1.761   5.207  21.019  0.00  0.00    +0.000 C 
BRANCH  16  17
ATOM     17  C   UNL     1       0.778   4.169  20.469  0.00  0.00    +0.000 C 
BRANCH  17  18
ATOM     18  C   UNL     1       1.266   2.734  20.678  0.00  0.00    +0.000 C 
BRANCH  18  19
ATOM     19  N   UNL     1       1.708   2.518  22.053  0.00  0.00    +0.000 NA
ATOM     20  H   UNL     1       0.942   2.106  22.589  0.00  0.00    +0.000 HD
ATOM     21  H   UNL     1       1.899   3.418  22.499  0.00  0.00    +0.000 HD
ENDBRANCH  18  19
ENDBRANCH  17  18
ENDBRANCH  16  17
ENDBRANCH   1  16
BRANCH   2  22
ATOM     22  S   UNL     1       4.024   4.082  18.972  0.00  0.00    +0.000 S 
BRANCH  22  23
ATOM     23  C   UNL     1       3.804   3.508  17.247  0.00  0.00    +0.000 C 
BRANCH  23  24
ATOM     24  C   UNL     1       5.062   3.548  16.365  0.00  0.00    +0.000 C 
BRANCH  24  25
ATOM     25  C   UNL     1       5.651   4.936  16.301  0.00  0.00    +0.000 A 
ATOM     26  C   UNL     1       5.301   5.920  15.394  0.00  0.00    +0.000 A 
ATOM     27  N   UNL     1       6.004   7.057  15.691  0.00  0.00    +0.000 N 
ATOM     28  C   UNL     1       6.776   6.859  16.810  0.00  0.00    +0.000 A 
ATOM     29  C   UNL     1       7.579   7.763  17.517  0.00  0.00    +0.000 A 
ATOM     30  C   UNL     1       8.270   7.283  18.632  0.00  0.00    +0.000 A 
ATOM     31  C   UNL     1       8.201   5.938  18.984  0.00  0.00    +0.000 A 
ATOM     32  C   UNL     1       7.393   5.045  18.264  0.00  0.00    +0.000 A 
ATOM     33  C   UNL     1       6.633   5.518  17.173  0.00  0.00    +0.000 A 
ATOM     34  H   UNL     1       5.945   7.930  15.186  0.00  0.00    +0.000 HD
ENDBRANCH  24  25
ENDBRANCH  23  24
ENDBRANCH  22  23
ENDBRANCH   2  22
TORSDOF 9
ENDMDL
MODEL 4
REMARK VINA RESULT:      -8.1      3.710     10.421
REMARK  Name = 
REMARK  9 active torsions:
REMARK  status: ('A' for Active; 'I' for Inactive)
REMARK    1  A    between atoms: N_1  and  C_2
REMARK    2  A    between atoms: C_2  and  C_3
REMARK    3  A    between atoms: C_3  and  C_4
REMARK    4  A    between atoms: C_4  and  N_5
REMARK    5  A    between atoms: C_6  and  S_7
REMARK    6  A    between atoms: S_7  and  C_8
REMARK    7  A    between atoms: C_8  and  C_9
REMARK    8  A    between atoms: C_9  and  C_10
REMARK    9  A    between atoms: C_21  and  C_22
REMARK                            x       y       z     vdW  Elec       q    Type
REMARK                         _______ _______ _______ _____ _____    ______ ____
ROOT
ATOM      1  N   UNL     1       1.467   8.994  19.663  0.00  0.00    +0.000 N 
ATOM      2  C   UNL     1       1.290  10.079  18.831  0.00  0.00    +0.000 A 
ATOM      3  N   UNL     1       1.764   9.806  17.642  0.00  0.00    +0.000 NA
ATOM      4  N   UNL     1       2.187   8.504  17.655  0.00  0.00    +0.000 NA
ATOM      5  C   UNL     1       1.962   7.978  18.851  0.00  0.00    +0.000 A 
ENDROOT
BRANCH   5   6
ATOM      6  C   UNL     1       2.265   6.568  19.179  0.00  0.00    +0.000 A 
ATOM      7  C   UNL     1       2.099   6.003  20.446  0.00  0.00    +0.000 A 
ATOM      8  C   UNL     1       2.389   4.653  20.684  0.00  0.00    +0.000 A 
ATOM      9  C   UNL     1       2.802   3.807  19.649  0.00  0.00    +0.000 A 
ATOM     10  C   UNL     1       3.066   2.444  19.870  0.00  0.00    +0.000 A 
ATOM     11  C   UNL     1       3.432   1.605  18.817  0.00  0.00    +0.000 A 
ATOM     12  C   UNL     1       3.535   2.121  17.528  0.00  0.00    +0.000 A 
ATOM     13  C   UNL     1       3.287   3.476  17.297  0.00  0.00    +0.000 A 
ATOM     14  C   UNL     1       2.923   4.337  18.348  0.00  0.00    +0.000 A 
ATOM     15  C   UNL     1       2.663   5.708  18.137  0.00  0.00    +0.000 A 
ENDBRANCH   5   6
BRANCH   1  16
ATOM     16  C   UNL     1       1.254   8.956  21.099  0.00  0.00    +0.000 C 
BRANCH  16  17
ATOM     17  C   UNL     1      -0.190   8.619  21.485  0.00  0.00    +0.000 C 
BRANCH  17  18
ATOM     18  C   UNL     1      -0.661   9.390  22.719  0.00  0.00    +0.000 C 
BRANCH  18  19
ATOM     19  N   UNL     1       0.454   9.701  23.609  0.00  0.00    +0.000 NA
ATOM     20  H   UNL     1       1.178  10.189  23.078  0.00  0.00    +0.000 HD
ATOM     21  H   UNL     1       0.889   8.834  23.932  0.00  0.00    +0.000 HD
ENDBRANCH  18  19
ENDBRANCH  17  18
ENDBRANCH  16  17
ENDBRANCH   1  16
BRANCH   2  22
ATOM     22  S   UNL     1       0.513  11.556  19.289  0.00  0.00    +0.000 S 
BRANCH  22  23
ATOM     23  C   UNL     1      -1.272  11.151  19.242  0.00  0.00    +0.000 C 
BRANCH  23  24
ATOM     24  C   UNL     1      -2.230  12.350  19.329  0.00  0.00    +0.000 C 
BRANCH  24  25
ATOM     25  C   UNL     1      -3.617  11.986  18.857  0.00  0.00    +0.000 A 
ATOM     26  C   UNL     1      -3.935  11.444  17.625  0.00  0.00    +0.000 A 
ATOM     27  N   UNL     1      -5.280  11.195  17.592  0.00  0.00    +0.000 N 
ATOM     28  C   UNL     1      -5.853  11.516  18.799  0.00  0.00    +0.000 A 
ATOM     29  C   UNL     1      -7.172  11.345  19.241  0.00  0.00    +0.000 A 
ATOM     30  C   UNL     1      -7.484  11.774  20.533  0.00  0.00    +0.000 A 
ATOM     31  C   UNL     1      -6.525  12.401  21.323  0.00  0.00    +0.000 A 
ATOM     32  C   UNL     1      -5.209  12.567  20.865  0.00  0.00    +0.000 A 
ATOM     33  C   UNL     1      -4.850  12.083  19.589  0.00  0.00    +0.000 A 
ATOM     34  H   UNL     1      -5.784  10.802  16.809  0.00  0.00    +0.000 HD
ENDBRANCH  24  25
ENDBRANCH  23  24
ENDBRANCH  22  23
ENDBRANCH   2  22
TORSDOF 9
ENDMDL
MODEL 5
REMARK VINA RESULT:      -8.1      3.169      4.796
REMARK  Name = 
REMARK  9 active torsions:
REMARK  status: ('A' for Active; 'I' for Inactive)
REMARK    1  A    between atoms: N_1  and  C_2
REMARK    2  A    between atoms: C_2  and  C_3
REMARK    3  A    between atoms: C_3  and  C_4
REMARK    4  A    between atoms: C_4  and  N_5
REMARK    5  A    between atoms: C_6  and  S_7
REMARK    6  A    between atoms: S_7  and  C_8
REMARK    7  A    between atoms: C_8  and  C_9
REMARK    8  A    between atoms: C_9  and  C_10
REMARK    9  A    between atoms: C_21  and  C_22
REMARK                            x       y       z     vdW  Elec       q    Type
REMARK                         _______ _______ _______ _____ _____    ______ ____
ROOT
ATOM      1  N   UNL     1       1.577   9.019  19.688  0.00  0.00    +0.000 N 
ATOM      2  C   UNL     1       1.929   7.837  19.070  0.00  0.00    +0.000 A 
ATOM      3  N   UNL     1       1.941   8.004  17.772  0.00  0.00    +0.000 NA
ATOM      4  N   UNL     1       1.676   9.324  17.522  0.00  0.00    +0.000 NA
ATOM      5  C   UNL     1       1.510   9.966  18.671  0.00  0.00    +0.000 A 
ENDROOT
BRANCH   5   6
ATOM      6  C   UNL     1       1.255  11.420  18.748  0.00  0.00    +0.000 A 
ATOM      7  C   UNL     1       0.102  11.988  19.299  0.00  0.00    +0.000 A 
ATOM      8  C   UNL     1      -0.070  13.377  19.357  0.00  0.00    +0.000 A 
ATOM      9  C   UNL     1       0.932  14.249  18.915  0.00  0.00    +0.000 A 
ATOM     10  C   UNL     1       0.783  15.645  18.997  0.00  0.00    +0.000 A 
ATOM     11  C   UNL     1       1.810  16.500  18.595  0.00  0.00    +0.000 A 
ATOM     12  C   UNL     1       3.001  15.966  18.109  0.00  0.00    +0.000 A 
ATOM     13  C   UNL     1       3.156  14.581  18.012  0.00  0.00    +0.000 A 
ATOM     14  C   UNL     1       2.129  13.705  18.407  0.00  0.00    +0.000 A 
ATOM     15  C   UNL     1       2.266  12.304  18.322  0.00  0.00    +0.000 A 
ENDBRANCH   5   6
BRANCH   1  16
ATOM     16  C   UNL     1       1.265   9.204  21.094  0.00  0.00    +0.000 C 
BRANCH  16  17
ATOM     17  C   UNL     1      -0.152   8.753  21.461  0.00  0.00    +0.000 C 
BRANCH  17  18
ATOM     18  C   UNL     1      -0.696   9.477  22.694  0.00  0.00    +0.000 C 
BRANCH  18  19
ATOM     19  N   UNL     1      -0.072  10.786  22.859  0.00  0.00    +0.000 NA
ATOM     20  H   UNL     1      -0.770  11.512  22.687  0.00  0.00    +0.000 HD
ATOM     21  H   UNL     1       0.644  10.920  22.142  0.00  0.00    +0.000 HD
ENDBRANCH  18  19
ENDBRANCH  17  18
ENDBRANCH  16  17
ENDBRANCH   1  16
BRANCH   2  22
ATOM     22  S   UNL     1       2.338   6.374  19.900  0.00  0.00    +0.000 S 
BRANCH  22  23
ATOM     23  C   UNL     1       1.708   5.051  18.803  0.00  0.00    +0.000 C 
BRANCH  23  24
ATOM     24  C   UNL     1       2.657   4.609  17.678  0.00  0.00    +0.000 C 
BRANCH  24  25
ATOM     25  C   UNL     1       4.086   4.526  18.159  0.00  0.00    +0.000 A 
ATOM     26  C   UNL     1       4.635   3.483  18.883  0.00  0.00    +0.000 A 
ATOM     27  N   UNL     1       5.964   3.740  19.079  0.00  0.00    +0.000 N 
ATOM     28  C   UNL     1       6.319   4.910  18.453  0.00  0.00    +0.000 A 
ATOM     29  C   UNL     1       7.579   5.509  18.315  0.00  0.00    +0.000 A 
ATOM     30  C   UNL     1       7.649   6.722  17.625  0.00  0.00    +0.000 A 
ATOM     31  C   UNL     1       6.494   7.333  17.147  0.00  0.00    +0.000 A 
ATOM     32  C   UNL     1       5.239   6.722  17.295  0.00  0.00    +0.000 A 
ATOM     33  C   UNL     1       5.149   5.465  17.930  0.00  0.00    +0.000 A 
ATOM     34  H   UNL     1       6.608   3.144  19.580  0.00  0.00    +0.000 HD
ENDBRANCH  24  25
ENDBRANCH  23  24
ENDBRANCH  22  23
ENDBRANCH   2  22
TORSDOF 9
ENDMDL
MODEL 6
REMARK VINA RESULT:      -8.0      4.617     10.133
REMARK  Name = 
REMARK  9 active torsions:
REMARK  status: ('A' for Active; 'I' for Inactive)
REMARK    1  A    between atoms: N_1  and  C_2
REMARK    2  A    between atoms: C_2  and  C_3
REMARK    3  A    between atoms: C_3  and  C_4
REMARK    4  A    between atoms: C_4  and  N_5
REMARK    5  A    between atoms: C_6  and  S_7
REMARK    6  A    between atoms: S_7  and  C_8
REMARK    7  A    between atoms: C_8  and  C_9
REMARK    8  A    between atoms: C_9  and  C_10
REMARK    9  A    between atoms: C_21  and  C_22
REMARK                            x       y       z     vdW  Elec       q    Type
REMARK                         _______ _______ _______ _____ _____    ______ ____
ROOT
ATOM      1  N   UNL     1       0.533  10.221  19.943  0.00  0.00    +0.000 N 
ATOM      2  C   UNL     1       0.394  11.168  20.936  0.00  0.00    +0.000 A 
ATOM      3  N   UNL     1       0.790  10.669  22.079  0.00  0.00    +0.000 NA
ATOM      4  N   UNL     1       1.273   9.411  21.838  0.00  0.00    +0.000 NA
ATOM      5  C   UNL     1       1.180   9.144  20.542  0.00  0.00    +0.000 A 
ENDROOT
BRANCH   5   6
ATOM      6  C   UNL     1       1.660   7.879  19.946  0.00  0.00    +0.000 A 
ATOM      7  C   UNL     1       2.323   7.790  18.719  0.00  0.00    +0.000 A 
ATOM      8  C   UNL     1       2.768   6.559  18.219  0.00  0.00    +0.000 A 
ATOM      9  C   UNL     1       2.615   5.380  18.958  0.00  0.00    +0.000 A 
ATOM     10  C   UNL     1       3.086   4.144  18.480  0.00  0.00    +0.000 A 
ATOM     11  C   UNL     1       2.966   2.986  19.249  0.00  0.00    +0.000 A 
ATOM     12  C   UNL     1       2.377   3.053  20.509  0.00  0.00    +0.000 A 
ATOM     13  C   UNL     1       1.895   4.273  20.990  0.00  0.00    +0.000 A 
ATOM     14  C   UNL     1       2.001   5.448  20.225  0.00  0.00    +0.000 A 
ATOM     15  C   UNL     1       1.526   6.691  20.692  0.00  0.00    +0.000 A 
ENDBRANCH   5   6
BRANCH   1  16
ATOM     16  C   UNL     1       0.034  10.309  18.582  0.00  0.00    +0.000 C 
BRANCH  16  17
ATOM     17  C   UNL     1      -1.488  10.161  18.489  0.00  0.00    +0.000 C 
BRANCH  17  18
ATOM     18  C   UNL     1      -2.087  10.987  17.349  0.00  0.00    +0.000 C 
BRANCH  18  19
ATOM     19  N   UNL     1      -1.482  12.313  17.278  0.00  0.00    +0.000 NA
ATOM     20  H   UNL     1      -2.222  13.014  17.212  0.00  0.00    +0.000 HD
ATOM     21  H   UNL     1      -0.945  12.401  16.411  0.00  0.00    +0.000 HD
ENDBRANCH  18  19
ENDBRANCH  17  18
ENDBRANCH  16  17
ENDBRANCH   1  16
BRANCH   2  22
ATOM     22  S   UNL     1      -0.174  12.783  20.685  0.00  0.00    +0.000 S 
BRANCH  22  23
ATOM     23  C   UNL     1       1.122  13.553  19.646  0.00  0.00    +0.000 C 
BRANCH  23  24
ATOM     24  C   UNL     1       1.740  14.846  20.200  0.00  0.00    +0.000 C 
BRANCH  24  25
ATOM     25  C   UNL     1       2.008  15.847  19.103  0.00  0.00    +0.000 A 
ATOM     26  C   UNL     1       3.209  16.014  18.437  0.00  0.00    +0.000 A 
ATOM     27  N   UNL     1       3.044  16.970  17.472  0.00  0.00    +0.000 N 
ATOM     28  C   UNL     1       1.741  17.405  17.452  0.00  0.00    +0.000 A 
ATOM     29  C   UNL     1       1.106  18.300  16.581  0.00  0.00    +0.000 A 
ATOM     30  C   UNL     1      -0.247  18.570  16.800  0.00  0.00    +0.000 A 
ATOM     31  C   UNL     1      -0.916  18.008  17.883  0.00  0.00    +0.000 A 
ATOM     32  C   UNL     1      -0.266  17.114  18.748  0.00  0.00    +0.000 A 
ATOM     33  C   UNL     1       1.083  16.774  18.511  0.00  0.00    +0.000 A 
ATOM     34  H   UNL     1       3.762  17.294  16.839  0.00  0.00    +0.000 HD
ENDBRANCH  24  25
ENDBRANCH  23  24
ENDBRANCH  22  23
ENDBRANCH   2  22
TORSDOF 9
ENDMDL
MODEL 7
REMARK VINA RESULT:      -8.0      3.723     10.273
REMARK  Name = 
REMARK  9 active torsions:
REMARK  status: ('A' for Active; 'I' for Inactive)
REMARK    1  A    between atoms: N_1  and  C_2
REMARK    2  A    between atoms: C_2  and  C_3
REMARK    3  A    between atoms: C_3  and  C_4
REMARK    4  A    between atoms: C_4  and  N_5
REMARK    5  A    between atoms: C_6  and  S_7
REMARK    6  A    between atoms: S_7  and  C_8
REMARK    7  A    between atoms: C_8  and  C_9
REMARK    8  A    between atoms: C_9  and  C_10
REMARK    9  A    between atoms: C_21  and  C_22
REMARK                            x       y       z     vdW  Elec       q    Type
REMARK                         _______ _______ _______ _____ _____    ______ ____
ROOT
ATOM      1  N   UNL     1       1.512   9.068  19.544  0.00  0.00    +0.000 N 
ATOM      2  C   UNL     1       1.115  10.342  19.196  0.00  0.00    +0.000 A 
ATOM      3  N   UNL     1       1.511  10.610  17.978  0.00  0.00    +0.000 NA
ATOM      4  N   UNL     1       2.104   9.483  17.478  0.00  0.00    +0.000 NA
ATOM      5  C   UNL     1       2.063   8.520  18.389  0.00  0.00    +0.000 A 
ENDROOT
BRANCH   5   6
ATOM      6  C   UNL     1       2.581   7.158  18.143  0.00  0.00    +0.000 A 
ATOM      7  C   UNL     1       3.903   6.871  17.792  0.00  0.00    +0.000 A 
ATOM      8  C   UNL     1       4.334   5.554  17.588  0.00  0.00    +0.000 A 
ATOM      9  C   UNL     1       3.469   4.471  17.784  0.00  0.00    +0.000 A 
ATOM     10  C   UNL     1       3.899   3.143  17.613  0.00  0.00    +0.000 A 
ATOM     11  C   UNL     1       3.036   2.074  17.857  0.00  0.00    +0.000 A 
ATOM     12  C   UNL     1       1.733   2.322  18.280  0.00  0.00    +0.000 A 
ATOM     13  C   UNL     1       1.290   3.637  18.441  0.00  0.00    +0.000 A 
ATOM     14  C   UNL     1       2.145   4.727  18.194  0.00  0.00    +0.000 A 
ATOM     15  C   UNL     1       1.721   6.063  18.355  0.00  0.00    +0.000 A 
ENDBRANCH   5   6
BRANCH   1  16
ATOM     16  C   UNL     1       1.439   8.464  20.863  0.00  0.00    +0.000 C 
BRANCH  16  17
ATOM     17  C   UNL     1       0.003   8.305  21.373  0.00  0.00    +0.000 C 
BRANCH  17  18
ATOM     18  C   UNL     1      -0.218   8.993  22.721  0.00  0.00    +0.000 C 
BRANCH  18  19
ATOM     19  N   UNL     1       1.011   9.610  23.212  0.00  0.00    +0.000 NA
ATOM     20  H   UNL     1       1.770   9.405  22.559  0.00  0.00    +0.000 HD
ATOM     21  H   UNL     1       1.286   9.175  24.096  0.00  0.00    +0.000 HD
ENDBRANCH  18  19
ENDBRANCH  17  18
ENDBRANCH  16  17
ENDBRANCH   1  16
BRANCH   2  22
ATOM     22  S   UNL     1       0.192  11.397  20.210  0.00  0.00    +0.000 S 
BRANCH  22  23
ATOM     23  C   UNL     1      -0.920  12.271  19.046  0.00  0.00    +0.000 C 
BRANCH  23  24
ATOM     24  C   UNL     1      -2.264  12.735  19.629  0.00  0.00    +0.000 C 
BRANCH  24  25
ATOM     25  C   UNL     1      -3.428  12.056  18.949  0.00  0.00    +0.000 A 
ATOM     26  C   UNL     1      -3.379  11.393  17.736  0.00  0.00    +0.000 A 
ATOM     27  N   UNL     1      -4.612  10.859  17.481  0.00  0.00    +0.000 N 
ATOM     28  C   UNL     1      -5.466  11.113  18.527  0.00  0.00    +0.000 A 
ATOM     29  C   UNL     1      -6.784  10.686  18.734  0.00  0.00    +0.000 A 
ATOM     30  C   UNL     1      -7.427  11.107  19.901  0.00  0.00    +0.000 A 
ATOM     31  C   UNL     1      -6.790  11.967  20.790  0.00  0.00    +0.000 A 
ATOM     32  C   UNL     1      -5.469  12.388  20.567  0.00  0.00    +0.000 A 
ATOM     33  C   UNL     1      -4.775  11.925  19.430  0.00  0.00    +0.000 A 
ATOM     34  H   UNL     1      -4.861  10.325  16.660  0.00  0.00    +0.000 HD
ENDBRANCH  24  25
ENDBRANCH  23  24
ENDBRANCH  22  23
ENDBRANCH   2  22
TORSDOF 9
ENDMDL
MODEL 8
REMARK VINA RESULT:      -7.9      2.633      4.050
REMARK  Name = 
REMARK  9 active torsions:
REMARK  status: ('A' for Active; 'I' for Inactive)
REMARK    1  A    between atoms: N_1  and  C_2
REMARK    2  A    between atoms: C_2  and  C_3
REMARK    3  A    between atoms: C_3  and  C_4
REMARK    4  A    between atoms: C_4  and  N_5
REMARK    5  A    between atoms: C_6  and  S_7
REMARK    6  A    between atoms: S_7  and  C_8
REMARK    7  A    between atoms: C_8  and  C_9
REMARK    8  A    between atoms: C_9  and  C_10
REMARK    9  A    between atoms: C_21  and  C_22
REMARK                            x       y       z     vdW  Elec       q    Type
REMARK                         _______ _______ _______ _____ _____    ______ ____
ROOT
ATOM      1  N   UNL     1       1.554   8.464  19.391  0.00  0.00    +0.000 N 
ATOM      2  C   UNL     1       2.347   7.464  18.868  0.00  0.00    +0.000 A 
ATOM      3  N   UNL     1       2.789   7.823  17.690  0.00  0.00    +0.000 NA
ATOM      4  N   UNL     1       2.358   9.101  17.457  0.00  0.00    +0.000 NA
ATOM      5  C   UNL     1       1.658   9.528  18.500  0.00  0.00    +0.000 A 
ENDROOT
BRANCH   5   6
ATOM      6  C   UNL     1       1.090  10.890  18.582  0.00  0.00    +0.000 A 
ATOM      7  C   UNL     1      -0.265  11.165  18.791  0.00  0.00    +0.000 A 
ATOM      8  C   UNL     1      -0.736  12.482  18.876  0.00  0.00    +0.000 A 
ATOM      9  C   UNL     1       0.142  13.570  18.812  0.00  0.00    +0.000 A 
ATOM     10  C   UNL     1      -0.316  14.895  18.928  0.00  0.00    +0.000 A 
ATOM     11  C   UNL     1       0.578  15.966  18.907  0.00  0.00    +0.000 A 
ATOM     12  C   UNL     1       1.943  15.722  18.775  0.00  0.00    +0.000 A 
ATOM     13  C   UNL     1       2.408  14.412  18.648  0.00  0.00    +0.000 A 
ATOM     14  C   UNL     1       1.521  13.321  18.659  0.00  0.00    +0.000 A 
ATOM     15  C   UNL     1       1.969  11.989  18.537  0.00  0.00    +0.000 A 
ENDBRANCH   5   6
BRANCH   1  16
ATOM     16  C   UNL     1       0.726   8.382  20.580  0.00  0.00    +0.000 C 
BRANCH  16  17
ATOM     17  C   UNL     1       1.293   9.173  21.764  0.00  0.00    +0.000 C 
BRANCH  17  18
ATOM     18  C   UNL     1       0.248  10.082  22.415  0.00  0.00    +0.000 C 
BRANCH  18  19
ATOM     19  N   UNL     1      -0.603   9.337  23.339  0.00  0.00    +0.000 NA
ATOM     20  H   UNL     1      -1.293   9.973  23.742  0.00  0.00    +0.000 HD
ATOM     21  H   UNL     1      -0.045   9.003  24.128  0.00  0.00    +0.000 HD
ENDBRANCH  18  19
ENDBRANCH  17  18
ENDBRANCH  16  17
ENDBRANCH   1  16
BRANCH   2  22
ATOM     22  S   UNL     1       2.730   5.984  19.679  0.00  0.00    +0.000 S 
BRANCH  22  23
ATOM     23  C   UNL     1       1.800   4.713  18.745  0.00  0.00    +0.000 C 
BRANCH  23  24
ATOM     24  C   UNL     1       2.635   3.547  18.192  0.00  0.00    +0.000 C 
BRANCH  24  25
ATOM     25  C   UNL     1       4.109   3.873  18.191  0.00  0.00    +0.000 A 
ATOM     26  C   UNL     1       4.959   3.773  19.278  0.00  0.00    +0.000 A 
ATOM     27  N   UNL     1       6.226   4.093  18.872  0.00  0.00    +0.000 N 
ATOM     28  C   UNL     1       6.240   4.354  17.523  0.00  0.00    +0.000 A 
ATOM     29  C   UNL     1       7.320   4.633  16.674  0.00  0.00    +0.000 A 
ATOM     30  C   UNL     1       7.041   4.870  15.326  0.00  0.00    +0.000 A 
ATOM     31  C   UNL     1       5.728   4.883  14.865  0.00  0.00    +0.000 A 
ATOM     32  C   UNL     1       4.657   4.604  15.729  0.00  0.00    +0.000 A 
ATOM     33  C   UNL     1       4.917   4.297  17.081  0.00  0.00    +0.000 A 
ATOM     34  H   UNL     1       7.045   4.106  19.463  0.00  0.00    +0.000 HD
ENDBRANCH  24  25
ENDBRANCH  23  24
ENDBRANCH  22  23
ENDBRANCH   2  22
TORSDOF 9
ENDMDL
MODEL 9
REMARK VINA RESULT:      -7.9      3.189      5.584
REMARK  Name = 
REMARK  9 active torsions:
REMARK  status: ('A' for Active; 'I' for Inactive)
REMARK    1  A    between atoms: N_1  and  C_2
REMARK    2  A    between atoms: C_2  and  C_3
REMARK    3  A    between atoms: C_3  and  C_4
REMARK    4  A    between atoms: C_4  and  N_5
REMARK    5  A    between atoms: C_6  and  S_7
REMARK    6  A    between atoms: S_7  and  C_8
REMARK    7  A    between atoms: C_8  and  C_9
REMARK    8  A    between atoms: C_9  and  C_10
REMARK    9  A    between atoms: C_21  and  C_22
REMARK                            x       y       z     vdW  Elec       q    Type
REMARK                         _______ _______ _______ _____ _____    ______ ____
ROOT
ATOM      1  N   UNL     1       0.631  10.660  19.734  0.00  0.00    +0.000 N 
ATOM      2  C   UNL     1       1.220   9.423  19.578  0.00  0.00    +0.000 A 
ATOM      3  N   UNL     1       1.446   8.890  20.752  0.00  0.00    +0.000 NA
ATOM      4  N   UNL     1       0.932   9.737  21.696  0.00  0.00    +0.000 NA
ATOM      5  C   UNL     1       0.383  10.786  21.098  0.00  0.00    +0.000 A 
ENDROOT
BRANCH   5   6
ATOM      6  C   UNL     1      -0.302  11.866  21.839  0.00  0.00    +0.000 A 
ATOM      7  C   UNL     1       0.130  13.195  21.869  0.00  0.00    +0.000 A 
ATOM      8  C   UNL     1      -0.576  14.174  22.579  0.00  0.00    +0.000 A 
ATOM      9  C   UNL     1      -1.773  13.869  23.238  0.00  0.00    +0.000 A 
ATOM     10  C   UNL     1      -2.507  14.851  23.927  0.00  0.00    +0.000 A 
ATOM     11  C   UNL     1      -3.721  14.539  24.539  0.00  0.00    +0.000 A 
ATOM     12  C   UNL     1      -4.217  13.240  24.465  0.00  0.00    +0.000 A 
ATOM     13  C   UNL     1      -3.492  12.254  23.794  0.00  0.00    +0.000 A 
ATOM     14  C   UNL     1      -2.263  12.549  23.176  0.00  0.00    +0.000 A 
ATOM     15  C   UNL     1      -1.516  11.569  22.489  0.00  0.00    +0.000 A 
ENDBRANCH   5   6
BRANCH   1  16
ATOM     16  C   UNL     1       0.397  11.648  18.696  0.00  0.00    +0.000 C 
BRANCH  16  17
ATOM     17  C   UNL     1      -1.090  11.900  18.429  0.00  0.00    +0.000 C 
BRANCH  17  18
ATOM     18  C   UNL     1      -1.709  10.840  17.517  0.00  0.00    +0.000 C 
BRANCH  18  19
ATOM     19  N   UNL     1      -2.288  11.441  16.320  0.00  0.00    +0.000 NA
ATOM     20  H   UNL     1      -1.607  11.393  15.559  0.00  0.00    +0.000 HD
ATOM     21  H   UNL     1      -2.450  12.439  16.478  0.00  0.00    +0.000 HD
ENDBRANCH  18  19
ENDBRANCH  17  18
ENDBRANCH  16  17
ENDBRANCH   1  16
BRANCH   2  22
ATOM     22  S   UNL     1       1.560   8.678  18.053  0.00  0.00    +0.000 S 
BRANCH  22  23
ATOM     23  C   UNL     1       2.952   7.544  18.413  0.00  0.00    +0.000 C 
BRANCH  23  24
ATOM     24  C   UNL     1       3.600   6.876  17.190  0.00  0.00    +0.000 C 
BRANCH  24  25
ATOM     25  C   UNL     1       3.935   5.430  17.461  0.00  0.00    +0.000 A 
ATOM     26  C   UNL     1       5.206   4.883  17.472  0.00  0.00    +0.000 A 
ATOM     27  N   UNL     1       5.110   3.562  17.816  0.00  0.00    +0.000 N 
ATOM     28  C   UNL     1       3.803   3.235  18.085  0.00  0.00    +0.000 A 
ATOM     29  C   UNL     1       3.256   2.033  18.555  0.00  0.00    +0.000 A 
ATOM     30  C   UNL     1       1.872   1.976  18.734  0.00  0.00    +0.000 A 
ATOM     31  C   UNL     1       1.068   3.062  18.400  0.00  0.00    +0.000 A 
ATOM     32  C   UNL     1       1.631   4.258  17.929  0.00  0.00    +0.000 A 
ATOM     33  C   UNL     1       3.032   4.365  17.800  0.00  0.00    +0.000 A 
ATOM     34  H   UNL     1       5.886   2.920  17.897  0.00  0.00    +0.000 HD
ENDBRANCH  24  25
ENDBRANCH  23  24
ENDBRANCH  22  23
ENDBRANCH   2  22
TORSDOF 9
ENDMDL
