MODEL 1
REMARK VINA RESULT:      -7.2      0.000      0.000
REMARK  Name = 
REMARK  7 active torsions:
REMARK  status: ('A' for Active; 'I' for Inactive)
REMARK    1  A    between atoms: C_1  and  C_2
REMARK    2  A    between atoms: C_6  and  N_7
REMARK    3  A    between atoms: N_7  and  C_8
REMARK    4  A    between atoms: C_8  and  C_9
REMARK    5  A    between atoms: C_10  and  C_11
REMARK    6  A    between atoms: N_13  and  C_14
REMARK    7  A    between atoms: C_15  and  C_16
REMARK                            x       y       z     vdW  Elec       q    Type
REMARK                         _______ _______ _______ _____ _____    ______ ____
ROOT
ATOM      1  N   UNL     1       4.405   2.768  17.515  0.00  0.00    +0.000 N 
ATOM      2  H   UNL     1       5.267   2.529  17.999  0.00  0.00    +0.000 HD
ENDROOT
BRANCH   1   8
ATOM      3  C   UNL     1       1.937   2.575  21.918  0.00  0.00    +0.000 C 
ATOM      4  C   UNL     1       2.020   2.666  20.421  0.00  0.00    +0.000 A 
ATOM      5  N   UNL     1       0.846   2.931  19.790  0.00  0.00    +0.000 NA
ATOM      6  C   UNL     1       0.890   3.079  18.453  0.00  0.00    +0.000 A 
ATOM      7  C   UNL     1       2.056   3.002  17.712  0.00  0.00    +0.000 A 
ATOM      8  C   UNL     1       3.279   2.751  18.348  0.00  0.00    +0.000 A 
ATOM      9  C   UNL     1       3.243   2.529  19.741  0.00  0.00    +0.000 A 
ATOM     10 CL   UNL     1       4.633   2.014  20.646  0.00  0.00    +0.000 Cl
ENDBRANCH   1   8
BRANCH   1  11
ATOM     11  C   UNL     1       4.597   3.767  16.467  0.00  0.00    +0.000 C 
BRANCH  11  12
ATOM     12  C   UNL     1       5.740   4.712  16.680  0.00  0.00    +0.000 A 
ATOM     13  C   UNL     1       6.677   5.137  15.696  0.00  0.00    +0.000 A 
ATOM     14  C   UNL     1       6.756   4.757  14.264  0.00  0.00    +0.000 C 
ATOM     15  N   UNL     1       7.552   6.017  16.193  0.00  0.00    +0.000 NA
ATOM     16  N   UNL     1       7.183   6.168  17.475  0.00  0.00    +0.000 N 
ATOM     17  C   UNL     1       7.949   7.055  18.320  0.00  0.00    +0.000 C 
ATOM     18  C   UNL     1       6.072   5.439  17.815  0.00  0.00    +0.000 A 
ATOM     19  C   UNL     1       5.418   5.510  19.148  0.00  0.00    +0.000 C 
ENDBRANCH  11  12
ENDBRANCH   1  11
TORSDOF 3
ENDMDL
MODEL 2
REMARK VINA RESULT:      -7.1      2.130      5.622
REMARK  Name = 
REMARK  7 active torsions:
REMARK  status: ('A' for Active; 'I' for Inactive)
REMARK    1  A    between atoms: C_1  and  C_2
REMARK    2  A    between atoms: C_6  and  N_7
REMARK    3  A    between atoms: N_7  and  C_8
REMARK    4  A    between atoms: C_8  and  C_9
REMARK    5  A    between atoms: C_10  and  C_11
REMARK    6  A    between atoms: N_13  and  C_14
REMARK    7  A    between atoms: C_15  and  C_16
REMARK                            x       y       z     vdW  Elec       q    Type
REMARK                         _______ _______ _______ _____ _____    ______ ____
ROOT
ATOM      1  N   UNL     1       4.057   3.353  17.347  0.00  0.00    +0.000 N 
ATOM      2  H   UNL     1       4.201   2.404  17.010  0.00  0.00    +0.000 HD
ENDROOT
BRANCH   1   8
ATOM      3  C   UNL     1       7.868   6.597  18.032  0.00  0.00    +0.000 C 
ATOM      4  C   UNL     1       6.902   5.807  17.195  0.00  0.00    +0.000 A 
ATOM      5  N   UNL     1       7.141   5.831  15.857  0.00  0.00    +0.000 NA
ATOM      6  C   UNL     1       6.333   5.086  15.079  0.00  0.00    +0.000 A 
ATOM      7  C   UNL     1       5.311   4.295  15.572  0.00  0.00    +0.000 A 
ATOM      8  C   UNL     1       5.065   4.241  16.950  0.00  0.00    +0.000 A 
ATOM      9  C   UNL     1       5.859   5.065  17.776  0.00  0.00    +0.000 A 
ATOM     10 CL   UNL     1       5.555   5.265  19.474  0.00  0.00    +0.000 Cl
ENDBRANCH   1   8
BRANCH   1  11
ATOM     11  C   UNL     1       2.647   3.731  17.399  0.00  0.00    +0.000 C 
BRANCH  11  12
ATOM     12  C   UNL     1       2.236   4.524  18.602  0.00  0.00    +0.000 A 
ATOM     13  C   UNL     1       1.781   3.999  19.843  0.00  0.00    +0.000 A 
ATOM     14  C   UNL     1       1.599   2.580  20.240  0.00  0.00    +0.000 C 
ATOM     15  N   UNL     1       1.532   4.967  20.730  0.00  0.00    +0.000 NA
ATOM     16  N   UNL     1       1.831   6.102  20.078  0.00  0.00    +0.000 N 
ATOM     17  C   UNL     1       1.651   7.364  20.759  0.00  0.00    +0.000 C 
ATOM     18  C   UNL     1       2.300   5.896  18.806  0.00  0.00    +0.000 A 
ATOM     19  C   UNL     1       2.784   6.988  17.921  0.00  0.00    +0.000 C 
ENDBRANCH  11  12
ENDBRANCH   1  11
TORSDOF 3
ENDMDL
MODEL 3
REMARK VINA RESULT:      -6.9      1.574      1.584
REMARK  Name = 
REMARK  7 active torsions:
REMARK  status: ('A' for Active; 'I' for Inactive)
REMARK    1  A    between atoms: C_1  and  C_2
REMARK    2  A    between atoms: C_6  and  N_7
REMARK    3  A    between atoms: N_7  and  C_8
REMARK    4  A    between atoms: C_8  and  C_9
REMARK    5  A    between atoms: C_10  and  C_11
REMARK    6  A    between atoms: N_13  and  C_14
REMARK    7  A    between atoms: C_15  and  C_16
REMARK                            x       y       z     vdW  Elec       q    Type
REMARK                         _______ _______ _______ _____ _____    ______ ____
ROOT
ATOM      1  N   UNL     1       3.379   4.072  17.056  0.00  0.00    +0.000 N 
ATOM      2  H   UNL     1       2.753   3.664  16.366  0.00  0.00    +0.000 HD
ENDROOT
BRANCH   1   8
ATOM      3  C   UNL     1       1.496   2.807  21.570  0.00  0.00    +0.000 C 
ATOM      4  C   UNL     1       1.842   3.777  20.475  0.00  0.00    +0.000 A 
ATOM      5  N   UNL     1       1.682   5.089  20.792  0.00  0.00    +0.000 NA
ATOM      6  C   UNL     1       2.038   5.991  19.858  0.00  0.00    +0.000 A 
ATOM      7  C   UNL     1       2.572   5.649  18.628  0.00  0.00    +0.000 A 
ATOM      8  C   UNL     1       2.764   4.302  18.293  0.00  0.00    +0.000 A 
ATOM      9  C   UNL     1       2.337   3.341  19.234  0.00  0.00    +0.000 A 
ATOM     10 CL   UNL     1       2.321   1.638  18.895  0.00  0.00    +0.000 Cl
ENDBRANCH   1   8
BRANCH   1  11
ATOM     11  C   UNL     1       4.753   3.593  16.934  0.00  0.00    +0.000 C 
BRANCH  11  12
ATOM     12  C   UNL     1       5.809   4.656  16.940  0.00  0.00    +0.000 A 
ATOM     13  C   UNL     1       6.457   5.207  15.799  0.00  0.00    +0.000 A 
ATOM     14  C   UNL     1       6.258   4.872  14.366  0.00  0.00    +0.000 C 
ATOM     15  N   UNL     1       7.322   6.168  16.136  0.00  0.00    +0.000 NA
ATOM     16  N   UNL     1       7.230   6.246  17.473  0.00  0.00    +0.000 N 
ATOM     17  C   UNL     1       8.066   7.194  18.174  0.00  0.00    +0.000 C 
ATOM     18  C   UNL     1       6.304   5.388  18.010  0.00  0.00    +0.000 A 
ATOM     19  C   UNL     1       5.955   5.354  19.454  0.00  0.00    +0.000 C 
ENDBRANCH  11  12
ENDBRANCH   1  11
TORSDOF 3
ENDMDL
MODEL 4
REMARK VINA RESULT:      -6.7      1.770      2.230
REMARK  Name = 
REMARK  7 active torsions:
REMARK  status: ('A' for Active; 'I' for Inactive)
REMARK    1  A    between atoms: C_1  and  C_2
REMARK    2  A    between atoms: C_6  and  N_7
REMARK    3  A    between atoms: N_7  and  C_8
REMARK    4  A    between atoms: C_8  and  C_9
REMARK    5  A    between atoms: C_10  and  C_11
REMARK    6  A    between atoms: N_13  and  C_14
REMARK    7  A    between atoms: C_15  and  C_16
REMARK                            x       y       z     vdW  Elec       q    Type
REMARK                         _______ _______ _______ _____ _____    ______ ____
ROOT
ATOM      1  N   UNL     1       5.490   3.791  19.088  0.00  0.00    +0.000 N 
ATOM      2  H   UNL     1       6.009   4.087  19.911  0.00  0.00    +0.000 HD
ENDROOT
BRANCH   1   8
ATOM      3  C   UNL     1       0.650   2.352  18.950  0.00  0.00    +0.000 C 
ATOM      4  C   UNL     1       1.759   3.341  19.178  0.00  0.00    +0.000 A 
ATOM      5  N   UNL     1       1.378   4.516  19.745  0.00  0.00    +0.000 NA
ATOM      6  C   UNL     1       2.351   5.405  20.020  0.00  0.00    +0.000 A 
ATOM      7  C   UNL     1       3.694   5.170  19.781  0.00  0.00    +0.000 A 
ATOM      8  C   UNL     1       4.106   3.955  19.217  0.00  0.00    +0.000 A 
ATOM      9  C   UNL     1       3.094   3.037  18.863  0.00  0.00    +0.000 A 
ATOM     10 CL   UNL     1       3.419   1.577  17.980  0.00  0.00    +0.000 Cl
ENDBRANCH   1   8
BRANCH   1  11
ATOM     11  C   UNL     1       6.204   4.053  17.840  0.00  0.00    +0.000 C 
BRANCH  11  12
ATOM     12  C   UNL     1       6.660   5.466  17.644  0.00  0.00    +0.000 A 
ATOM     13  C   UNL     1       6.201   6.370  16.645  0.00  0.00    +0.000 A 
ATOM     14  C   UNL     1       5.193   6.142  15.580  0.00  0.00    +0.000 C 
ATOM     15  N   UNL     1       6.775   7.572  16.762  0.00  0.00    +0.000 NA
ATOM     16  N   UNL     1       7.586   7.453  17.825  0.00  0.00    +0.000 N 
ATOM     17  C   UNL     1       8.385   8.589  18.221  0.00  0.00    +0.000 C 
ATOM     18  C   UNL     1       7.528   6.220  18.424  0.00  0.00    +0.000 A 
ATOM     19  C   UNL     1       8.261   5.875  19.670  0.00  0.00    +0.000 C 
ENDBRANCH  11  12
ENDBRANCH   1  11
TORSDOF 3
ENDMDL
MODEL 5
REMARK VINA RESULT:      -6.7      1.892      3.024
REMARK  Name = 
REMARK  7 active torsions:
REMARK  status: ('A' for Active; 'I' for Inactive)
REMARK    1  A    between atoms: C_1  and  C_2
REMARK    2  A    between atoms: C_6  and  N_7
REMARK    3  A    between atoms: N_7  and  C_8
REMARK    4  A    between atoms: C_8  and  C_9
REMARK    5  A    between atoms: C_10  and  C_11
REMARK    6  A    between atoms: N_13  and  C_14
REMARK    7  A    between atoms: C_15  and  C_16
REMARK                            x       y       z     vdW  Elec       q    Type
REMARK                         _______ _______ _______ _____ _____    ______ ____
ROOT
ATOM      1  N   UNL     1       3.514   4.329  16.822  0.00  0.00    +0.000 N 
ATOM      2  H   UNL     1       2.826   4.138  16.098  0.00  0.00    +0.000 HD
ENDROOT
BRANCH   1   8
ATOM      3  C   UNL     1       1.466   3.070  21.265  0.00  0.00    +0.000 C 
ATOM      4  C   UNL     1       1.955   4.046  20.232  0.00  0.00    +0.000 A 
ATOM      5  N   UNL     1       1.998   5.343  20.636  0.00  0.00    +0.000 NA
ATOM      6  C   UNL     1       2.487   6.240  19.759  0.00  0.00    +0.000 A 
ATOM      7  C   UNL     1       2.961   5.904  18.503  0.00  0.00    +0.000 A 
ATOM      8  C   UNL     1       2.943   4.568  18.079  0.00  0.00    +0.000 A 
ATOM      9  C   UNL     1       2.375   3.623  18.960  0.00  0.00    +0.000 A 
ATOM     10 CL   UNL     1       2.099   1.969  18.510  0.00  0.00    +0.000 Cl
ENDBRANCH   1   8
BRANCH   1  11
ATOM     11  C   UNL     1       4.752   3.574  16.648  0.00  0.00    +0.000 C 
BRANCH  11  12
ATOM     12  C   UNL     1       5.810   4.250  15.832  0.00  0.00    +0.000 A 
ATOM     13  C   UNL     1       6.916   4.992  16.334  0.00  0.00    +0.000 A 
ATOM     14  C   UNL     1       7.281   5.275  17.745  0.00  0.00    +0.000 C 
ATOM     15  N   UNL     1       7.704   5.435  15.350  0.00  0.00    +0.000 NA
ATOM     16  N   UNL     1       7.124   4.981  14.228  0.00  0.00    +0.000 N 
ATOM     17  C   UNL     1       7.724   5.306  12.954  0.00  0.00    +0.000 C 
ATOM     18  C   UNL     1       6.003   4.225  14.457  0.00  0.00    +0.000 A 
ATOM     19  C   UNL     1       5.241   3.536  13.383  0.00  0.00    +0.000 C 
ENDBRANCH  11  12
ENDBRANCH   1  11
TORSDOF 3
ENDMDL
MODEL 6
REMARK VINA RESULT:      -6.7      1.705      2.931
REMARK  Name = 
REMARK  7 active torsions:
REMARK  status: ('A' for Active; 'I' for Inactive)
REMARK    1  A    between atoms: C_1  and  C_2
REMARK    2  A    between atoms: C_6  and  N_7
REMARK    3  A    between atoms: N_7  and  C_8
REMARK    4  A    between atoms: C_8  and  C_9
REMARK    5  A    between atoms: C_10  and  C_11
REMARK    6  A    between atoms: N_13  and  C_14
REMARK    7  A    between atoms: C_15  and  C_16
REMARK                            x       y       z     vdW  Elec       q    Type
REMARK                         _______ _______ _______ _____ _____    ______ ____
ROOT
ATOM      1  N   UNL     1       3.906   4.078  16.673  0.00  0.00    +0.000 N 
ATOM      2  H   UNL     1       3.310   4.527  15.981  0.00  0.00    +0.000 HD
ENDROOT
BRANCH   1   8
ATOM      3  C   UNL     1       2.203   4.320  21.423  0.00  0.00    +0.000 C 
ATOM      4  C   UNL     1       2.348   3.678  20.072  0.00  0.00    +0.000 A 
ATOM      5  N   UNL     1       1.560   2.591  19.859  0.00  0.00    +0.000 NA
ATOM      6  C   UNL     1       1.617   2.024  18.640  0.00  0.00    +0.000 A 
ATOM      7  C   UNL     1       2.404   2.503  17.608  0.00  0.00    +0.000 A 
ATOM      8  C   UNL     1       3.207   3.635  17.803  0.00  0.00    +0.000 A 
ATOM      9  C   UNL     1       3.209   4.205  19.094  0.00  0.00    +0.000 A 
ATOM     10 CL   UNL     1       4.291   5.483  19.554  0.00  0.00    +0.000 Cl
ENDBRANCH   1   8
BRANCH   1  11
ATOM     11  C   UNL     1       5.002   3.321  16.075  0.00  0.00    +0.000 C 
BRANCH  11  12
ATOM     12  C   UNL     1       6.003   4.131  15.310  0.00  0.00    +0.000 A 
ATOM     13  C   UNL     1       6.984   5.000  15.863  0.00  0.00    +0.000 A 
ATOM     14  C   UNL     1       7.248   5.314  17.289  0.00  0.00    +0.000 C 
ATOM     15  N   UNL     1       7.753   5.546  14.915  0.00  0.00    +0.000 NA
ATOM     16  N   UNL     1       7.284   5.032  13.767  0.00  0.00    +0.000 N 
ATOM     17  C   UNL     1       7.894   5.439  12.522  0.00  0.00    +0.000 C 
ATOM     18  C   UNL     1       6.257   4.141  13.944  0.00  0.00    +0.000 A 
ATOM     19  C   UNL     1       5.635   3.371  12.836  0.00  0.00    +0.000 C 
ENDBRANCH  11  12
ENDBRANCH   1  11
TORSDOF 3
ENDMDL
MODEL 7
REMARK VINA RESULT:      -6.7      1.503      1.891
REMARK  Name = 
REMARK  7 active torsions:
REMARK  status: ('A' for Active; 'I' for Inactive)
REMARK    1  A    between atoms: C_1  and  C_2
REMARK    2  A    between atoms: C_6  and  N_7
REMARK    3  A    between atoms: N_7  and  C_8
REMARK    4  A    between atoms: C_8  and  C_9
REMARK    5  A    between atoms: C_10  and  C_11
REMARK    6  A    between atoms: N_13  and  C_14
REMARK    7  A    between atoms: C_15  and  C_16
REMARK                            x       y       z     vdW  Elec       q    Type
REMARK                         _______ _______ _______ _____ _____    ______ ____
ROOT
ATOM      1  N   UNL     1       4.515   2.746  17.364  0.00  0.00    +0.000 N 
ATOM      2  H   UNL     1       5.418   2.282  17.432  0.00  0.00    +0.000 HD
ENDROOT
BRANCH   1   8
ATOM      3  C   UNL     1       0.599   3.694  20.409  0.00  0.00    +0.000 C 
ATOM      4  C   UNL     1       2.006   3.257  20.117  0.00  0.00    +0.000 A 
ATOM      5  N   UNL     1       2.673   2.711  21.168  0.00  0.00    +0.000 NA
ATOM      6  C   UNL     1       3.917   2.253  20.931  0.00  0.00    +0.000 A 
ATOM      7  C   UNL     1       4.522   2.288  19.687  0.00  0.00    +0.000 A 
ATOM      8  C   UNL     1       3.840   2.828  18.588  0.00  0.00    +0.000 A 
ATOM      9  C   UNL     1       2.562   3.371  18.831  0.00  0.00    +0.000 A 
ATOM     10 CL   UNL     1       1.671   4.250  17.626  0.00  0.00    +0.000 Cl
ENDBRANCH   1   8
BRANCH   1  11
ATOM     11  C   UNL     1       4.502   3.826  16.380  0.00  0.00    +0.000 C 
BRANCH  11  12
ATOM     12  C   UNL     1       5.631   4.804  16.483  0.00  0.00    +0.000 A 
ATOM     13  C   UNL     1       6.604   5.078  15.480  0.00  0.00    +0.000 A 
ATOM     14  C   UNL     1       6.739   4.477  14.130  0.00  0.00    +0.000 C 
ATOM     15  N   UNL     1       7.455   6.034  15.863  0.00  0.00    +0.000 NA
ATOM     16  N   UNL     1       7.037   6.382  17.091  0.00  0.00    +0.000 N 
ATOM     17  C   UNL     1       7.766   7.400  17.812  0.00  0.00    +0.000 C 
ATOM     18  C   UNL     1       5.917   5.705  17.501  0.00  0.00    +0.000 A 
ATOM     19  C   UNL     1       5.211   5.979  18.779  0.00  0.00    +0.000 C 
ENDBRANCH  11  12
ENDBRANCH   1  11
TORSDOF 3
ENDMDL
MODEL 8
REMARK VINA RESULT:      -6.7      1.647      5.834
REMARK  Name = 
REMARK  7 active torsions:
REMARK  status: ('A' for Active; 'I' for Inactive)
REMARK    1  A    between atoms: C_1  and  C_2
REMARK    2  A    between atoms: C_6  and  N_7
REMARK    3  A    between atoms: N_7  and  C_8
REMARK    4  A    between atoms: C_8  and  C_9
REMARK    5  A    between atoms: C_10  and  C_11
REMARK    6  A    between atoms: N_13  and  C_14
REMARK    7  A    between atoms: C_15  and  C_16
REMARK                            x       y       z     vdW  Elec       q    Type
REMARK                         _______ _______ _______ _____ _____    ______ ____
ROOT
ATOM      1  N   UNL     1       4.586   3.277  16.976  0.00  0.00    +0.000 N 
ATOM      2  H   UNL     1       4.809   2.387  16.536  0.00  0.00    +0.000 HD
ENDROOT
BRANCH   1   8
ATOM      3  C   UNL     1       7.916   6.887  18.156  0.00  0.00    +0.000 C 
ATOM      4  C   UNL     1       7.147   6.020  17.199  0.00  0.00    +0.000 A 
ATOM      5  N   UNL     1       7.539   6.102  15.901  0.00  0.00    +0.000 NA
ATOM      6  C   UNL     1       6.915   5.297  15.021  0.00  0.00    +0.000 A 
ATOM      7  C   UNL     1       5.933   4.389  15.377  0.00  0.00    +0.000 A 
ATOM      8  C   UNL     1       5.532   4.276  16.715  0.00  0.00    +0.000 A 
ATOM      9  C   UNL     1       6.129   5.158  17.641  0.00  0.00    +0.000 A 
ATOM     10 CL   UNL     1       5.605   5.282  19.292  0.00  0.00    +0.000 Cl
ENDBRANCH   1   8
BRANCH   1  11
ATOM     11  C   UNL     1       3.150   3.542  17.029  0.00  0.00    +0.000 C 
BRANCH  11  12
ATOM     12  C   UNL     1       2.585   3.756  18.400  0.00  0.00    +0.000 A 
ATOM     13  C   UNL     1       2.200   5.002  18.969  0.00  0.00    +0.000 A 
ATOM     14  C   UNL     1       2.266   6.357  18.366  0.00  0.00    +0.000 C 
ATOM     15  N   UNL     1       1.693   4.852  20.196  0.00  0.00    +0.000 NA
ATOM     16  N   UNL     1       1.739   3.528  20.417  0.00  0.00    +0.000 N 
ATOM     17  C   UNL     1       1.274   3.018  21.686  0.00  0.00    +0.000 C 
ATOM     18  C   UNL     1       2.228   2.812  19.354  0.00  0.00    +0.000 A 
ATOM     19  C   UNL     1       2.290   1.328  19.321  0.00  0.00    +0.000 C 
ENDBRANCH  11  12
ENDBRANCH   1  11
TORSDOF 3
ENDMDL
MODEL 9
REMARK VINA RESULT:      -6.6      2.024      3.253
REMARK  Name = 
REMARK  7 active torsions:
REMARK  status: ('A' for Active; 'I' for Inactive)
REMARK    1  A    between atoms: C_1  and  C_2
REMARK    2  A    between atoms: C_6  and  N_7
REMARK    3  A    between atoms: N_7  and  C_8
REMARK    4  A    between atoms: C_8  and  C_9
REMARK    5  A    between atoms: C_10  and  C_11
REMARK    6  A    between atoms: N_13  and  C_14
REMARK    7  A    between atoms: C_15  and  C_16
REMARK                            x       y       z     vdW  Elec       q    Type
REMARK                         _______ _______ _______ _____ _____    ______ ____
ROOT
ATOM      1  N   UNL     1       4.936   3.470  17.700  0.00  0.00    +0.000 N 
ATOM      2  H   UNL     1       5.929   3.560  17.903  0.00  0.00    +0.000 HD
ENDROOT
BRANCH   1   8
ATOM      3  C   UNL     1       1.678   5.972  20.639  0.00  0.00    +0.000 C 
ATOM      4  C   UNL     1       2.557   4.805  20.286  0.00  0.00    +0.000 A 
ATOM      5  N   UNL     1       2.421   3.716  21.088  0.00  0.00    +0.000 NA
ATOM      6  C   UNL     1       3.147   2.628  20.769  0.00  0.00    +0.000 A 
ATOM      7  C   UNL     1       3.986   2.562  19.670  0.00  0.00    +0.000 A 
ATOM      8  C   UNL     1       4.121   3.669  18.821  0.00  0.00    +0.000 A 
ATOM      9  C   UNL     1       3.417   4.839  19.176  0.00  0.00    +0.000 A 
ATOM     10 CL   UNL     1       3.629   6.350  18.346  0.00  0.00    +0.000 Cl
ENDBRANCH   1   8
BRANCH   1  11
ATOM     11  C   UNL     1       4.581   3.953  16.368  0.00  0.00    +0.000 C 
BRANCH  11  12
ATOM     12  C   UNL     1       5.711   4.519  15.565  0.00  0.00    +0.000 A 
ATOM     13  C   UNL     1       6.779   5.320  16.059  0.00  0.00    +0.000 A 
ATOM     14  C   UNL     1       7.027   5.782  17.448  0.00  0.00    +0.000 C 
ATOM     15  N   UNL     1       7.652   5.632  15.096  0.00  0.00    +0.000 NA
ATOM     16  N   UNL     1       7.163   5.036  13.997  0.00  0.00    +0.000 N 
ATOM     17  C   UNL     1       7.871   5.193  12.747  0.00  0.00    +0.000 C 
ATOM     18  C   UNL     1       6.019   4.316  14.226  0.00  0.00    +0.000 A 
ATOM     19  C   UNL     1       5.342   3.494  13.189  0.00  0.00    +0.000 C 
ENDBRANCH  11  12
ENDBRANCH   1  11
TORSDOF 3
ENDMDL
