MODEL 1
REMARK VINA RESULT:      -7.5      0.000      0.000
REMARK  Name = 
REMARK  5 active torsions:
REMARK  status: ('A' for Active; 'I' for Inactive)
REMARK    1  A    between atoms: C_1  and  S_2
REMARK    2  A    between atoms: S_2  and  C_3
REMARK    3  A    between atoms: C_5  and  C_6
REMARK    4  A    between atoms: C_10  and  S_11
REMARK    5  A    between atoms: S_11  and  C_14
REMARK                            x       y       z     vdW  Elec       q    Type
REMARK                         _______ _______ _______ _____ _____    ______ ____
ROOT
ATOM      1  S   UNL     1       3.739   3.548  18.439  0.00  0.00    +0.000 S 
ATOM      2  O   UNL     1       4.281   2.883  19.607  0.00  0.00    +0.000 OA
ATOM      3  O   UNL     1       2.761   2.887  17.595  0.00  0.00    +0.000 OA
ENDROOT
BRANCH   1   4
ATOM      4  C   UNL     1       5.120   4.058  17.453  0.00  0.00    +0.000 A 
ATOM      5  C   UNL     1       5.877   5.160  17.872  0.00  0.00    +0.000 A 
ATOM      6  C   UNL     1       6.778   5.775  16.998  0.00  0.00    +0.000 A 
ATOM      7 BR   UNL     1       7.735   7.311  17.527  0.00  0.00    +0.000 Br
ATOM      8  C   UNL     1       6.879   5.256  15.708  0.00  0.00    +0.000 A 
ATOM      9  N   UNL     1       7.581   5.651  14.595  0.00  0.00    +0.000 N 
ATOM     10  C   UNL     1       7.271   4.796  13.577  0.00  0.00    +0.000 A 
ATOM     11  N   UNL     1       6.434   3.861  13.968  0.00  0.00    +0.000 NA
ATOM     12  C   UNL     1       6.163   4.141  15.285  0.00  0.00    +0.000 A 
ATOM     13  C   UNL     1       5.273   3.510  16.168  0.00  0.00    +0.000 A 
ATOM     14  H   UNL     1       8.181   6.463  14.530  0.00  0.00    +0.000 HD
ENDBRANCH   1   4
BRANCH   1  19
ATOM     15  C   UNL     1       2.356   5.048  20.333  0.00  0.00    +0.000 A 
ATOM     16  S   UNL     1       1.680   6.610  20.570  0.00  0.00    +0.000 S 
ATOM     17  C   UNL     1       2.175   7.160  19.028  0.00  0.00    +0.000 A 
ATOM     18  C   UNL     1       2.808   6.152  18.330  0.00  0.00    +0.000 A 
ATOM     19  C   UNL     1       2.904   4.928  19.072  0.00  0.00    +0.000 A 
BRANCH  17  20
ATOM     20  C   UNL     1       1.932   8.527  18.586  0.00  0.00    +0.000 C 
ATOM     21  N   UNL     1       2.327   8.941  17.421  0.00  0.00    +0.000 NA
ATOM     22  N   UNL     1       1.272   9.457  19.333  0.00  0.00    +0.000 N 
ATOM     23  H   UNL     1       2.815   8.180  16.934  0.00  0.00    +0.000 HD
ATOM     24  H   UNL     1       0.524   9.120  19.923  0.00  0.00    +0.000 HD
ATOM     25  H   UNL     1       1.002  10.252  18.761  0.00  0.00    +0.000 HD
ENDBRANCH  17  20
BRANCH  15  27
ATOM     26  C   UNL     1       1.060   2.707  20.930  0.00  0.00    +0.000 C 
ATOM     27  S   UNL     1       2.289   3.850  21.623  0.00  0.00    +0.000 S 
ENDBRANCH  15  27
ENDBRANCH   1  19
TORSDOF 4
ENDMDL
MODEL 2
REMARK VINA RESULT:      -7.2      2.941      6.281
REMARK  Name = 
REMARK  5 active torsions:
REMARK  status: ('A' for Active; 'I' for Inactive)
REMARK    1  A    between atoms: C_1  and  S_2
REMARK    2  A    between atoms: S_2  and  C_3
REMARK    3  A    between atoms: C_5  and  C_6
REMARK    4  A    between atoms: C_10  and  S_11
REMARK    5  A    between atoms: S_11  and  C_14
REMARK                            x       y       z     vdW  Elec       q    Type
REMARK                         _______ _______ _______ _____ _____    ______ ____
ROOT
ATOM      1  S   UNL     1       2.388   5.448  19.512  0.00  0.00    +0.000 S 
ATOM      2  O   UNL     1       1.563   5.035  18.393  0.00  0.00    +0.000 OA
ATOM      3  O   UNL     1       2.333   4.738  20.776  0.00  0.00    +0.000 OA
ENDROOT
BRANCH   1   4
ATOM      4  C   UNL     1       2.056   7.167  19.786  0.00  0.00    +0.000 A 
ATOM      5  C   UNL     1       1.529   7.563  21.023  0.00  0.00    +0.000 A 
ATOM      6  C   UNL     1       0.983   8.839  21.185  0.00  0.00    +0.000 A 
ATOM      7 BR   UNL     1       0.194   9.347  22.820  0.00  0.00    +0.000 Br
ATOM      8  C   UNL     1       0.976   9.682  20.074  0.00  0.00    +0.000 A 
ATOM      9  N   UNL     1       0.460  10.936  19.858  0.00  0.00    +0.000 N 
ATOM     10  C   UNL     1       0.703  11.272  18.556  0.00  0.00    +0.000 A 
ATOM     11  N   UNL     1       1.364  10.326  17.928  0.00  0.00    +0.000 NA
ATOM     12  C   UNL     1       1.526   9.320  18.849  0.00  0.00    +0.000 A 
ATOM     13  C   UNL     1       2.094   8.046  18.691  0.00  0.00    +0.000 A 
ATOM     14  H   UNL     1      -0.054  11.489  20.530  0.00  0.00    +0.000 HD
ENDBRANCH   1   4
BRANCH   1  19
ATOM     15  C   UNL     1       4.760   4.067  19.047  0.00  0.00    +0.000 A 
ATOM     16  S   UNL     1       6.302   4.265  18.313  0.00  0.00    +0.000 S 
ATOM     17  C   UNL     1       5.960   5.863  17.808  0.00  0.00    +0.000 A 
ATOM     18  C   UNL     1       4.706   6.252  18.232  0.00  0.00    +0.000 A 
ATOM     19  C   UNL     1       4.014   5.225  18.958  0.00  0.00    +0.000 A 
BRANCH  17  20
ATOM     20  C   UNL     1       6.914   6.642  17.030  0.00  0.00    +0.000 C 
ATOM     21  N   UNL     1       7.473   6.156  15.964  0.00  0.00    +0.000 NA
ATOM     22  N   UNL     1       7.281   7.918  17.340  0.00  0.00    +0.000 N 
ATOM     23  H   UNL     1       7.144   5.196  15.812  0.00  0.00    +0.000 HD
ATOM     24  H   UNL     1       6.571   8.508  17.752  0.00  0.00    +0.000 HD
ATOM     25  H   UNL     1       7.757   8.356  16.557  0.00  0.00    +0.000 HD
ENDBRANCH  17  20
BRANCH  15  27
ATOM     26  C   UNL     1       3.361   1.792  18.428  0.00  0.00    +0.000 C 
ATOM     27  S   UNL     1       4.321   2.528  19.782  0.00  0.00    +0.000 S 
ENDBRANCH  15  27
ENDBRANCH   1  19
TORSDOF 4
ENDMDL
MODEL 3
REMARK VINA RESULT:      -7.0      2.726      6.185
REMARK  Name = 
REMARK  5 active torsions:
REMARK  status: ('A' for Active; 'I' for Inactive)
REMARK    1  A    between atoms: C_1  and  S_2
REMARK    2  A    between atoms: S_2  and  C_3
REMARK    3  A    between atoms: C_5  and  C_6
REMARK    4  A    between atoms: C_10  and  S_11
REMARK    5  A    between atoms: S_11  and  C_14
REMARK                            x       y       z     vdW  Elec       q    Type
REMARK                         _______ _______ _______ _____ _____    ______ ____
ROOT
ATOM      1  S   UNL     1       2.462   5.160  19.530  0.00  0.00    +0.000 S 
ATOM      2  O   UNL     1       1.274   4.609  18.907  0.00  0.00    +0.000 OA
ATOM      3  O   UNL     1       2.967   4.613  20.776  0.00  0.00    +0.000 OA
ENDROOT
BRANCH   1   4
ATOM      4  C   UNL     1       2.182   6.899  19.720  0.00  0.00    +0.000 A 
ATOM      5  C   UNL     1       1.592   7.362  20.904  0.00  0.00    +0.000 A 
ATOM      6  C   UNL     1       1.087   8.662  20.983  0.00  0.00    +0.000 A 
ATOM      7 BR   UNL     1       0.214   9.262  22.543  0.00  0.00    +0.000 Br
ATOM      8  C   UNL     1       1.187   9.462  19.845  0.00  0.00    +0.000 A 
ATOM      9  N   UNL     1       0.737  10.726  19.550  0.00  0.00    +0.000 N 
ATOM     10  C   UNL     1       1.078  11.002  18.257  0.00  0.00    +0.000 A 
ATOM     11  N   UNL     1       1.740  10.009  17.708  0.00  0.00    +0.000 NA
ATOM     12  C   UNL     1       1.802   9.033  18.673  0.00  0.00    +0.000 A 
ATOM     13  C   UNL     1       2.327   7.733  18.599  0.00  0.00    +0.000 A 
ATOM     14  H   UNL     1       0.202  11.323  20.166  0.00  0.00    +0.000 HD
ENDBRANCH   1   4
BRANCH   1  19
ATOM     15  C   UNL     1       3.842   3.781  17.544  0.00  0.00    +0.000 A 
ATOM     16  S   UNL     1       5.214   3.927  16.520  0.00  0.00    +0.000 S 
ATOM     17  C   UNL     1       5.622   5.472  17.132  0.00  0.00    +0.000 A 
ATOM     18  C   UNL     1       4.749   5.848  18.131  0.00  0.00    +0.000 A 
ATOM     19  C   UNL     1       3.727   4.871  18.383  0.00  0.00    +0.000 A 
BRANCH  17  20
ATOM     20  C   UNL     1       6.751   6.230  16.609  0.00  0.00    +0.000 C 
ATOM     21  N   UNL     1       7.075   7.386  17.103  0.00  0.00    +0.000 NA
ATOM     22  N   UNL     1       7.551   5.795  15.595  0.00  0.00    +0.000 N 
ATOM     23  H   UNL     1       6.419   7.634  17.853  0.00  0.00    +0.000 HD
ATOM     24  H   UNL     1       7.718   4.799  15.542  0.00  0.00    +0.000 HD
ATOM     25  H   UNL     1       8.404   6.345  15.546  0.00  0.00    +0.000 HD
ENDBRANCH  17  20
BRANCH  15  27
ATOM     26  C   UNL     1       3.560   1.309  18.697  0.00  0.00    +0.000 C 
ATOM     27  S   UNL     1       2.800   2.365  17.430  0.00  0.00    +0.000 S 
ENDBRANCH  15  27
ENDBRANCH   1  19
TORSDOF 4
ENDMDL
MODEL 4
REMARK VINA RESULT:      -6.7      2.439      6.425
REMARK  Name = 
REMARK  5 active torsions:
REMARK  status: ('A' for Active; 'I' for Inactive)
REMARK    1  A    between atoms: C_1  and  S_2
REMARK    2  A    between atoms: S_2  and  C_3
REMARK    3  A    between atoms: C_5  and  C_6
REMARK    4  A    between atoms: C_10  and  S_11
REMARK    5  A    between atoms: S_11  and  C_14
REMARK                            x       y       z     vdW  Elec       q    Type
REMARK                         _______ _______ _______ _____ _____    ______ ____
ROOT
ATOM      1  S   UNL     1       3.280   4.732  18.206  0.00  0.00    +0.000 S 
ATOM      2  O   UNL     1       2.253   4.305  17.276  0.00  0.00    +0.000 OA
ATOM      3  O   UNL     1       3.612   3.927  19.366  0.00  0.00    +0.000 OA
ENDROOT
BRANCH   1   4
ATOM      4  C   UNL     1       2.850   6.369  18.728  0.00  0.00    +0.000 A 
ATOM      5  C   UNL     1       2.155   6.532  19.934  0.00  0.00    +0.000 A 
ATOM      6  C   UNL     1       1.543   7.750  20.242  0.00  0.00    +0.000 A 
ATOM      7 BR   UNL     1       0.533   7.948  21.821  0.00  0.00    +0.000 Br
ATOM      8  C   UNL     1       1.646   8.777  19.304  0.00  0.00    +0.000 A 
ATOM      9  N   UNL     1       1.114  10.042  19.243  0.00  0.00    +0.000 N 
ATOM     10  C   UNL     1       1.508  10.606  18.063  0.00  0.00    +0.000 A 
ATOM     11  N   UNL     1       2.280   9.797  17.373  0.00  0.00    +0.000 NA
ATOM     12  C   UNL     1       2.362   8.646  18.118  0.00  0.00    +0.000 A 
ATOM     13  C   UNL     1       2.994   7.429  17.817  0.00  0.00    +0.000 A 
ATOM     14  H   UNL     1       0.497  10.458  19.926  0.00  0.00    +0.000 HD
ENDBRANCH   1   4
BRANCH   1  19
ATOM     15  C   UNL     1       6.012   4.986  17.733  0.00  0.00    +0.000 A 
ATOM     16  S   UNL     1       7.169   4.855  16.468  0.00  0.00    +0.000 S 
ATOM     17  C   UNL     1       5.990   4.423  15.307  0.00  0.00    +0.000 A 
ATOM     18  C   UNL     1       4.730   4.421  15.868  0.00  0.00    +0.000 A 
ATOM     19  C   UNL     1       4.734   4.758  17.264  0.00  0.00    +0.000 A 
BRANCH  17  20
ATOM     20  C   UNL     1       6.348   4.106  13.932  0.00  0.00    +0.000 C 
ATOM     21  N   UNL     1       7.216   4.817  13.278  0.00  0.00    +0.000 NA
ATOM     22  N   UNL     1       5.830   3.053  13.237  0.00  0.00    +0.000 N 
ATOM     23  H   UNL     1       7.547   5.586  13.873  0.00  0.00    +0.000 HD
ATOM     24  H   UNL     1       5.619   2.218  13.767  0.00  0.00    +0.000 HD
ATOM     25  H   UNL     1       6.377   2.868  12.402  0.00  0.00    +0.000 HD
ENDBRANCH  17  20
BRANCH  15  27
ATOM     26  C   UNL     1       8.056   6.286  19.015  0.00  0.00    +0.000 C 
ATOM     27  S   UNL     1       6.531   5.367  19.372  0.00  0.00    +0.000 S 
ENDBRANCH  15  27
ENDBRANCH   1  19
TORSDOF 4
ENDMDL
MODEL 5
REMARK VINA RESULT:      -6.7      4.918      6.926
REMARK  Name = 
REMARK  5 active torsions:
REMARK  status: ('A' for Active; 'I' for Inactive)
REMARK    1  A    between atoms: C_1  and  S_2
REMARK    2  A    between atoms: S_2  and  C_3
REMARK    3  A    between atoms: C_5  and  C_6
REMARK    4  A    between atoms: C_10  and  S_11
REMARK    5  A    between atoms: S_11  and  C_14
REMARK                            x       y       z     vdW  Elec       q    Type
REMARK                         _______ _______ _______ _____ _____    ______ ____
ROOT
ATOM      1  S   UNL     1       0.489   9.736  21.495  0.00  0.00    +0.000 S 
ATOM      2  O   UNL     1       1.574  10.673  21.711  0.00  0.00    +0.000 OA
ATOM      3  O   UNL     1      -0.225   9.156  22.618  0.00  0.00    +0.000 OA
ENDROOT
BRANCH   1   4
ATOM      4  C   UNL     1       1.127   8.440  20.470  0.00  0.00    +0.000 A 
ATOM      5  C   UNL     1       1.177   7.136  20.983  0.00  0.00    +0.000 A 
ATOM      6  C   UNL     1       1.929   6.149  20.340  0.00  0.00    +0.000 A 
ATOM      7 BR   UNL     1       2.071   4.418  21.073  0.00  0.00    +0.000 Br
ATOM      8  C   UNL     1       2.624   6.517  19.189  0.00  0.00    +0.000 A 
ATOM      9  N   UNL     1       3.501   5.845  18.373  0.00  0.00    +0.000 N 
ATOM     10  C   UNL     1       3.921   6.711  17.404  0.00  0.00    +0.000 A 
ATOM     11  N   UNL     1       3.354   7.889  17.528  0.00  0.00    +0.000 NA
ATOM     12  C   UNL     1       2.558   7.796  18.644  0.00  0.00    +0.000 A 
ATOM     13  C   UNL     1       1.787   8.783  19.278  0.00  0.00    +0.000 A 
ATOM     14  H   UNL     1       3.817   4.893  18.500  0.00  0.00    +0.000 HD
ENDBRANCH   1   4
BRANCH   1  19
ATOM     15  C   UNL     1      -1.354  11.784  21.094  0.00  0.00    +0.000 A 
ATOM     16  S   UNL     1      -2.421  12.409  19.900  0.00  0.00    +0.000 S 
ATOM     17  C   UNL     1      -1.981  11.221  18.750  0.00  0.00    +0.000 A 
ATOM     18  C   UNL     1      -1.067  10.338  19.287  0.00  0.00    +0.000 A 
ATOM     19  C   UNL     1      -0.711  10.649  20.642  0.00  0.00    +0.000 A 
BRANCH  17  20
ATOM     20  C   UNL     1      -2.535  11.214  17.403  0.00  0.00    +0.000 C 
ATOM     21  N   UNL     1      -1.956  10.569  16.438  0.00  0.00    +0.000 NA
ATOM     22  N   UNL     1      -3.687  11.856  17.055  0.00  0.00    +0.000 N 
ATOM     23  H   UNL     1      -1.099  10.124  16.788  0.00  0.00    +0.000 HD
ATOM     24  H   UNL     1      -4.416  11.894  17.755  0.00  0.00    +0.000 HD
ATOM     25  H   UNL     1      -4.020  11.534  16.151  0.00  0.00    +0.000 HD
ENDBRANCH  17  20
BRANCH  15  27
ATOM     26  C   UNL     1      -2.830  12.227  23.360  0.00  0.00    +0.000 C 
ATOM     27  S   UNL     1      -1.199  12.590  22.651  0.00  0.00    +0.000 S 
ENDBRANCH  15  27
ENDBRANCH   1  19
TORSDOF 4
ENDMDL
MODEL 6
REMARK VINA RESULT:      -6.6      2.965      4.241
REMARK  Name = 
REMARK  5 active torsions:
REMARK  status: ('A' for Active; 'I' for Inactive)
REMARK    1  A    between atoms: C_1  and  S_2
REMARK    2  A    between atoms: S_2  and  C_3
REMARK    3  A    between atoms: C_5  and  C_6
REMARK    4  A    between atoms: C_10  and  S_11
REMARK    5  A    between atoms: S_11  and  C_14
REMARK                            x       y       z     vdW  Elec       q    Type
REMARK                         _______ _______ _______ _____ _____    ______ ____
ROOT
ATOM      1  S   UNL     1       3.129   4.154  17.609  0.00  0.00    +0.000 S 
ATOM      2  O   UNL     1       2.408   3.238  16.748  0.00  0.00    +0.000 OA
ATOM      3  O   UNL     1       2.535   5.415  18.014  0.00  0.00    +0.000 OA
ENDROOT
BRANCH   1   4
ATOM      4  C   UNL     1       4.693   4.461  16.837  0.00  0.00    +0.000 A 
ATOM      5  C   UNL     1       5.511   5.477  17.349  0.00  0.00    +0.000 A 
ATOM      6  C   UNL     1       6.601   5.950  16.613  0.00  0.00    +0.000 A 
ATOM      7 BR   UNL     1       7.652   7.376  17.258  0.00  0.00    +0.000 Br
ATOM      8  C   UNL     1       6.827   5.380  15.360  0.00  0.00    +0.000 A 
ATOM      9  N   UNL     1       7.730   5.651  14.361  0.00  0.00    +0.000 N 
ATOM     10  C   UNL     1       7.470   4.806  13.320  0.00  0.00    +0.000 A 
ATOM     11  N   UNL     1       6.475   3.992  13.593  0.00  0.00    +0.000 NA
ATOM     12  C   UNL     1       6.048   4.347  14.850  0.00  0.00    +0.000 A 
ATOM     13  C   UNL     1       4.965   3.857  15.598  0.00  0.00    +0.000 A 
ATOM     14  H   UNL     1       8.428   6.382  14.376  0.00  0.00    +0.000 HD
ENDBRANCH   1   4
BRANCH   1  19
ATOM     15  C   UNL     1       2.468   3.243  20.156  0.00  0.00    +0.000 A 
ATOM     16  S   UNL     1       3.043   2.199  21.395  0.00  0.00    +0.000 S 
ATOM     17  C   UNL     1       4.421   1.735  20.493  0.00  0.00    +0.000 A 
ATOM     18  C   UNL     1       4.461   2.400  19.285  0.00  0.00    +0.000 A 
ATOM     19  C   UNL     1       3.344   3.281  19.090  0.00  0.00    +0.000 A 
BRANCH  17  20
ATOM     20  C   UNL     1       5.374   0.756  20.998  0.00  0.00    +0.000 C 
ATOM     21  N   UNL     1       5.935   0.897  22.161  0.00  0.00    +0.000 NA
ATOM     22  N   UNL     1       5.736  -0.369  20.319  0.00  0.00    +0.000 N 
ATOM     23  H   UNL     1       5.609   1.768  22.595  0.00  0.00    +0.000 HD
ATOM     24  H   UNL     1       5.024  -0.805  19.749  0.00  0.00    +0.000 HD
ATOM     25  H   UNL     1       6.212  -1.023  20.933  0.00  0.00    +0.000 HD
ENDBRANCH  17  20
BRANCH  15  27
ATOM     26  C   UNL     1       1.543   5.702  20.938  0.00  0.00    +0.000 C 
ATOM     27  S   UNL     1       0.939   4.093  20.354  0.00  0.00    +0.000 S 
ENDBRANCH  15  27
ENDBRANCH   1  19
TORSDOF 4
ENDMDL
MODEL 7
REMARK VINA RESULT:      -6.6      2.499      6.426
REMARK  Name = 
REMARK  5 active torsions:
REMARK  status: ('A' for Active; 'I' for Inactive)
REMARK    1  A    between atoms: C_1  and  S_2
REMARK    2  A    between atoms: S_2  and  C_3
REMARK    3  A    between atoms: C_5  and  C_6
REMARK    4  A    between atoms: C_10  and  S_11
REMARK    5  A    between atoms: S_11  and  C_14
REMARK                            x       y       z     vdW  Elec       q    Type
REMARK                         _______ _______ _______ _____ _____    ______ ____
ROOT
ATOM      1  S   UNL     1       4.271   4.269  18.074  0.00  0.00    +0.000 S 
ATOM      2  O   UNL     1       3.157   3.470  17.605  0.00  0.00    +0.000 OA
ATOM      3  O   UNL     1       5.149   3.776  19.118  0.00  0.00    +0.000 OA
ENDROOT
BRANCH   1   4
ATOM      4  C   UNL     1       3.608   5.841  18.555  0.00  0.00    +0.000 A 
ATOM      5  C   UNL     1       2.825   5.916  19.714  0.00  0.00    +0.000 A 
ATOM      6  C   UNL     1       2.047   7.048  19.973  0.00  0.00    +0.000 A 
ATOM      7 BR   UNL     1       0.924   7.119  21.485  0.00  0.00    +0.000 Br
ATOM      8  C   UNL     1       2.079   8.079  19.034  0.00  0.00    +0.000 A 
ATOM      9  N   UNL     1       1.398   9.267  18.929  0.00  0.00    +0.000 N 
ATOM     10  C   UNL     1       1.791   9.876  17.771  0.00  0.00    +0.000 A 
ATOM     11  N   UNL     1       2.700   9.169  17.137  0.00  0.00    +0.000 NA
ATOM     12  C   UNL     1       2.878   8.038  17.896  0.00  0.00    +0.000 A 
ATOM     13  C   UNL     1       3.674   6.909  17.645  0.00  0.00    +0.000 A 
ATOM     14  H   UNL     1       0.693   9.604  19.570  0.00  0.00    +0.000 HD
ENDBRANCH   1   4
BRANCH   1  19
ATOM     15  C   UNL     1       6.565   4.985  16.668  0.00  0.00    +0.000 A 
ATOM     16  S   UNL     1       7.252   4.899  15.095  0.00  0.00    +0.000 S 
ATOM     17  C   UNL     1       5.899   4.074  14.448  0.00  0.00    +0.000 A 
ATOM     18  C   UNL     1       4.924   3.907  15.409  0.00  0.00    +0.000 A 
ATOM     19  C   UNL     1       5.296   4.442  16.688  0.00  0.00    +0.000 A 
BRANCH  17  20
ATOM     20  C   UNL     1       5.862   3.633  13.060  0.00  0.00    +0.000 C 
ATOM     21  N   UNL     1       6.945   3.295  12.430  0.00  0.00    +0.000 NA
ATOM     22  N   UNL     1       4.716   3.526  12.330  0.00  0.00    +0.000 N 
ATOM     23  H   UNL     1       7.754   3.411  13.051  0.00  0.00    +0.000 HD
ATOM     24  H   UNL     1       3.883   3.247  12.830  0.00  0.00    +0.000 HD
ATOM     25  H   UNL     1       4.875   2.984  11.486  0.00  0.00    +0.000 HD
ENDBRANCH  17  20
BRANCH  15  27
ATOM     26  C   UNL     1       7.491   7.438  17.468  0.00  0.00    +0.000 C 
ATOM     27  S   UNL     1       7.477   5.700  17.994  0.00  0.00    +0.000 S 
ENDBRANCH  15  27
ENDBRANCH   1  19
TORSDOF 4
ENDMDL
MODEL 8
REMARK VINA RESULT:      -6.4      4.649      6.812
REMARK  Name = 
REMARK  5 active torsions:
REMARK  status: ('A' for Active; 'I' for Inactive)
REMARK    1  A    between atoms: C_1  and  S_2
REMARK    2  A    between atoms: S_2  and  C_3
REMARK    3  A    between atoms: C_5  and  C_6
REMARK    4  A    between atoms: C_10  and  S_11
REMARK    5  A    between atoms: S_11  and  C_14
REMARK                            x       y       z     vdW  Elec       q    Type
REMARK                         _______ _______ _______ _____ _____    ______ ____
ROOT
ATOM      1  S   UNL     1       0.467   9.576  21.091  0.00  0.00    +0.000 S 
ATOM      2  O   UNL     1       1.537  10.256  21.794  0.00  0.00    +0.000 OA
ATOM      3  O   UNL     1      -0.698   9.088  21.806  0.00  0.00    +0.000 OA
ENDROOT
BRANCH   1   4
ATOM      4  C   UNL     1       1.211   8.240  20.195  0.00  0.00    +0.000 A 
ATOM      5  C   UNL     1       1.270   6.976  20.796  0.00  0.00    +0.000 A 
ATOM      6  C   UNL     1       2.092   5.977  20.267  0.00  0.00    +0.000 A 
ATOM      7 BR   UNL     1       2.244   4.303  21.121  0.00  0.00    +0.000 Br
ATOM      8  C   UNL     1       2.847   6.295  19.138  0.00  0.00    +0.000 A 
ATOM      9  N   UNL     1       3.794   5.604  18.424  0.00  0.00    +0.000 N 
ATOM     10  C   UNL     1       4.247   6.421  17.427  0.00  0.00    +0.000 A 
ATOM     11  N   UNL     1       3.635   7.583  17.438  0.00  0.00    +0.000 NA
ATOM     12  C   UNL     1       2.774   7.533  18.507  0.00  0.00    +0.000 A 
ATOM     13  C   UNL     1       1.933   8.530  19.026  0.00  0.00    +0.000 A 
ATOM     14  H   UNL     1       4.133   4.675  18.633  0.00  0.00    +0.000 HD
ENDBRANCH   1   4
BRANCH   1  19
ATOM     15  C   UNL     1       0.360  12.023  19.769  0.00  0.00    +0.000 A 
ATOM     16  S   UNL     1      -0.533  12.851  18.556  0.00  0.00    +0.000 S 
ATOM     17  C   UNL     1      -1.567  11.518  18.276  0.00  0.00    +0.000 A 
ATOM     18  C   UNL     1      -1.261  10.475  19.126  0.00  0.00    +0.000 A 
ATOM     19  C   UNL     1      -0.159  10.765  19.999  0.00  0.00    +0.000 A 
BRANCH  17  20
ATOM     20  C   UNL     1      -2.604  11.553  17.253  0.00  0.00    +0.000 C 
ATOM     21  N   UNL     1      -3.824  11.893  17.539  0.00  0.00    +0.000 NA
ATOM     22  N   UNL     1      -2.384  11.256  15.941  0.00  0.00    +0.000 N 
ATOM     23  H   UNL     1      -3.898  12.092  18.543  0.00  0.00    +0.000 HD
ATOM     24  H   UNL     1      -1.481  11.510  15.562  0.00  0.00    +0.000 HD
ATOM     25  H   UNL     1      -3.160  11.569  15.365  0.00  0.00    +0.000 HD
ENDBRANCH  17  20
BRANCH  15  27
ATOM     26  C   UNL     1       2.586  13.466  19.075  0.00  0.00    +0.000 C 
ATOM     27  S   UNL     1       1.740  12.802  20.538  0.00  0.00    +0.000 S 
ENDBRANCH  15  27
ENDBRANCH   1  19
TORSDOF 4
ENDMDL
MODEL 9
REMARK VINA RESULT:      -6.3      4.497      6.638
REMARK  Name = 
REMARK  5 active torsions:
REMARK  status: ('A' for Active; 'I' for Inactive)
REMARK    1  A    between atoms: C_1  and  S_2
REMARK    2  A    between atoms: S_2  and  C_3
REMARK    3  A    between atoms: C_5  and  C_6
REMARK    4  A    between atoms: C_10  and  S_11
REMARK    5  A    between atoms: S_11  and  C_14
REMARK                            x       y       z     vdW  Elec       q    Type
REMARK                         _______ _______ _______ _____ _____    ______ ____
ROOT
ATOM      1  S   UNL     1       1.516   9.650  18.112  0.00  0.00    +0.000 S 
ATOM      2  O   UNL     1       0.268   9.253  17.491  0.00  0.00    +0.000 OA
ATOM      3  O   UNL     1       2.450  10.514  17.414  0.00  0.00    +0.000 OA
ENDROOT
BRANCH   1   4
ATOM      4  C   UNL     1       2.342   8.161  18.601  0.00  0.00    +0.000 A 
ATOM      5  C   UNL     1       3.273   7.588  17.726  0.00  0.00    +0.000 A 
ATOM      6  C   UNL     1       3.726   6.281  17.928  0.00  0.00    +0.000 A 
ATOM      7 BR   UNL     1       4.912   5.474  16.704  0.00  0.00    +0.000 Br
ATOM      8  C   UNL     1       3.209   5.582  19.018  0.00  0.00    +0.000 A 
ATOM      9  N   UNL     1       3.365   4.290  19.457  0.00  0.00    +0.000 N 
ATOM     10  C   UNL     1       2.581   4.125  20.563  0.00  0.00    +0.000 A 
ATOM     11  N   UNL     1       1.950   5.233  20.879  0.00  0.00    +0.000 NA
ATOM     12  C   UNL     1       2.312   6.146  19.918  0.00  0.00    +0.000 A 
ATOM     13  C   UNL     1       1.871   7.466  19.728  0.00  0.00    +0.000 A 
ATOM     14  H   UNL     1       3.922   3.575  19.009  0.00  0.00    +0.000 HD
ENDBRANCH   1   4
BRANCH   1  19
ATOM     15  C   UNL     1       1.054  11.938  19.631  0.00  0.00    +0.000 A 
ATOM     16  S   UNL     1       0.432  12.429  21.156  0.00  0.00    +0.000 S 
ATOM     17  C   UNL     1       0.067  10.825  21.628  0.00  0.00    +0.000 A 
ATOM     18  C   UNL     1       0.455   9.929  20.653  0.00  0.00    +0.000 A 
ATOM     19  C   UNL     1       1.037  10.563  19.505  0.00  0.00    +0.000 A 
BRANCH  17  20
ATOM     20  C   UNL     1      -0.575  10.528  22.901  0.00  0.00    +0.000 C 
ATOM     21  N   UNL     1      -0.053   9.686  23.740  0.00  0.00    +0.000 NA
ATOM     22  N   UNL     1      -1.738  11.105  23.316  0.00  0.00    +0.000 N 
ATOM     23  H   UNL     1       0.812   9.299  23.345  0.00  0.00    +0.000 HD
ATOM     24  H   UNL     1      -1.895  12.064  23.038  0.00  0.00    +0.000 HD
ATOM     25  H   UNL     1      -1.884  10.949  24.309  0.00  0.00    +0.000 HD
ENDBRANCH  17  20
BRANCH  15  27
ATOM     26  C   UNL     1       2.936  13.921  19.435  0.00  0.00    +0.000 C 
ATOM     27  S   UNL     1       1.608  13.143  18.472  0.00  0.00    +0.000 S 
ENDBRANCH  15  27
ENDBRANCH   1  19
TORSDOF 4
ENDMDL
