MODEL 1
REMARK VINA RESULT:      -7.5      0.000      0.000
REMARK  Name = 
REMARK  16 active torsions:
REMARK  status: ('A' for Active; 'I' for Inactive)
REMARK    1  A    between atoms: C_1  and  C_2
REMARK    2  A    between atoms: C_3  and  O_4
REMARK    3  A    between atoms: O_4  and  C_5
REMARK    4  A    between atoms: C_5  and  C_6
REMARK    5  A    between atoms: C_6  and  C_7
REMARK    6  A    between atoms: C_7  and  C_8
REMARK    7  A    between atoms: C_8  and  O_9
REMARK    8  A    between atoms: O_9  and  C_10
REMARK    9  A    between atoms: C_13  and  C_14
REMARK   10  A    between atoms: C_14  and  O_16
REMARK   11  A    between atoms: C_22  and  C_23
REMARK   12  A    between atoms: C_23  and  C_25
REMARK   13  A    between atoms: C_25  and  C_26
REMARK   14  A    between atoms: C_26  and  C_27
REMARK   15  A    between atoms: C_26  and  C_28
REMARK   16  A    between atoms: C_29  and  C_30
REMARK                            x       y       z     vdW  Elec       q    Type
REMARK                         _______ _______ _______ _____ _____    ______ ____
ROOT
ATOM      1  C   UNL     1       1.830   4.524  21.171  0.00  0.00    +0.000 C 
ENDROOT
BRANCH   1   2
ATOM      2  O   UNL     1       2.496   5.241  20.158  0.00  0.00    +0.000 OA
BRANCH   2   5
ATOM      3  C   UNL     1       3.178   7.210  17.667  0.00  0.00    +0.000 C 
ATOM      4  C   UNL     1       2.362   7.471  18.920  0.00  0.00    +0.000 A 
ATOM      5  C   UNL     1       2.126   6.560  19.983  0.00  0.00    +0.000 A 
ATOM      6  C   UNL     1       1.377   6.988  21.086  0.00  0.00    +0.000 A 
ATOM      7  C   UNL     1       0.872   8.283  21.175  0.00  0.00    +0.000 A 
ATOM      8  C   UNL     1       1.078   9.204  20.143  0.00  0.00    +0.000 A 
ATOM      9  C   UNL     1       1.779   8.794  18.986  0.00  0.00    +0.000 A 
ATOM     10  C   UNL     1       1.972   9.723  17.799  0.00  0.00    +0.000 C 
BRANCH   8  11
ATOM     11  C   UNL     1       0.509  10.581  20.313  0.00  0.00    +0.000 C 
ATOM     12  O   UNL     1       1.185  11.577  20.071  0.00  0.00    +0.000 OA
BRANCH  11  13
ATOM     13  C   UNL     1      -0.938  10.728  20.766  0.00  0.00    +0.000 C 
BRANCH  13  14
ATOM     14  C   UNL     1      -1.167  12.087  21.446  0.00  0.00    +0.000 C 
ATOM     15  C   UNL     1      -2.156  12.961  20.670  0.00  0.00    +0.000 C 
ATOM     16  C   UNL     1      -1.664  11.891  22.877  0.00  0.00    +0.000 C 
ENDBRANCH  13  14
ENDBRANCH  11  13
ENDBRANCH   8  11
ENDBRANCH   2   5
ENDBRANCH   1   2
BRANCH   1  17
ATOM     17  C   UNL     1       1.147   3.237  20.715  0.00  0.00    +0.000 C 
BRANCH  17  18
ATOM     18  C   UNL     1       1.155   3.158  19.174  0.00  0.00    +0.000 C 
BRANCH  18  19
ATOM     19  C   UNL     1       2.093   2.062  18.659  0.00  0.00    +0.000 C 
BRANCH  19  20
ATOM     20  O   UNL     1       3.425   2.231  19.148  0.00  0.00    +0.000 OA
BRANCH  20  21
ATOM     21  C   UNL     1       4.222   3.029  18.364  0.00  0.00    +0.000 A 
ATOM     22  C   UNL     1       4.157   3.139  16.977  0.00  0.00    +0.000 A 
ATOM     23  C   UNL     1       5.005   4.009  16.292  0.00  0.00    +0.000 A 
ATOM     24  C   UNL     1       5.949   4.798  16.973  0.00  0.00    +0.000 A 
ATOM     25  C   UNL     1       6.023   4.675  18.366  0.00  0.00    +0.000 A 
ATOM     26 CL   UNL     1       7.128   5.567  19.353  0.00  0.00    +0.000 Cl
ATOM     27  C   UNL     1       5.166   3.793  19.054  0.00  0.00    +0.000 A 
BRANCH  24  28
ATOM     28  C   UNL     1       6.768   5.695  16.094  0.00  0.00    +0.000 C 
ATOM     29  O   UNL     1       6.771   5.573  14.880  0.00  0.00    +0.000 OA
BRANCH  28  30
ATOM     30  O   UNL     1       7.503   6.647  16.699  0.00  0.00    +0.000 OA
ATOM     31  H   UNL     1       8.022   7.228  16.113  0.00  0.00    +0.000 HD
ENDBRANCH  28  30
ENDBRANCH  24  28
ENDBRANCH  20  21
ENDBRANCH  19  20
ENDBRANCH  18  19
ENDBRANCH  17  18
ENDBRANCH   1  17
TORSDOF 12
ENDMDL
MODEL 2
REMARK VINA RESULT:      -7.4      0.989      1.199
REMARK  Name = 
REMARK  16 active torsions:
REMARK  status: ('A' for Active; 'I' for Inactive)
REMARK    1  A    between atoms: C_1  and  C_2
REMARK    2  A    between atoms: C_3  and  O_4
REMARK    3  A    between atoms: O_4  and  C_5
REMARK    4  A    between atoms: C_5  and  C_6
REMARK    5  A    between atoms: C_6  and  C_7
REMARK    6  A    between atoms: C_7  and  C_8
REMARK    7  A    between atoms: C_8  and  O_9
REMARK    8  A    between atoms: O_9  and  C_10
REMARK    9  A    between atoms: C_13  and  C_14
REMARK   10  A    between atoms: C_14  and  O_16
REMARK   11  A    between atoms: C_22  and  C_23
REMARK   12  A    between atoms: C_23  and  C_25
REMARK   13  A    between atoms: C_25  and  C_26
REMARK   14  A    between atoms: C_26  and  C_27
REMARK   15  A    between atoms: C_26  and  C_28
REMARK   16  A    between atoms: C_29  and  C_30
REMARK                            x       y       z     vdW  Elec       q    Type
REMARK                         _______ _______ _______ _____ _____    ______ ____
ROOT
ATOM      1  C   UNL     1       0.991   4.362  20.229  0.00  0.00    +0.000 C 
ENDROOT
BRANCH   1   2
ATOM      2  O   UNL     1       2.014   5.261  20.587  0.00  0.00    +0.000 OA
BRANCH   2   5
ATOM      3  C   UNL     1       2.897   6.912  17.933  0.00  0.00    +0.000 C 
ATOM      4  C   UNL     1       2.132   7.376  19.159  0.00  0.00    +0.000 A 
ATOM      5  C   UNL     1       1.800   6.594  20.297  0.00  0.00    +0.000 A 
ATOM      6  C   UNL     1       1.119   7.202  21.359  0.00  0.00    +0.000 A 
ATOM      7  C   UNL     1       0.772   8.551  21.334  0.00  0.00    +0.000 A 
ATOM      8  C   UNL     1       1.075   9.348  20.227  0.00  0.00    +0.000 A 
ATOM      9  C   UNL     1       1.710   8.759  19.109  0.00  0.00    +0.000 A 
ATOM     10  C   UNL     1       1.999   9.552  17.846  0.00  0.00    +0.000 C 
BRANCH   8  11
ATOM     11  C   UNL     1       0.673  10.792  20.276  0.00  0.00    +0.000 C 
ATOM     12  O   UNL     1       1.475  11.678  19.993  0.00  0.00    +0.000 OA
BRANCH  11  13
ATOM     13  C   UNL     1      -0.758  11.146  20.655  0.00  0.00    +0.000 C 
BRANCH  13  14
ATOM     14  C   UNL     1      -0.801  11.929  21.977  0.00  0.00    +0.000 C 
ATOM     15  C   UNL     1      -1.642  13.204  21.865  0.00  0.00    +0.000 C 
ATOM     16  C   UNL     1      -1.344  11.049  23.102  0.00  0.00    +0.000 C 
ENDBRANCH  13  14
ENDBRANCH  11  13
ENDBRANCH   8  11
ENDBRANCH   2   5
ENDBRANCH   1   2
BRANCH   1  17
ATOM     17  C   UNL     1       1.373   2.885  20.288  0.00  0.00    +0.000 C 
BRANCH  17  18
ATOM     18  C   UNL     1       2.635   2.705  21.158  0.00  0.00    +0.000 C 
BRANCH  18  19
ATOM     19  C   UNL     1       3.869   2.365  20.316  0.00  0.00    +0.000 C 
BRANCH  19  20
ATOM     20  O   UNL     1       4.830   3.421  20.333  0.00  0.00    +0.000 OA
BRANCH  20  21
ATOM     21  C   UNL     1       5.139   3.931  19.096  0.00  0.00    +0.000 A 
ATOM     22  C   UNL     1       4.561   3.549  17.887  0.00  0.00    +0.000 A 
ATOM     23  C   UNL     1       4.938   4.163  16.693  0.00  0.00    +0.000 A 
ATOM     24  C   UNL     1       5.910   5.179  16.667  0.00  0.00    +0.000 A 
ATOM     25  C   UNL     1       6.501   5.552  17.881  0.00  0.00    +0.000 A 
ATOM     26 CL   UNL     1       7.711   6.778  18.025  0.00  0.00    +0.000 Cl
ATOM     27  C   UNL     1       6.117   4.928  19.085  0.00  0.00    +0.000 A 
BRANCH  24  28
ATOM     28  C   UNL     1       6.186   5.749  15.308  0.00  0.00    +0.000 C 
ATOM     29  O   UNL     1       5.332   6.358  14.684  0.00  0.00    +0.000 OA
BRANCH  28  30
ATOM     30  O   UNL     1       7.420   5.565  14.802  0.00  0.00    +0.000 OA
ATOM     31  H   UNL     1       7.473   5.049  13.976  0.00  0.00    +0.000 HD
ENDBRANCH  28  30
ENDBRANCH  24  28
ENDBRANCH  20  21
ENDBRANCH  19  20
ENDBRANCH  18  19
ENDBRANCH  17  18
ENDBRANCH   1  17
TORSDOF 12
ENDMDL
MODEL 3
REMARK VINA RESULT:      -7.3      1.319      1.756
REMARK  Name = 
REMARK  16 active torsions:
REMARK  status: ('A' for Active; 'I' for Inactive)
REMARK    1  A    between atoms: C_1  and  C_2
REMARK    2  A    between atoms: C_3  and  O_4
REMARK    3  A    between atoms: O_4  and  C_5
REMARK    4  A    between atoms: C_5  and  C_6
REMARK    5  A    between atoms: C_6  and  C_7
REMARK    6  A    between atoms: C_7  and  C_8
REMARK    7  A    between atoms: C_8  and  O_9
REMARK    8  A    between atoms: O_9  and  C_10
REMARK    9  A    between atoms: C_13  and  C_14
REMARK   10  A    between atoms: C_14  and  O_16
REMARK   11  A    between atoms: C_22  and  C_23
REMARK   12  A    between atoms: C_23  and  C_25
REMARK   13  A    between atoms: C_25  and  C_26
REMARK   14  A    between atoms: C_26  and  C_27
REMARK   15  A    between atoms: C_26  and  C_28
REMARK   16  A    between atoms: C_29  and  C_30
REMARK                            x       y       z     vdW  Elec       q    Type
REMARK                         _______ _______ _______ _____ _____    ______ ____
ROOT
ATOM      1  C   UNL     1       1.478   4.712  19.761  0.00  0.00    +0.000 C 
ENDROOT
BRANCH   1   2
ATOM      2  O   UNL     1       2.123   5.727  20.493  0.00  0.00    +0.000 OA
BRANCH   2   5
ATOM      3  C   UNL     1       3.088   7.492  17.942  0.00  0.00    +0.000 C 
ATOM      4  C   UNL     1       2.148   7.854  19.078  0.00  0.00    +0.000 A 
ATOM      5  C   UNL     1       1.790   7.030  20.178  0.00  0.00    +0.000 A 
ATOM      6  C   UNL     1       0.934   7.547  21.159  0.00  0.00    +0.000 A 
ATOM      7  C   UNL     1       0.440   8.848  21.092  0.00  0.00    +0.000 A 
ATOM      8  C   UNL     1       0.765   9.683  20.020  0.00  0.00    +0.000 A 
ATOM      9  C   UNL     1       1.578   9.181  18.979  0.00  0.00    +0.000 A 
ATOM     10  C   UNL     1       1.907  10.012  17.751  0.00  0.00    +0.000 C 
BRANCH   8  11
ATOM     11  C   UNL     1       0.199  11.072  20.021  0.00  0.00    +0.000 C 
ATOM     12  O   UNL     1      -0.595  11.429  19.155  0.00  0.00    +0.000 OA
BRANCH  11  13
ATOM     13  C   UNL     1       0.600  12.030  21.135  0.00  0.00    +0.000 C 
BRANCH  13  14
ATOM     14  C   UNL     1      -0.639  12.621  21.827  0.00  0.00    +0.000 C 
ATOM     15  C   UNL     1      -1.208  11.680  22.892  0.00  0.00    +0.000 C 
ATOM     16  C   UNL     1      -0.305  13.973  22.455  0.00  0.00    +0.000 C 
ENDBRANCH  13  14
ENDBRANCH  11  13
ENDBRANCH   8  11
ENDBRANCH   2   5
ENDBRANCH   1   2
BRANCH   1  17
ATOM     17  C   UNL     1       1.492   3.331  20.411  0.00  0.00    +0.000 C 
BRANCH  17  18
ATOM     18  C   UNL     1       1.430   2.239  19.323  0.00  0.00    +0.000 C 
BRANCH  18  19
ATOM     19  C   UNL     1       2.791   2.014  18.656  0.00  0.00    +0.000 C 
BRANCH  19  20
ATOM     20  O   UNL     1       3.861   2.534  19.447  0.00  0.00    +0.000 OA
BRANCH  20  21
ATOM     21  C   UNL     1       4.606   3.508  18.829  0.00  0.00    +0.000 A 
ATOM     22  C   UNL     1       5.387   4.469  19.468  0.00  0.00    +0.000 A 
ATOM     23  C   UNL     1       6.126   5.392  18.728  0.00  0.00    +0.000 A 
ATOM     24  C   UNL     1       6.107   5.386  17.321  0.00  0.00    +0.000 A 
ATOM     25  C   UNL     1       5.310   4.428  16.681  0.00  0.00    +0.000 A 
ATOM     26 CL   UNL     1       5.172   4.285  14.963  0.00  0.00    +0.000 Cl
ATOM     27  C   UNL     1       4.564   3.499  17.433  0.00  0.00    +0.000 A 
BRANCH  24  28
ATOM     28  C   UNL     1       6.971   6.428  16.677  0.00  0.00    +0.000 C 
ATOM     29  O   UNL     1       6.998   7.578  17.084  0.00  0.00    +0.000 OA
BRANCH  28  30
ATOM     30  O   UNL     1       7.722   6.044  15.628  0.00  0.00    +0.000 OA
ATOM     31  H   UNL     1       7.444   5.225  15.177  0.00  0.00    +0.000 HD
ENDBRANCH  28  30
ENDBRANCH  24  28
ENDBRANCH  20  21
ENDBRANCH  19  20
ENDBRANCH  18  19
ENDBRANCH  17  18
ENDBRANCH   1  17
TORSDOF 12
ENDMDL
MODEL 4
REMARK VINA RESULT:      -7.2      1.772      2.895
REMARK  Name = 
REMARK  16 active torsions:
REMARK  status: ('A' for Active; 'I' for Inactive)
REMARK    1  A    between atoms: C_1  and  C_2
REMARK    2  A    between atoms: C_3  and  O_4
REMARK    3  A    between atoms: O_4  and  C_5
REMARK    4  A    between atoms: C_5  and  C_6
REMARK    5  A    between atoms: C_6  and  C_7
REMARK    6  A    between atoms: C_7  and  C_8
REMARK    7  A    between atoms: C_8  and  O_9
REMARK    8  A    between atoms: O_9  and  C_10
REMARK    9  A    between atoms: C_13  and  C_14
REMARK   10  A    between atoms: C_14  and  O_16
REMARK   11  A    between atoms: C_22  and  C_23
REMARK   12  A    between atoms: C_23  and  C_25
REMARK   13  A    between atoms: C_25  and  C_26
REMARK   14  A    between atoms: C_26  and  C_27
REMARK   15  A    between atoms: C_26  and  C_28
REMARK   16  A    between atoms: C_29  and  C_30
REMARK                            x       y       z     vdW  Elec       q    Type
REMARK                         _______ _______ _______ _____ _____    ______ ____
ROOT
ATOM      1  C   UNL     1       1.472   6.266  20.306  0.00  0.00    +0.000 C 
ENDROOT
BRANCH   1   2
ATOM      2  O   UNL     1       1.880   7.465  20.922  0.00  0.00    +0.000 OA
BRANCH   2   5
ATOM      3  C   UNL     1       0.174   9.325  22.968  0.00  0.00    +0.000 C 
ATOM      4  C   UNL     1       0.392   9.467  21.472  0.00  0.00    +0.000 A 
ATOM      5  C   UNL     1       1.138   8.595  20.637  0.00  0.00    +0.000 A 
ATOM      6  C   UNL     1       1.200   8.862  19.264  0.00  0.00    +0.000 A 
ATOM      7  C   UNL     1       0.539   9.949  18.696  0.00  0.00    +0.000 A 
ATOM      8  C   UNL     1      -0.197  10.833  19.489  0.00  0.00    +0.000 A 
ATOM      9  C   UNL     1      -0.237  10.632  20.887  0.00  0.00    +0.000 A 
ATOM     10  C   UNL     1      -0.957  11.598  21.813  0.00  0.00    +0.000 C 
BRANCH   8  11
ATOM     11  C   UNL     1      -0.885  11.977  18.804  0.00  0.00    +0.000 C 
ATOM     12  O   UNL     1      -0.237  12.868  18.262  0.00  0.00    +0.000 OA
BRANCH  11  13
ATOM     13  C   UNL     1      -2.407  12.003  18.764  0.00  0.00    +0.000 C 
BRANCH  13  14
ATOM     14  C   UNL     1      -2.958  10.814  17.961  0.00  0.00    +0.000 C 
ATOM     15  C   UNL     1      -4.489  10.804  17.922  0.00  0.00    +0.000 C 
ATOM     16  C   UNL     1      -2.406  10.831  16.536  0.00  0.00    +0.000 C 
ENDBRANCH  13  14
ENDBRANCH  11  13
ENDBRANCH   8  11
ENDBRANCH   2   5
ENDBRANCH   1   2
BRANCH   1  17
ATOM     17  C   UNL     1       1.841   4.990  21.058  0.00  0.00    +0.000 C 
BRANCH  17  18
ATOM     18  C   UNL     1       1.165   3.775  20.390  0.00  0.00    +0.000 C 
BRANCH  18  19
ATOM     19  C   UNL     1       2.011   3.201  19.248  0.00  0.00    +0.000 C 
BRANCH  19  20
ATOM     20  O   UNL     1       3.392   3.120  19.602  0.00  0.00    +0.000 OA
BRANCH  20  21
ATOM     21  C   UNL     1       4.233   3.834  18.784  0.00  0.00    +0.000 A 
ATOM     22  C   UNL     1       4.029   4.096  17.431  0.00  0.00    +0.000 A 
ATOM     23  C   UNL     1       4.944   4.862  16.709  0.00  0.00    +0.000 A 
ATOM     24  C   UNL     1       6.098   5.390  17.317  0.00  0.00    +0.000 A 
ATOM     25  C   UNL     1       6.309   5.113  18.673  0.00  0.00    +0.000 A 
ATOM     26 CL   UNL     1       7.674   5.681  19.569  0.00  0.00    +0.000 Cl
ATOM     27  C   UNL     1       5.382   4.337  19.398  0.00  0.00    +0.000 A 
BRANCH  24  28
ATOM     28  C   UNL     1       6.967   6.207  16.409  0.00  0.00    +0.000 C 
ATOM     29  O   UNL     1       7.236   7.371  16.656  0.00  0.00    +0.000 OA
BRANCH  28  30
ATOM     30  O   UNL     1       7.444   5.602  15.304  0.00  0.00    +0.000 OA
ATOM     31  H   UNL     1       6.781   5.206  14.710  0.00  0.00    +0.000 HD
ENDBRANCH  28  30
ENDBRANCH  24  28
ENDBRANCH  20  21
ENDBRANCH  19  20
ENDBRANCH  18  19
ENDBRANCH  17  18
ENDBRANCH   1  17
TORSDOF 12
ENDMDL
MODEL 5
REMARK VINA RESULT:      -7.2      2.001      3.145
REMARK  Name = 
REMARK  16 active torsions:
REMARK  status: ('A' for Active; 'I' for Inactive)
REMARK    1  A    between atoms: C_1  and  C_2
REMARK    2  A    between atoms: C_3  and  O_4
REMARK    3  A    between atoms: O_4  and  C_5
REMARK    4  A    between atoms: C_5  and  C_6
REMARK    5  A    between atoms: C_6  and  C_7
REMARK    6  A    between atoms: C_7  and  C_8
REMARK    7  A    between atoms: C_8  and  O_9
REMARK    8  A    between atoms: O_9  and  C_10
REMARK    9  A    between atoms: C_13  and  C_14
REMARK   10  A    between atoms: C_14  and  O_16
REMARK   11  A    between atoms: C_22  and  C_23
REMARK   12  A    between atoms: C_23  and  C_25
REMARK   13  A    between atoms: C_25  and  C_26
REMARK   14  A    between atoms: C_26  and  C_27
REMARK   15  A    between atoms: C_26  and  C_28
REMARK   16  A    between atoms: C_29  and  C_30
REMARK                            x       y       z     vdW  Elec       q    Type
REMARK                         _______ _______ _______ _____ _____    ______ ____
ROOT
ATOM      1  C   UNL     1       2.030   6.844  19.994  0.00  0.00    +0.000 C 
ENDROOT
BRANCH   1   2
ATOM      2  O   UNL     1       2.020   7.975  20.832  0.00  0.00    +0.000 OA
BRANCH   2   5
ATOM      3  C   UNL     1       0.107   9.637  22.865  0.00  0.00    +0.000 C 
ATOM      4  C   UNL     1       0.258   9.748  21.359  0.00  0.00    +0.000 A 
ATOM      5  C   UNL     1       1.106   8.966  20.531  0.00  0.00    +0.000 A 
ATOM      6  C   UNL     1       1.087   9.183  19.148  0.00  0.00    +0.000 A 
ATOM      7  C   UNL     1       0.251  10.131  18.563  0.00  0.00    +0.000 A 
ATOM      8  C   UNL     1      -0.590  10.924  19.348  0.00  0.00    +0.000 A 
ATOM      9  C   UNL     1      -0.559  10.778  20.754  0.00  0.00    +0.000 A 
ATOM     10  C   UNL     1      -1.393  11.660  21.667  0.00  0.00    +0.000 C 
BRANCH   8  11
ATOM     11  C   UNL     1      -1.465  11.920  18.646  0.00  0.00    +0.000 C 
ATOM     12  O   UNL     1      -0.992  12.949  18.170  0.00  0.00    +0.000 OA
BRANCH  11  13
ATOM     13  C   UNL     1      -2.952  11.623  18.504  0.00  0.00    +0.000 C 
BRANCH  13  14
ATOM     14  C   UNL     1      -3.355  11.521  17.024  0.00  0.00    +0.000 C 
ATOM     15  C   UNL     1      -2.608  10.397  16.300  0.00  0.00    +0.000 C 
ATOM     16  C   UNL     1      -4.862  11.307  16.895  0.00  0.00    +0.000 C 
ENDBRANCH  13  14
ENDBRANCH  11  13
ENDBRANCH   8  11
ENDBRANCH   2   5
ENDBRANCH   1   2
BRANCH   1  17
ATOM     17  C   UNL     1       1.215   5.655  20.496  0.00  0.00    +0.000 C 
BRANCH  17  18
ATOM     18  C   UNL     1       2.161   4.560  21.030  0.00  0.00    +0.000 C 
BRANCH  18  19
ATOM     19  C   UNL     1       2.374   3.436  20.011  0.00  0.00    +0.000 C 
BRANCH  19  20
ATOM     20  O   UNL     1       3.736   3.005  19.975  0.00  0.00    +0.000 OA
BRANCH  20  21
ATOM     21  C   UNL     1       4.447   3.455  18.889  0.00  0.00    +0.000 A 
ATOM     22  C   UNL     1       4.120   3.241  17.552  0.00  0.00    +0.000 A 
ATOM     23  C   UNL     1       4.907   3.776  16.532  0.00  0.00    +0.000 A 
ATOM     24  C   UNL     1       6.052   4.542  16.817  0.00  0.00    +0.000 A 
ATOM     25  C   UNL     1       6.388   4.743  18.162  0.00  0.00    +0.000 A 
ATOM     26 CL   UNL     1       7.761   5.655  18.684  0.00  0.00    +0.000 Cl
ATOM     27  C   UNL     1       5.590   4.200  19.188  0.00  0.00    +0.000 A 
BRANCH  24  28
ATOM     28  C   UNL     1       6.776   5.061  15.611  0.00  0.00    +0.000 C 
ATOM     29  O   UNL     1       6.734   4.478  14.540  0.00  0.00    +0.000 OA
BRANCH  28  30
ATOM     30  O   UNL     1       7.477   6.201  15.757  0.00  0.00    +0.000 OA
ATOM     31  H   UNL     1       6.992   6.959  16.131  0.00  0.00    +0.000 HD
ENDBRANCH  28  30
ENDBRANCH  24  28
ENDBRANCH  20  21
ENDBRANCH  19  20
ENDBRANCH  18  19
ENDBRANCH  17  18
ENDBRANCH   1  17
TORSDOF 12
ENDMDL
MODEL 6
REMARK VINA RESULT:      -7.2      1.198      1.590
REMARK  Name = 
REMARK  16 active torsions:
REMARK  status: ('A' for Active; 'I' for Inactive)
REMARK    1  A    between atoms: C_1  and  C_2
REMARK    2  A    between atoms: C_3  and  O_4
REMARK    3  A    between atoms: O_4  and  C_5
REMARK    4  A    between atoms: C_5  and  C_6
REMARK    5  A    between atoms: C_6  and  C_7
REMARK    6  A    between atoms: C_7  and  C_8
REMARK    7  A    between atoms: C_8  and  O_9
REMARK    8  A    between atoms: O_9  and  C_10
REMARK    9  A    between atoms: C_13  and  C_14
REMARK   10  A    between atoms: C_14  and  O_16
REMARK   11  A    between atoms: C_22  and  C_23
REMARK   12  A    between atoms: C_23  and  C_25
REMARK   13  A    between atoms: C_25  and  C_26
REMARK   14  A    between atoms: C_26  and  C_27
REMARK   15  A    between atoms: C_26  and  C_28
REMARK   16  A    between atoms: C_29  and  C_30
REMARK                            x       y       z     vdW  Elec       q    Type
REMARK                         _______ _______ _______ _____ _____    ______ ____
ROOT
ATOM      1  C   UNL     1       1.100   4.740  20.639  0.00  0.00    +0.000 C 
ENDROOT
BRANCH   1   2
ATOM      2  O   UNL     1       2.161   5.655  20.502  0.00  0.00    +0.000 OA
BRANCH   2   5
ATOM      3  C   UNL     1       3.108   7.385  17.921  0.00  0.00    +0.000 C 
ATOM      4  C   UNL     1       2.176   7.762  19.058  0.00  0.00    +0.000 A 
ATOM      5  C   UNL     1       1.825   6.953  20.171  0.00  0.00    +0.000 A 
ATOM      6  C   UNL     1       0.976   7.483  21.150  0.00  0.00    +0.000 A 
ATOM      7  C   UNL     1       0.480   8.782  21.070  0.00  0.00    +0.000 A 
ATOM      8  C   UNL     1       0.798   9.603  19.984  0.00  0.00    +0.000 A 
ATOM      9  C   UNL     1       1.605   9.087  18.945  0.00  0.00    +0.000 A 
ATOM     10  C   UNL     1       1.925   9.902  17.703  0.00  0.00    +0.000 C 
BRANCH   8  11
ATOM     11  C   UNL     1       0.230  10.992  19.970  0.00  0.00    +0.000 C 
ATOM     12  O   UNL     1      -0.597  11.326  19.126  0.00  0.00    +0.000 OA
BRANCH  11  13
ATOM     13  C   UNL     1       0.673  11.979  21.042  0.00  0.00    +0.000 C 
BRANCH  13  14
ATOM     14  C   UNL     1      -0.540  12.612  21.743  0.00  0.00    +0.000 C 
ATOM     15  C   UNL     1      -1.111  11.706  22.837  0.00  0.00    +0.000 C 
ATOM     16  C   UNL     1      -0.164  13.968  22.338  0.00  0.00    +0.000 C 
ENDBRANCH  13  14
ENDBRANCH  11  13
ENDBRANCH   8  11
ENDBRANCH   2   5
ENDBRANCH   1   2
BRANCH   1  17
ATOM     17  C   UNL     1       1.396   3.323  20.156  0.00  0.00    +0.000 C 
BRANCH  17  18
ATOM     18  C   UNL     1       2.482   2.683  21.046  0.00  0.00    +0.000 C 
BRANCH  18  19
ATOM     19  C   UNL     1       3.793   2.462  20.283  0.00  0.00    +0.000 C 
BRANCH  19  20
ATOM     20  O   UNL     1       4.503   3.685  20.084  0.00  0.00    +0.000 OA
BRANCH  20  21
ATOM     21  C   UNL     1       4.882   3.919  18.785  0.00  0.00    +0.000 A 
ATOM     22  C   UNL     1       4.418   3.236  17.663  0.00  0.00    +0.000 A 
ATOM     23  C   UNL     1       4.856   3.585  16.385  0.00  0.00    +0.000 A 
ATOM     24  C   UNL     1       5.778   4.630  16.188  0.00  0.00    +0.000 A 
ATOM     25  C   UNL     1       6.255   5.305  17.318  0.00  0.00    +0.000 A 
ATOM     26 CL   UNL     1       7.391   6.607  17.252  0.00  0.00    +0.000 Cl
ATOM     27  C   UNL     1       5.810   4.947  18.607  0.00  0.00    +0.000 A 
BRANCH  24  28
ATOM     28  C   UNL     1       6.131   4.892  14.755  0.00  0.00    +0.000 C 
ATOM     29  O   UNL     1       7.057   5.625  14.447  0.00  0.00    +0.000 OA
BRANCH  28  30
ATOM     30  O   UNL     1       5.383   4.284  13.815  0.00  0.00    +0.000 OA
ATOM     31  H   UNL     1       4.432   4.198  14.010  0.00  0.00    +0.000 HD
ENDBRANCH  28  30
ENDBRANCH  24  28
ENDBRANCH  20  21
ENDBRANCH  19  20
ENDBRANCH  18  19
ENDBRANCH  17  18
ENDBRANCH   1  17
TORSDOF 12
ENDMDL
MODEL 7
REMARK VINA RESULT:      -7.1      5.952      9.090
REMARK  Name = 
REMARK  16 active torsions:
REMARK  status: ('A' for Active; 'I' for Inactive)
REMARK    1  A    between atoms: C_1  and  C_2
REMARK    2  A    between atoms: C_3  and  O_4
REMARK    3  A    between atoms: O_4  and  C_5
REMARK    4  A    between atoms: C_5  and  C_6
REMARK    5  A    between atoms: C_6  and  C_7
REMARK    6  A    between atoms: C_7  and  C_8
REMARK    7  A    between atoms: C_8  and  O_9
REMARK    8  A    between atoms: O_9  and  C_10
REMARK    9  A    between atoms: C_13  and  C_14
REMARK   10  A    between atoms: C_14  and  O_16
REMARK   11  A    between atoms: C_22  and  C_23
REMARK   12  A    between atoms: C_23  and  C_25
REMARK   13  A    between atoms: C_25  and  C_26
REMARK   14  A    between atoms: C_26  and  C_27
REMARK   15  A    between atoms: C_26  and  C_28
REMARK   16  A    between atoms: C_29  and  C_30
REMARK                            x       y       z     vdW  Elec       q    Type
REMARK                         _______ _______ _______ _____ _____    ______ ____
ROOT
ATOM      1  C   UNL     1       6.923   8.160  17.370  0.00  0.00    +0.000 C 
ENDROOT
BRANCH   1   2
ATOM      2  O   UNL     1       6.806   6.899  16.753  0.00  0.00    +0.000 OA
BRANCH   2   5
ATOM      3  C   UNL     1       3.675   7.655  17.176  0.00  0.00    +0.000 C 
ATOM      4  C   UNL     1       4.395   6.334  17.377  0.00  0.00    +0.000 A 
ATOM      5  C   UNL     1       5.780   6.085  17.191  0.00  0.00    +0.000 A 
ATOM      6  C   UNL     1       6.279   4.805  17.463  0.00  0.00    +0.000 A 
ATOM      7  C   UNL     1       5.459   3.778  17.922  0.00  0.00    +0.000 A 
ATOM      8  C   UNL     1       4.089   3.985  18.108  0.00  0.00    +0.000 A 
ATOM      9  C   UNL     1       3.534   5.245  17.790  0.00  0.00    +0.000 A 
ATOM     10  C   UNL     1       2.043   5.512  17.898  0.00  0.00    +0.000 C 
BRANCH   8  11
ATOM     11  C   UNL     1       3.271   2.832  18.610  0.00  0.00    +0.000 C 
ATOM     12  O   UNL     1       2.686   2.087  17.829  0.00  0.00    +0.000 OA
BRANCH  11  13
ATOM     13  C   UNL     1       3.200   2.578  20.110  0.00  0.00    +0.000 C 
BRANCH  13  14
ATOM     14  C   UNL     1       1.943   3.221  20.718  0.00  0.00    +0.000 C 
ATOM     15  C   UNL     1       1.368   2.388  21.866  0.00  0.00    +0.000 C 
ATOM     16  C   UNL     1       2.252   4.635  21.210  0.00  0.00    +0.000 C 
ENDBRANCH  13  14
ENDBRANCH  11  13
ENDBRANCH   8  11
ENDBRANCH   2   5
ENDBRANCH   1   2
BRANCH   1  17
ATOM     17  C   UNL     1       8.287   8.457  17.989  0.00  0.00    +0.000 C 
BRANCH  17  18
ATOM     18  C   UNL     1       8.398   9.962  18.313  0.00  0.00    +0.000 C 
BRANCH  18  19
ATOM     19  C   UNL     1       9.399  10.235  19.440  0.00  0.00    +0.000 C 
BRANCH  19  20
ATOM     20  O   UNL     1       9.182  11.511  20.044  0.00  0.00    +0.000 OA
BRANCH  20  21
ATOM     21  C   UNL     1       9.637  12.576  19.305  0.00  0.00    +0.000 A 
ATOM     22  C   UNL     1      10.833  12.625  18.593  0.00  0.00    +0.000 A 
ATOM     23  C   UNL     1      11.175  13.756  17.852  0.00  0.00    +0.000 A 
ATOM     24  C   UNL     1      10.330  14.880  17.801  0.00  0.00    +0.000 A 
ATOM     25  C   UNL     1       9.134  14.834  18.529  0.00  0.00    +0.000 A 
ATOM     26 CL   UNL     1       7.988  16.128  18.576  0.00  0.00    +0.000 Cl
ATOM     27  C   UNL     1       8.794  13.689  19.277  0.00  0.00    +0.000 A 
BRANCH  24  28
ATOM     28  C   UNL     1      10.831  16.003  16.944  0.00  0.00    +0.000 C 
ATOM     29  O   UNL     1      11.230  17.049  17.430  0.00  0.00    +0.000 OA
BRANCH  28  30
ATOM     30  O   UNL     1      10.827  15.812  15.612  0.00  0.00    +0.000 OA
ATOM     31  H   UNL     1      11.336  15.047  15.286  0.00  0.00    +0.000 HD
ENDBRANCH  28  30
ENDBRANCH  24  28
ENDBRANCH  20  21
ENDBRANCH  19  20
ENDBRANCH  18  19
ENDBRANCH  17  18
ENDBRANCH   1  17
TORSDOF 12
ENDMDL
MODEL 8
REMARK VINA RESULT:      -7.1      1.947      2.919
REMARK  Name = 
REMARK  16 active torsions:
REMARK  status: ('A' for Active; 'I' for Inactive)
REMARK    1  A    between atoms: C_1  and  C_2
REMARK    2  A    between atoms: C_3  and  O_4
REMARK    3  A    between atoms: O_4  and  C_5
REMARK    4  A    between atoms: C_5  and  C_6
REMARK    5  A    between atoms: C_6  and  C_7
REMARK    6  A    between atoms: C_7  and  C_8
REMARK    7  A    between atoms: C_8  and  O_9
REMARK    8  A    between atoms: O_9  and  C_10
REMARK    9  A    between atoms: C_13  and  C_14
REMARK   10  A    between atoms: C_14  and  O_16
REMARK   11  A    between atoms: C_22  and  C_23
REMARK   12  A    between atoms: C_23  and  C_25
REMARK   13  A    between atoms: C_25  and  C_26
REMARK   14  A    between atoms: C_26  and  C_27
REMARK   15  A    between atoms: C_26  and  C_28
REMARK   16  A    between atoms: C_29  and  C_30
REMARK                            x       y       z     vdW  Elec       q    Type
REMARK                         _______ _______ _______ _____ _____    ______ ____
ROOT
ATOM      1  C   UNL     1       2.074   6.011  19.377  0.00  0.00    +0.000 C 
ENDROOT
BRANCH   1   2
ATOM      2  O   UNL     1       2.592   7.309  19.199  0.00  0.00    +0.000 OA
BRANCH   2   5
ATOM      3  C   UNL     1       1.259   8.528  21.898  0.00  0.00    +0.000 C 
ATOM      4  C   UNL     1       1.097   8.958  20.452  0.00  0.00    +0.000 A 
ATOM      5  C   UNL     1       1.700   8.356  19.316  0.00  0.00    +0.000 A 
ATOM      6  C   UNL     1       1.404   8.866  18.045  0.00  0.00    +0.000 A 
ATOM      7  C   UNL     1       0.527   9.932  17.866  0.00  0.00    +0.000 A 
ATOM      8  C   UNL     1      -0.078  10.553  18.962  0.00  0.00    +0.000 A 
ATOM      9  C   UNL     1       0.239  10.108  20.265  0.00  0.00    +0.000 A 
ATOM     10  C   UNL     1      -0.327  10.788  21.501  0.00  0.00    +0.000 C 
BRANCH   8  11
ATOM     11  C   UNL     1      -1.015  11.692  18.688  0.00  0.00    +0.000 C 
ATOM     12  O   UNL     1      -2.231  11.544  18.783  0.00  0.00    +0.000 OA
BRANCH  11  13
ATOM     13  C   UNL     1      -0.435  13.050  18.318  0.00  0.00    +0.000 C 
BRANCH  13  14
ATOM     14  C   UNL     1       0.132  13.763  19.556  0.00  0.00    +0.000 C 
ATOM     15  C   UNL     1       1.246  14.749  19.193  0.00  0.00    +0.000 C 
ATOM     16  C   UNL     1      -0.979  14.494  20.307  0.00  0.00    +0.000 C 
ENDBRANCH  13  14
ENDBRANCH  11  13
ENDBRANCH   8  11
ENDBRANCH   2   5
ENDBRANCH   1   2
BRANCH   1  17
ATOM     17  C   UNL     1       1.707   5.275  18.091  0.00  0.00    +0.000 C 
BRANCH  17  18
ATOM     18  C   UNL     1       1.576   3.764  18.372  0.00  0.00    +0.000 C 
BRANCH  18  19
ATOM     19  C   UNL     1       2.523   2.933  17.500  0.00  0.00    +0.000 C 
BRANCH  19  20
ATOM     20  O   UNL     1       3.746   2.639  18.176  0.00  0.00    +0.000 OA
BRANCH  20  21
ATOM     21  C   UNL     1       4.660   3.664  18.171  0.00  0.00    +0.000 A 
ATOM     22  C   UNL     1       5.160   4.318  19.295  0.00  0.00    +0.000 A 
ATOM     23  C   UNL     1       6.112   5.330  19.165  0.00  0.00    +0.000 A 
ATOM     24  C   UNL     1       6.594   5.723  17.903  0.00  0.00    +0.000 A 
ATOM     25  C   UNL     1       6.079   5.074  16.774  0.00  0.00    +0.000 A 
ATOM     26 CL   UNL     1       6.560   5.439  15.154  0.00  0.00    +0.000 Cl
ATOM     27  C   UNL     1       5.117   4.054  16.911  0.00  0.00    +0.000 A 
BRANCH  24  28
ATOM     28  C   UNL     1       7.628   6.808  17.937  0.00  0.00    +0.000 C 
ATOM     29  O   UNL     1       7.748   7.607  17.023  0.00  0.00    +0.000 OA
BRANCH  28  30
ATOM     30  O   UNL     1       8.423   6.869  19.023  0.00  0.00    +0.000 OA
ATOM     31  H   UNL     1       8.444   7.722  19.493  0.00  0.00    +0.000 HD
ENDBRANCH  28  30
ENDBRANCH  24  28
ENDBRANCH  20  21
ENDBRANCH  19  20
ENDBRANCH  18  19
ENDBRANCH  17  18
ENDBRANCH   1  17
TORSDOF 12
ENDMDL
MODEL 9
REMARK VINA RESULT:      -7.0      1.620      2.611
REMARK  Name = 
REMARK  16 active torsions:
REMARK  status: ('A' for Active; 'I' for Inactive)
REMARK    1  A    between atoms: C_1  and  C_2
REMARK    2  A    between atoms: C_3  and  O_4
REMARK    3  A    between atoms: O_4  and  C_5
REMARK    4  A    between atoms: C_5  and  C_6
REMARK    5  A    between atoms: C_6  and  C_7
REMARK    6  A    between atoms: C_7  and  C_8
REMARK    7  A    between atoms: C_8  and  O_9
REMARK    8  A    between atoms: O_9  and  C_10
REMARK    9  A    between atoms: C_13  and  C_14
REMARK   10  A    between atoms: C_14  and  O_16
REMARK   11  A    between atoms: C_22  and  C_23
REMARK   12  A    between atoms: C_23  and  C_25
REMARK   13  A    between atoms: C_25  and  C_26
REMARK   14  A    between atoms: C_26  and  C_27
REMARK   15  A    between atoms: C_26  and  C_28
REMARK   16  A    between atoms: C_29  and  C_30
REMARK                            x       y       z     vdW  Elec       q    Type
REMARK                         _______ _______ _______ _____ _____    ______ ____
ROOT
ATOM      1  C   UNL     1       1.964   5.781  19.059  0.00  0.00    +0.000 C 
ENDROOT
BRANCH   1   2
ATOM      2  O   UNL     1       2.650   6.945  19.456  0.00  0.00    +0.000 OA
BRANCH   2   5
ATOM      3  C   UNL     1       1.039   8.285  21.938  0.00  0.00    +0.000 C 
ATOM      4  C   UNL     1       1.220   8.778  20.514  0.00  0.00    +0.000 A 
ATOM      5  C   UNL     1       1.925   8.120  19.472  0.00  0.00    +0.000 A 
ATOM      6  C   UNL     1       1.956   8.708  18.201  0.00  0.00    +0.000 A 
ATOM      7  C   UNL     1       1.303   9.908  17.929  0.00  0.00    +0.000 A 
ATOM      8  C   UNL     1       0.607  10.587  18.933  0.00  0.00    +0.000 A 
ATOM      9  C   UNL     1       0.600  10.058  20.243  0.00  0.00    +0.000 A 
ATOM     10  C   UNL     1      -0.075  10.784  21.394  0.00  0.00    +0.000 C 
BRANCH   8  11
ATOM     11  C   UNL     1      -0.075  11.870  18.562  0.00  0.00    +0.000 C 
ATOM     12  O   UNL     1      -1.161  11.864  17.989  0.00  0.00    +0.000 OA
BRANCH  11  13
ATOM     13  C   UNL     1       0.588  13.190  18.935  0.00  0.00    +0.000 C 
BRANCH  13  14
ATOM     14  C   UNL     1      -0.464  14.278  19.203  0.00  0.00    +0.000 C 
ATOM     15  C   UNL     1      -0.883  14.325  20.675  0.00  0.00    +0.000 C 
ATOM     16  C   UNL     1       0.061  15.646  18.772  0.00  0.00    +0.000 C 
ENDBRANCH  13  14
ENDBRANCH  11  13
ENDBRANCH   8  11
ENDBRANCH   2   5
ENDBRANCH   1   2
BRANCH   1  17
ATOM     17  C   UNL     1       1.376   4.952  20.198  0.00  0.00    +0.000 C 
BRANCH  17  18
ATOM     18  C   UNL     1       2.513   4.319  21.026  0.00  0.00    +0.000 C 
BRANCH  18  19
ATOM     19  C   UNL     1       2.831   2.892  20.569  0.00  0.00    +0.000 C 
BRANCH  19  20
ATOM     20  O   UNL     1       4.197   2.754  20.173  0.00  0.00    +0.000 OA
BRANCH  20  21
ATOM     21  C   UNL     1       4.515   3.388  18.996  0.00  0.00    +0.000 A 
ATOM     22  C   UNL     1       3.933   3.146  17.754  0.00  0.00    +0.000 A 
ATOM     23  C   UNL     1       4.321   3.878  16.632  0.00  0.00    +0.000 A 
ATOM     24  C   UNL     1       5.308   4.877  16.715  0.00  0.00    +0.000 A 
ATOM     25  C   UNL     1       5.902   5.109  17.962  0.00  0.00    +0.000 A 
ATOM     26 CL   UNL     1       7.130   6.295  18.235  0.00  0.00    +0.000 Cl
ATOM     27  C   UNL     1       5.508   4.366  19.092  0.00  0.00    +0.000 A 
BRANCH  24  28
ATOM     28  C   UNL     1       5.595   5.584  15.424  0.00  0.00    +0.000 C 
ATOM     29  O   UNL     1       5.256   6.742  15.240  0.00  0.00    +0.000 OA
BRANCH  28  30
ATOM     30  O   UNL     1       6.245   4.889  14.472  0.00  0.00    +0.000 OA
ATOM     31  H   UNL     1       7.211   5.019  14.429  0.00  0.00    +0.000 HD
ENDBRANCH  28  30
ENDBRANCH  24  28
ENDBRANCH  20  21
ENDBRANCH  19  20
ENDBRANCH  18  19
ENDBRANCH  17  18
ENDBRANCH   1  17
TORSDOF 12
ENDMDL
