MODEL 1
REMARK VINA RESULT:      -9.2      0.000      0.000
REMARK  Name = 
REMARK  6 active torsions:
REMARK  status: ('A' for Active; 'I' for Inactive)
REMARK    1  A    between atoms: C_6  and  C_7
REMARK    2  A    between atoms: C_7  and  O_8
REMARK    3  A    between atoms: O_8  and  C_9
REMARK    4  A    between atoms: C_12  and  N_13
REMARK    5  A    between atoms: N_13  and  C_14
REMARK    6  A    between atoms: C_20  and  N_21
REMARK                            x       y       z     vdW  Elec       q    Type
REMARK                         _______ _______ _______ _____ _____    ______ ____
ROOT
ATOM      1  N   UNL     1       2.033   8.449  18.850  0.00  0.00    +0.000 N 
ATOM      2  H   UNL     1       1.147   8.124  18.414  0.00  0.00    +0.000 HD
ENDROOT
BRANCH   1   3
ATOM      3  C   UNL     1       1.364   9.651  19.165  0.00  0.00    +0.000 A 
ATOM      4  N   UNL     1       1.790  10.542  18.249  0.00  0.00    +0.000 NA
ATOM      5  C   UNL     1       1.442  11.824  18.365  0.00  0.00    +0.000 A 
ATOM      6  N   UNL     1       0.549  12.306  19.213  0.00  0.00    +0.000 NA
ATOM      7  C   UNL     1       0.118  11.494  20.162  0.00  0.00    +0.000 A 
ATOM      8  C   UNL     1      -0.740  12.156  21.076  0.00  0.00    +0.000 A 
ATOM      9  C   UNL     1      -1.156  11.670  22.322  0.00  0.00    +0.000 A 
ATOM     10  C   UNL     1      -0.597  10.389  22.557  0.00  0.00    +0.000 A 
ATOM     11  F   UNL     1      -0.711   9.829  23.773  0.00  0.00    +0.000 F 
ATOM     12  C   UNL     1       0.187   9.634  21.584  0.00  0.00    +0.000 A 
ATOM     13  C   UNL     1       0.573  10.151  20.302  0.00  0.00    +0.000 A 
BRANCH   9  14
ATOM     14  N   UNL     1      -1.905  12.474  23.235  0.00  0.00    +0.000 N 
ATOM     15  C   UNL     1      -3.391  12.320  23.317  0.00  0.00    +0.000 C 
ATOM     16  C   UNL     1      -3.997  12.993  24.594  0.00  0.00    +0.000 C 
ATOM     17  N   UNL     1      -3.667  14.418  24.753  0.00  0.00    +0.000 NA
ATOM     18  C   UNL     1      -2.206  14.564  24.698  0.00  0.00    +0.000 C 
ATOM     19  C   UNL     1      -1.540  13.924  23.438  0.00  0.00    +0.000 C 
ATOM     20  H   UNL     1      -4.004  14.744  25.661  0.00  0.00    +0.000 HD
ENDBRANCH   9  14
ENDBRANCH   1   3
BRANCH   1  24
ATOM     21  C   UNL     1       3.771   4.814  17.088  0.00  0.00    +0.000 A 
ATOM     22  C   UNL     1       4.420   6.069  17.094  0.00  0.00    +0.000 A 
ATOM     23  C   UNL     1       3.919   7.250  17.744  0.00  0.00    +0.000 A 
ATOM     24  C   UNL     1       2.710   7.261  18.435  0.00  0.00    +0.000 A 
ATOM     25  C   UNL     1       2.068   5.980  18.477  0.00  0.00    +0.000 A 
ATOM     26  C   UNL     1       2.596   4.776  17.850  0.00  0.00    +0.000 A 
ATOM     27 CL   UNL     1       1.741   3.299  18.154  0.00  0.00    +0.000 Cl
BRANCH  21  28
ATOM     28  O   UNL     1       4.434   3.838  16.353  0.00  0.00    +0.000 OA
BRANCH  28  29
ATOM     29  C   UNL     1       5.860   3.898  16.077  0.00  0.00    +0.000 C 
BRANCH  29  35
ATOM     30  F   UNL     1       8.788   6.006  12.724  0.00  0.00    +0.000 F 
ATOM     31  C   UNL     1       7.788   5.146  12.973  0.00  0.00    +0.000 A 
ATOM     32  C   UNL     1       7.215   4.456  11.918  0.00  0.00    +0.000 A 
ATOM     33  C   UNL     1       6.166   3.577  12.190  0.00  0.00    +0.000 A 
ATOM     34  C   UNL     1       5.707   3.382  13.513  0.00  0.00    +0.000 A 
ATOM     35  C   UNL     1       6.297   4.051  14.597  0.00  0.00    +0.000 A 
ATOM     36  C   UNL     1       7.342   4.959  14.288  0.00  0.00    +0.000 A 
ENDBRANCH  29  35
ENDBRANCH  28  29
ENDBRANCH  21  28
ENDBRANCH   1  24
TORSDOF 6
ENDMDL
MODEL 2
REMARK VINA RESULT:      -8.9      3.030      3.921
REMARK  Name = 
REMARK  6 active torsions:
REMARK  status: ('A' for Active; 'I' for Inactive)
REMARK    1  A    between atoms: C_6  and  C_7
REMARK    2  A    between atoms: C_7  and  O_8
REMARK    3  A    between atoms: O_8  and  C_9
REMARK    4  A    between atoms: C_12  and  N_13
REMARK    5  A    between atoms: N_13  and  C_14
REMARK    6  A    between atoms: C_20  and  N_21
REMARK                            x       y       z     vdW  Elec       q    Type
REMARK                         _______ _______ _______ _____ _____    ______ ____
ROOT
ATOM      1  N   UNL     1       1.334   8.400  20.487  0.00  0.00    +0.000 N 
ATOM      2  H   UNL     1       0.578   8.407  19.774  0.00  0.00    +0.000 HD
ENDROOT
BRANCH   1   3
ATOM      3  C   UNL     1       0.594   9.376  21.189  0.00  0.00    +0.000 A 
ATOM      4  N   UNL     1       0.717   9.043  22.490  0.00  0.00    +0.000 NA
ATOM      5  C   UNL     1       0.009   9.700  23.408  0.00  0.00    +0.000 A 
ATOM      6  N   UNL     1      -0.697  10.799  23.196  0.00  0.00    +0.000 NA
ATOM      7  C   UNL     1      -0.889  11.160  21.939  0.00  0.00    +0.000 A 
ATOM      8  C   UNL     1      -1.756  12.277  21.836  0.00  0.00    +0.000 A 
ATOM      9  C   UNL     1      -2.365  12.745  20.665  0.00  0.00    +0.000 A 
ATOM     10  C   UNL     1      -1.990  11.938  19.563  0.00  0.00    +0.000 A 
ATOM     11  F   UNL     1      -2.615  12.095  18.383  0.00  0.00    +0.000 F 
ATOM     12  C   UNL     1      -1.006  10.861  19.619  0.00  0.00    +0.000 A 
ATOM     13  C   UNL     1      -0.376  10.423  20.832  0.00  0.00    +0.000 A 
BRANCH   9  14
ATOM     14  N   UNL     1      -3.338  13.792  20.688  0.00  0.00    +0.000 N 
ATOM     15  C   UNL     1      -3.231  14.886  21.702  0.00  0.00    +0.000 C 
ATOM     16  C   UNL     1      -4.137  16.116  21.360  0.00  0.00    +0.000 C 
ATOM     17  N   UNL     1      -5.561  15.795  21.170  0.00  0.00    +0.000 NA
ATOM     18  C   UNL     1      -5.665  14.739  20.155  0.00  0.00    +0.000 C 
ATOM     19  C   UNL     1      -4.793  13.476  20.445  0.00  0.00    +0.000 C 
ATOM     20  H   UNL     1      -6.054  16.628  20.842  0.00  0.00    +0.000 HD
ENDBRANCH   9  14
ENDBRANCH   1   3
BRANCH   1  24
ATOM     21  C   UNL     1       3.184   5.329  17.940  0.00  0.00    +0.000 A 
ATOM     22  C   UNL     1       3.035   6.681  17.555  0.00  0.00    +0.000 A 
ATOM     23  C   UNL     1       2.521   7.724  18.401  0.00  0.00    +0.000 A 
ATOM     24  C   UNL     1       2.104   7.483  19.708  0.00  0.00    +0.000 A 
ATOM     25  C   UNL     1       2.298   6.126  20.125  0.00  0.00    +0.000 A 
ATOM     26  C   UNL     1       2.853   5.078  19.279  0.00  0.00    +0.000 A 
ATOM     27 CL   UNL     1       3.148   3.544  20.029  0.00  0.00    +0.000 Cl
BRANCH  21  28
ATOM     28  O   UNL     1       3.662   4.502  16.931  0.00  0.00    +0.000 OA
BRANCH  28  29
ATOM     29  C   UNL     1       5.066   4.149  16.806  0.00  0.00    +0.000 C 
BRANCH  29  35
ATOM     30  F   UNL     1       8.124   5.478  20.431  0.00  0.00    +0.000 F 
ATOM     31  C   UNL     1       7.613   5.757  19.222  0.00  0.00    +0.000 A 
ATOM     32  C   UNL     1       8.039   6.895  18.557  0.00  0.00    +0.000 A 
ATOM     33  C   UNL     1       7.488   7.180  17.308  0.00  0.00    +0.000 A 
ATOM     34  C   UNL     1       6.529   6.320  16.724  0.00  0.00    +0.000 A 
ATOM     35  C   UNL     1       6.110   5.148  17.371  0.00  0.00    +0.000 A 
ATOM     36  C   UNL     1       6.665   4.897  18.651  0.00  0.00    +0.000 A 
ENDBRANCH  29  35
ENDBRANCH  28  29
ENDBRANCH  21  28
ENDBRANCH   1  24
TORSDOF 6
ENDMDL
MODEL 3
REMARK VINA RESULT:      -8.8      3.249      3.716
REMARK  Name = 
REMARK  6 active torsions:
REMARK  status: ('A' for Active; 'I' for Inactive)
REMARK    1  A    between atoms: C_6  and  C_7
REMARK    2  A    between atoms: C_7  and  O_8
REMARK    3  A    between atoms: O_8  and  C_9
REMARK    4  A    between atoms: C_12  and  N_13
REMARK    5  A    between atoms: N_13  and  C_14
REMARK    6  A    between atoms: C_20  and  N_21
REMARK                            x       y       z     vdW  Elec       q    Type
REMARK                         _______ _______ _______ _____ _____    ______ ____
ROOT
ATOM      1  N   UNL     1       1.710   8.836  18.413  0.00  0.00    +0.000 N 
ATOM      2  H   UNL     1       1.364   8.808  17.434  0.00  0.00    +0.000 HD
ENDROOT
BRANCH   1   3
ATOM      3  C   UNL     1       0.900   9.976  18.602  0.00  0.00    +0.000 A 
ATOM      4  N   UNL     1       1.666  10.843  19.292  0.00  0.00    +0.000 NA
ATOM      5  C   UNL     1       1.131  11.975  19.750  0.00  0.00    +0.000 A 
ATOM      6  N   UNL     1      -0.069  12.439  19.444  0.00  0.00    +0.000 NA
ATOM      7  C   UNL     1      -0.886  11.624  18.801  0.00  0.00    +0.000 A 
ATOM      8  C   UNL     1      -2.176  12.188  18.636  0.00  0.00    +0.000 A 
ATOM      9  C   UNL     1      -3.333  11.506  18.238  0.00  0.00    +0.000 A 
ATOM     10  C   UNL     1      -3.039  10.139  18.011  0.00  0.00    +0.000 A 
ATOM     11  F   UNL     1      -4.045   9.270  17.811  0.00  0.00    +0.000 F 
ATOM     12  C   UNL     1      -1.700   9.558  18.054  0.00  0.00    +0.000 A 
ATOM     13  C   UNL     1      -0.528  10.293  18.438  0.00  0.00    +0.000 A 
BRANCH   9  14
ATOM     14  N   UNL     1      -4.617  12.133  18.241  0.00  0.00    +0.000 N 
ATOM     15  C   UNL     1      -5.492  12.033  19.449  0.00  0.00    +0.000 C 
ATOM     16  C   UNL     1      -6.674  13.059  19.425  0.00  0.00    +0.000 C 
ATOM     17  N   UNL     1      -7.525  12.986  18.226  0.00  0.00    +0.000 NA
ATOM     18  C   UNL     1      -6.667  13.112  17.041  0.00  0.00    +0.000 C 
ATOM     19  C   UNL     1      -5.473  12.105  16.999  0.00  0.00    +0.000 C 
ATOM     20  H   UNL     1      -8.195  13.758  18.240  0.00  0.00    +0.000 HD
ENDBRANCH   9  14
ENDBRANCH   1   3
BRANCH   1  24
ATOM     21  C   UNL     1       4.069   5.332  17.190  0.00  0.00    +0.000 A 
ATOM     22  C   UNL     1       4.465   6.666  16.948  0.00  0.00    +0.000 A 
ATOM     23  C   UNL     1       3.764   7.829  17.417  0.00  0.00    +0.000 A 
ATOM     24  C   UNL     1       2.592   7.739  18.165  0.00  0.00    +0.000 A 
ATOM     25  C   UNL     1       2.209   6.390  18.459  0.00  0.00    +0.000 A 
ATOM     26  C   UNL     1       2.941   5.213  18.014  0.00  0.00    +0.000 A 
ATOM     27 CL   UNL     1       2.394   3.680  18.612  0.00  0.00    +0.000 Cl
BRANCH  21  28
ATOM     28  O   UNL     1       4.888   4.380  16.594  0.00  0.00    +0.000 OA
BRANCH  28  29
ATOM     29  C   UNL     1       6.246   4.673  16.165  0.00  0.00    +0.000 C 
BRANCH  29  35
ATOM     30  F   UNL     1       5.316   2.581  11.805  0.00  0.00    +0.000 F 
ATOM     31  C   UNL     1       6.050   3.459  12.505  0.00  0.00    +0.000 A 
ATOM     32  C   UNL     1       7.027   4.193  11.852  0.00  0.00    +0.000 A 
ATOM     33  C   UNL     1       7.792   5.091  12.596  0.00  0.00    +0.000 A 
ATOM     34  C   UNL     1       7.567   5.262  13.982  0.00  0.00    +0.000 A 
ATOM     35  C   UNL     1       6.562   4.548  14.652  0.00  0.00    +0.000 A 
ATOM     36  C   UNL     1       5.818   3.622  13.877  0.00  0.00    +0.000 A 
ENDBRANCH  29  35
ENDBRANCH  28  29
ENDBRANCH  21  28
ENDBRANCH   1  24
TORSDOF 6
ENDMDL
MODEL 4
REMARK VINA RESULT:      -8.7      2.205      2.780
REMARK  Name = 
REMARK  6 active torsions:
REMARK  status: ('A' for Active; 'I' for Inactive)
REMARK    1  A    between atoms: C_6  and  C_7
REMARK    2  A    between atoms: C_7  and  O_8
REMARK    3  A    between atoms: O_8  and  C_9
REMARK    4  A    between atoms: C_12  and  N_13
REMARK    5  A    between atoms: N_13  and  C_14
REMARK    6  A    between atoms: C_20  and  N_21
REMARK                            x       y       z     vdW  Elec       q    Type
REMARK                         _______ _______ _______ _____ _____    ______ ____
ROOT
ATOM      1  N   UNL     1       1.788   8.164  20.232  0.00  0.00    +0.000 N 
ATOM      2  H   UNL     1       1.013   7.484  20.362  0.00  0.00    +0.000 HD
ENDROOT
BRANCH   1   3
ATOM      3  C   UNL     1       0.999   9.102  20.931  0.00  0.00    +0.000 A 
ATOM      4  N   UNL     1       1.155   8.793  22.234  0.00  0.00    +0.000 NA
ATOM      5  C   UNL     1       0.419   9.419  23.152  0.00  0.00    +0.000 A 
ATOM      6  N   UNL     1      -0.354  10.470  22.935  0.00  0.00    +0.000 NA
ATOM      7  C   UNL     1      -0.580  10.804  21.676  0.00  0.00    +0.000 A 
ATOM      8  C   UNL     1      -1.513  11.866  21.569  0.00  0.00    +0.000 A 
ATOM      9  C   UNL     1      -2.162  12.282  20.400  0.00  0.00    +0.000 A 
ATOM     10  C   UNL     1      -1.751  11.486  19.303  0.00  0.00    +0.000 A 
ATOM     11  F   UNL     1      -2.396  11.590  18.129  0.00  0.00    +0.000 F 
ATOM     12  C   UNL     1      -0.704  10.469  19.361  0.00  0.00    +0.000 A 
ATOM     13  C   UNL     1      -0.036  10.085  20.572  0.00  0.00    +0.000 A 
BRANCH   9  14
ATOM     14  N   UNL     1      -3.195  13.269  20.421  0.00  0.00    +0.000 N 
ATOM     15  C   UNL     1      -3.095  14.432  21.357  0.00  0.00    +0.000 C 
ATOM     16  C   UNL     1      -4.096  15.581  21.000  0.00  0.00    +0.000 C 
ATOM     17  N   UNL     1      -5.506  15.165  20.922  0.00  0.00    +0.000 NA
ATOM     18  C   UNL     1      -5.606  14.041  19.982  0.00  0.00    +0.000 C 
ATOM     19  C   UNL     1      -4.640  12.853  20.292  0.00  0.00    +0.000 C 
ATOM     20  H   UNL     1      -6.070  15.945  20.576  0.00  0.00    +0.000 HD
ENDBRANCH   9  14
ENDBRANCH   1   3
BRANCH   1  24
ATOM     21  C   UNL     1       3.526   5.114  17.583  0.00  0.00    +0.000 A 
ATOM     22  C   UNL     1       3.605   6.503  17.336  0.00  0.00    +0.000 A 
ATOM     23  C   UNL     1       3.130   7.524  18.229  0.00  0.00    +0.000 A 
ATOM     24  C   UNL     1       2.524   7.224  19.447  0.00  0.00    +0.000 A 
ATOM     25  C   UNL     1       2.484   5.819  19.729  0.00  0.00    +0.000 A 
ATOM     26  C   UNL     1       2.999   4.788  18.840  0.00  0.00    +0.000 A 
ATOM     27 CL   UNL     1       2.994   3.162  19.444  0.00  0.00    +0.000 Cl
BRANCH  21  28
ATOM     28  O   UNL     1       4.015   4.326  16.548  0.00  0.00    +0.000 OA
BRANCH  28  29
ATOM     29  C   UNL     1       5.436   4.110  16.331  0.00  0.00    +0.000 C 
BRANCH  29  35
ATOM     30  F   UNL     1       8.708   5.728  13.025  0.00  0.00    +0.000 F 
ATOM     31  C   UNL     1       7.616   4.988  13.267  0.00  0.00    +0.000 A 
ATOM     32  C   UNL     1       7.021   4.302  12.221  0.00  0.00    +0.000 A 
ATOM     33  C   UNL     1       5.877   3.549  12.484  0.00  0.00    +0.000 A 
ATOM     34  C   UNL     1       5.343   3.473  13.792  0.00  0.00    +0.000 A 
ATOM     35  C   UNL     1       5.951   4.138  14.868  0.00  0.00    +0.000 A 
ATOM     36  C   UNL     1       7.096   4.918  14.567  0.00  0.00    +0.000 A 
ENDBRANCH  29  35
ENDBRANCH  28  29
ENDBRANCH  21  28
ENDBRANCH   1  24
TORSDOF 6
ENDMDL
MODEL 5
REMARK VINA RESULT:      -8.7      2.763      3.710
REMARK  Name = 
REMARK  6 active torsions:
REMARK  status: ('A' for Active; 'I' for Inactive)
REMARK    1  A    between atoms: C_6  and  C_7
REMARK    2  A    between atoms: C_7  and  O_8
REMARK    3  A    between atoms: O_8  and  C_9
REMARK    4  A    between atoms: C_12  and  N_13
REMARK    5  A    between atoms: N_13  and  C_14
REMARK    6  A    between atoms: C_20  and  N_21
REMARK                            x       y       z     vdW  Elec       q    Type
REMARK                         _______ _______ _______ _____ _____    ______ ____
ROOT
ATOM      1  N   UNL     1       1.437   8.588  20.329  0.00  0.00    +0.000 N 
ATOM      2  H   UNL     1       2.127   8.545  21.105  0.00  0.00    +0.000 HD
ENDROOT
BRANCH   1   3
ATOM      3  C   UNL     1       0.671   9.452  21.140  0.00  0.00    +0.000 A 
ATOM      4  N   UNL     1       0.838   8.996  22.398  0.00  0.00    +0.000 NA
ATOM      5  C   UNL     1       0.123   9.524  23.391  0.00  0.00    +0.000 A 
ATOM      6  N   UNL     1      -0.637  10.603  23.304  0.00  0.00    +0.000 NA
ATOM      7  C   UNL     1      -0.874  11.079  22.095  0.00  0.00    +0.000 A 
ATOM      8  C   UNL     1      -1.793  12.159  22.121  0.00  0.00    +0.000 A 
ATOM      9  C   UNL     1      -2.450  12.713  21.016  0.00  0.00    +0.000 A 
ATOM     10  C   UNL     1      -2.064  12.040  19.830  0.00  0.00    +0.000 A 
ATOM     11  F   UNL     1      -2.722  12.285  18.684  0.00  0.00    +0.000 F 
ATOM     12  C   UNL     1      -1.031  11.010  19.758  0.00  0.00    +0.000 A 
ATOM     13  C   UNL     1      -0.354  10.483  20.909  0.00  0.00    +0.000 A 
BRANCH   9  14
ATOM     14  N   UNL     1      -3.468  13.705  21.162  0.00  0.00    +0.000 N 
ATOM     15  C   UNL     1      -3.152  15.142  20.893  0.00  0.00    +0.000 C 
ATOM     16  C   UNL     1      -4.436  16.024  20.744  0.00  0.00    +0.000 C 
ATOM     17  N   UNL     1      -5.363  15.957  21.885  0.00  0.00    +0.000 NA
ATOM     18  C   UNL     1      -5.693  14.547  22.131  0.00  0.00    +0.000 C 
ATOM     19  C   UNL     1      -4.452  13.614  22.303  0.00  0.00    +0.000 C 
ATOM     20  H   UNL     1      -6.218  16.468  21.657  0.00  0.00    +0.000 HD
ENDBRANCH   9  14
ENDBRANCH   1   3
BRANCH   1  24
ATOM     21  C   UNL     1       3.219   5.418  17.857  0.00  0.00    +0.000 A 
ATOM     22  C   UNL     1       3.076   6.757  17.430  0.00  0.00    +0.000 A 
ATOM     23  C   UNL     1       2.585   7.832  18.248  0.00  0.00    +0.000 A 
ATOM     24  C   UNL     1       2.187   7.639  19.569  0.00  0.00    +0.000 A 
ATOM     25  C   UNL     1       2.374   6.294  20.027  0.00  0.00    +0.000 A 
ATOM     26  C   UNL     1       2.907   5.214  19.208  0.00  0.00    +0.000 A 
ATOM     27 CL   UNL     1       3.199   3.702  20.004  0.00  0.00    +0.000 Cl
BRANCH  21  28
ATOM     28  O   UNL     1       3.673   4.554  16.867  0.00  0.00    +0.000 OA
BRANCH  28  29
ATOM     29  C   UNL     1       5.086   4.295  16.641  0.00  0.00    +0.000 C 
BRANCH  29  35
ATOM     30  F   UNL     1       8.054   8.205  17.034  0.00  0.00    +0.000 F 
ATOM     31  C   UNL     1       7.574   7.087  17.600  0.00  0.00    +0.000 A 
ATOM     32  C   UNL     1       8.006   6.735  18.868  0.00  0.00    +0.000 A 
ATOM     33  C   UNL     1       7.510   5.563  19.437  0.00  0.00    +0.000 A 
ATOM     34  C   UNL     1       6.576   4.757  18.744  0.00  0.00    +0.000 A 
ATOM     35  C   UNL     1       6.107   5.115  17.471  0.00  0.00    +0.000 A 
ATOM     36  C   UNL     1       6.648   6.297  16.905  0.00  0.00    +0.000 A 
ENDBRANCH  29  35
ENDBRANCH  28  29
ENDBRANCH  21  28
ENDBRANCH   1  24
TORSDOF 6
ENDMDL
MODEL 6
REMARK VINA RESULT:      -8.6      2.881      3.815
REMARK  Name = 
REMARK  6 active torsions:
REMARK  status: ('A' for Active; 'I' for Inactive)
REMARK    1  A    between atoms: C_6  and  C_7
REMARK    2  A    between atoms: C_7  and  O_8
REMARK    3  A    between atoms: O_8  and  C_9
REMARK    4  A    between atoms: C_12  and  N_13
REMARK    5  A    between atoms: N_13  and  C_14
REMARK    6  A    between atoms: C_20  and  N_21
REMARK                            x       y       z     vdW  Elec       q    Type
REMARK                         _______ _______ _______ _____ _____    ______ ____
ROOT
ATOM      1  N   UNL     1       1.251   8.388  20.563  0.00  0.00    +0.000 N 
ATOM      2  H   UNL     1       2.191   8.752  20.819  0.00  0.00    +0.000 HD
ENDROOT
BRANCH   1   3
ATOM      3  C   UNL     1       0.708   9.536  21.179  0.00  0.00    +0.000 A 
ATOM      4  N   UNL     1       0.359   9.141  22.419  0.00  0.00    +0.000 NA
ATOM      5  C   UNL     1      -0.317   9.973  23.211  0.00  0.00    +0.000 A 
ATOM      6  N   UNL     1      -0.542  11.253  22.969  0.00  0.00    +0.000 NA
ATOM      7  C   UNL     1      -0.259  11.698  21.758  0.00  0.00    +0.000 A 
ATOM      8  C   UNL     1      -0.653  13.049  21.584  0.00  0.00    +0.000 A 
ATOM      9  C   UNL     1      -0.737  13.737  20.367  0.00  0.00    +0.000 A 
ATOM     10  C   UNL     1      -0.361  12.885  19.299  0.00  0.00    +0.000 A 
ATOM     11  F   UNL     1      -0.556  13.286  18.031  0.00  0.00    +0.000 F 
ATOM     12  C   UNL     1       0.165  11.533  19.460  0.00  0.00    +0.000 A 
ATOM     13  C   UNL     1       0.266  10.866  20.727  0.00  0.00    +0.000 A 
BRANCH   9  14
ATOM     14  N   UNL     1      -1.284  15.054  20.280  0.00  0.00    +0.000 N 
ATOM     15  C   UNL     1      -0.556  16.114  19.516  0.00  0.00    +0.000 C 
ATOM     16  C   UNL     1      -1.450  17.363  19.216  0.00  0.00    +0.000 C 
ATOM     17  N   UNL     1      -2.059  17.981  20.405  0.00  0.00    +0.000 NA
ATOM     18  C   UNL     1      -2.796  16.945  21.139  0.00  0.00    +0.000 C 
ATOM     19  C   UNL     1      -1.953  15.674  21.482  0.00  0.00    +0.000 C 
ATOM     20  H   UNL     1      -2.710  18.712  20.109  0.00  0.00    +0.000 HD
ENDBRANCH   9  14
ENDBRANCH   1   3
BRANCH   1  24
ATOM     21  C   UNL     1       2.454   4.541  18.807  0.00  0.00    +0.000 A 
ATOM     22  C   UNL     1       2.588   5.781  18.143  0.00  0.00    +0.000 A 
ATOM     23  C   UNL     1       2.292   7.061  18.726  0.00  0.00    +0.000 A 
ATOM     24  C   UNL     1       1.824   7.192  20.032  0.00  0.00    +0.000 A 
ATOM     25  C   UNL     1       1.731   5.944  20.730  0.00  0.00    +0.000 A 
ATOM     26  C   UNL     1       2.068   4.651  20.150  0.00  0.00    +0.000 A 
ATOM     27 CL   UNL     1       2.036   3.285  21.216  0.00  0.00    +0.000 Cl
BRANCH  21  28
ATOM     28  O   UNL     1       2.761   3.439  18.016  0.00  0.00    +0.000 OA
BRANCH  28  29
ATOM     29  C   UNL     1       4.119   2.948  17.849  0.00  0.00    +0.000 C 
BRANCH  29  35
ATOM     30  F   UNL     1       8.033   5.881  18.433  0.00  0.00    +0.000 F 
ATOM     31  C   UNL     1       7.115   5.372  17.597  0.00  0.00    +0.000 A 
ATOM     32  C   UNL     1       7.148   5.731  16.260  0.00  0.00    +0.000 A 
ATOM     33  C   UNL     1       6.178   5.207  15.406  0.00  0.00    +0.000 A 
ATOM     34  C   UNL     1       5.191   4.316  15.889  0.00  0.00    +0.000 A 
ATOM     35  C   UNL     1       5.161   3.919  17.235  0.00  0.00    +0.000 A 
ATOM     36  C   UNL     1       6.142   4.489  18.085  0.00  0.00    +0.000 A 
ENDBRANCH  29  35
ENDBRANCH  28  29
ENDBRANCH  21  28
ENDBRANCH   1  24
TORSDOF 6
ENDMDL
MODEL 7
REMARK VINA RESULT:      -8.6      2.983      3.927
REMARK  Name = 
REMARK  6 active torsions:
REMARK  status: ('A' for Active; 'I' for Inactive)
REMARK    1  A    between atoms: C_6  and  C_7
REMARK    2  A    between atoms: C_7  and  O_8
REMARK    3  A    between atoms: O_8  and  C_9
REMARK    4  A    between atoms: C_12  and  N_13
REMARK    5  A    between atoms: N_13  and  C_14
REMARK    6  A    between atoms: C_20  and  N_21
REMARK                            x       y       z     vdW  Elec       q    Type
REMARK                         _______ _______ _______ _____ _____    ______ ____
ROOT
ATOM      1  N   UNL     1       1.507   8.362  20.376  0.00  0.00    +0.000 N 
ATOM      2  H   UNL     1       1.815   9.090  19.701  0.00  0.00    +0.000 HD
ENDROOT
BRANCH   1   3
ATOM      3  C   UNL     1       0.885   9.393  21.110  0.00  0.00    +0.000 A 
ATOM      4  N   UNL     1       0.660   8.870  22.332  0.00  0.00    +0.000 NA
ATOM      5  C   UNL     1      -0.049   9.561  23.225  0.00  0.00    +0.000 A 
ATOM      6  N   UNL     1      -0.425  10.823  23.099  0.00  0.00    +0.000 NA
ATOM      7  C   UNL     1      -0.269  11.385  21.914  0.00  0.00    +0.000 A 
ATOM      8  C   UNL     1      -0.816  12.693  21.871  0.00  0.00    +0.000 A 
ATOM      9  C   UNL     1      -1.050  13.455  20.720  0.00  0.00    +0.000 A 
ATOM     10  C   UNL     1      -0.654  12.732  19.568  0.00  0.00    +0.000 A 
ATOM     11  F   UNL     1      -0.972  13.200  18.349  0.00  0.00    +0.000 F 
ATOM     12  C   UNL     1       0.023  11.438  19.590  0.00  0.00    +0.000 A 
ATOM     13  C   UNL     1       0.275  10.694  20.792  0.00  0.00    +0.000 A 
BRANCH   9  14
ATOM     14  N   UNL     1      -1.739  14.705  20.769  0.00  0.00    +0.000 N 
ATOM     15  C   UNL     1      -1.111  15.925  20.174  0.00  0.00    +0.000 C 
ATOM     16  C   UNL     1      -2.131  17.098  19.989  0.00  0.00    +0.000 C 
ATOM     17  N   UNL     1      -2.844  17.492  21.215  0.00  0.00    +0.000 NA
ATOM     18  C   UNL     1      -3.481  16.298  21.783  0.00  0.00    +0.000 C 
ATOM     19  C   UNL     1      -2.513  15.092  22.006  0.00  0.00    +0.000 C 
ATOM     20  H   UNL     1      -3.563  18.180  20.982  0.00  0.00    +0.000 HD
ENDBRANCH   9  14
ENDBRANCH   1   3
BRANCH   1  24
ATOM     21  C   UNL     1       3.186   5.018  18.065  0.00  0.00    +0.000 A 
ATOM     22  C   UNL     1       3.078   6.337  17.569  0.00  0.00    +0.000 A 
ATOM     23  C   UNL     1       2.623   7.466  18.332  0.00  0.00    +0.000 A 
ATOM     24  C   UNL     1       2.226   7.353  19.663  0.00  0.00    +0.000 A 
ATOM     25  C   UNL     1       2.378   6.029  20.190  0.00  0.00    +0.000 A 
ATOM     26  C   UNL     1       2.875   4.893  19.426  0.00  0.00    +0.000 A 
ATOM     27 CL   UNL     1       3.130   3.417  20.298  0.00  0.00    +0.000 Cl
BRANCH  21  28
ATOM     28  O   UNL     1       3.611   4.091  17.120  0.00  0.00    +0.000 OA
BRANCH  28  29
ATOM     29  C   UNL     1       4.995   3.990  16.687  0.00  0.00    +0.000 C 
BRANCH  29  35
ATOM     30  F   UNL     1       7.877   5.454  20.403  0.00  0.00    +0.000 F 
ATOM     31  C   UNL     1       7.418   5.692  19.165  0.00  0.00    +0.000 A 
ATOM     32  C   UNL     1       7.862   6.815  18.487  0.00  0.00    +0.000 A 
ATOM     33  C   UNL     1       7.365   7.059  17.207  0.00  0.00    +0.000 A 
ATOM     34  C   UNL     1       6.441   6.173  16.606  0.00  0.00    +0.000 A 
ATOM     35  C   UNL     1       6.003   5.015  17.268  0.00  0.00    +0.000 A 
ATOM     36  C   UNL     1       6.504   4.807  18.578  0.00  0.00    +0.000 A 
ENDBRANCH  29  35
ENDBRANCH  28  29
ENDBRANCH  21  28
ENDBRANCH   1  24
TORSDOF 6
ENDMDL
MODEL 8
REMARK VINA RESULT:      -8.6      2.785      3.798
REMARK  Name = 
REMARK  6 active torsions:
REMARK  status: ('A' for Active; 'I' for Inactive)
REMARK    1  A    between atoms: C_6  and  C_7
REMARK    2  A    between atoms: C_7  and  O_8
REMARK    3  A    between atoms: O_8  and  C_9
REMARK    4  A    between atoms: C_12  and  N_13
REMARK    5  A    between atoms: N_13  and  C_14
REMARK    6  A    between atoms: C_20  and  N_21
REMARK                            x       y       z     vdW  Elec       q    Type
REMARK                         _______ _______ _______ _____ _____    ______ ____
ROOT
ATOM      1  N   UNL     1       1.192   8.465  20.713  0.00  0.00    +0.000 N 
ATOM      2  H   UNL     1       0.559   8.595  19.899  0.00  0.00    +0.000 HD
ENDROOT
BRANCH   1   3
ATOM      3  C   UNL     1       0.659   9.660  21.241  0.00  0.00    +0.000 A 
ATOM      4  N   UNL     1       0.254   9.346  22.487  0.00  0.00    +0.000 NA
ATOM      5  C   UNL     1      -0.427  10.240  23.204  0.00  0.00    +0.000 A 
ATOM      6  N   UNL     1      -0.607  11.510  22.881  0.00  0.00    +0.000 NA
ATOM      7  C   UNL     1      -0.267  11.876  21.658  0.00  0.00    +0.000 A 
ATOM      8  C   UNL     1      -0.617  13.224  21.393  0.00  0.00    +0.000 A 
ATOM      9  C   UNL     1      -0.637  13.842  20.136  0.00  0.00    +0.000 A 
ATOM     10  C   UNL     1      -0.246  12.921  19.133  0.00  0.00    +0.000 A 
ATOM     11  F   UNL     1      -0.384  13.252  17.838  0.00  0.00    +0.000 F 
ATOM     12  C   UNL     1       0.236  11.567  19.391  0.00  0.00    +0.000 A 
ATOM     13  C   UNL     1       0.271  10.972  20.697  0.00  0.00    +0.000 A 
BRANCH   9  14
ATOM     14  N   UNL     1      -1.144  15.166  19.953  0.00  0.00    +0.000 N 
ATOM     15  C   UNL     1      -0.346  16.168  19.182  0.00  0.00    +0.000 C 
ATOM     16  C   UNL     1      -1.189  17.421  18.770  0.00  0.00    +0.000 C 
ATOM     17  N   UNL     1      -1.849  18.113  19.890  0.00  0.00    +0.000 NA
ATOM     18  C   UNL     1      -2.652  17.132  20.630  0.00  0.00    +0.000 C 
ATOM     19  C   UNL     1      -1.864  15.861  21.083  0.00  0.00    +0.000 C 
ATOM     20  H   UNL     1      -2.462  18.843  19.522  0.00  0.00    +0.000 HD
ENDBRANCH   9  14
ENDBRANCH   1   3
BRANCH   1  24
ATOM     21  C   UNL     1       2.451   4.778  18.673  0.00  0.00    +0.000 A 
ATOM     22  C   UNL     1       2.674   6.074  18.157  0.00  0.00    +0.000 A 
ATOM     23  C   UNL     1       2.359   7.297  18.843  0.00  0.00    +0.000 A 
ATOM     24  C   UNL     1       1.780   7.310  20.110  0.00  0.00    +0.000 A 
ATOM     25  C   UNL     1       1.595   6.001  20.664  0.00  0.00    +0.000 A 
ATOM     26  C   UNL     1       1.949   4.764  19.982  0.00  0.00    +0.000 A 
ATOM     27 CL   UNL     1       1.789   3.298  20.893  0.00  0.00    +0.000 Cl
BRANCH  21  28
ATOM     28  O   UNL     1       2.799   3.753  17.801  0.00  0.00    +0.000 OA
BRANCH  28  29
ATOM     29  C   UNL     1       4.118   3.142  17.796  0.00  0.00    +0.000 C 
BRANCH  29  35
ATOM     30  F   UNL     1       6.427   3.947  13.521  0.00  0.00    +0.000 F 
ATOM     31  C   UNL     1       6.351   4.215  14.834  0.00  0.00    +0.000 A 
ATOM     32  C   UNL     1       7.255   5.101  15.395  0.00  0.00    +0.000 A 
ATOM     33  C   UNL     1       7.173   5.357  16.764  0.00  0.00    +0.000 A 
ATOM     34  C   UNL     1       6.180   4.740  17.560  0.00  0.00    +0.000 A 
ATOM     35  C   UNL     1       5.238   3.862  17.001  0.00  0.00    +0.000 A 
ATOM     36  C   UNL     1       5.362   3.598  15.614  0.00  0.00    +0.000 A 
ENDBRANCH  29  35
ENDBRANCH  28  29
ENDBRANCH  21  28
ENDBRANCH   1  24
TORSDOF 6
ENDMDL
MODEL 9
REMARK VINA RESULT:      -8.5      3.015      3.947
REMARK  Name = 
REMARK  6 active torsions:
REMARK  status: ('A' for Active; 'I' for Inactive)
REMARK    1  A    between atoms: C_6  and  C_7
REMARK    2  A    between atoms: C_7  and  O_8
REMARK    3  A    between atoms: O_8  and  C_9
REMARK    4  A    between atoms: C_12  and  N_13
REMARK    5  A    between atoms: N_13  and  C_14
REMARK    6  A    between atoms: C_20  and  N_21
REMARK                            x       y       z     vdW  Elec       q    Type
REMARK                         _______ _______ _______ _____ _____    ______ ____
ROOT
ATOM      1  N   UNL     1       1.373   8.564  20.781  0.00  0.00    +0.000 N 
ATOM      2  H   UNL     1       1.126   8.042  21.645  0.00  0.00    +0.000 HD
ENDROOT
BRANCH   1   3
ATOM      3  C   UNL     1       0.820   9.711  21.389  0.00  0.00    +0.000 A 
ATOM      4  N   UNL     1       0.106   9.246  22.433  0.00  0.00    +0.000 NA
ATOM      5  C   UNL     1      -0.659  10.084  23.134  0.00  0.00    +0.000 A 
ATOM      6  N   UNL     1      -0.662  11.402  23.020  0.00  0.00    +0.000 NA
ATOM      7  C   UNL     1      -0.012  11.921  21.993  0.00  0.00    +0.000 A 
ATOM      8  C   UNL     1      -0.187  13.326  21.911  0.00  0.00    +0.000 A 
ATOM      9  C   UNL     1       0.140  14.138  20.818  0.00  0.00    +0.000 A 
ATOM     10  C   UNL     1       0.690  13.353  19.775  0.00  0.00    +0.000 A 
ATOM     11  F   UNL     1       0.891  13.905  18.566  0.00  0.00    +0.000 F 
ATOM     12  C   UNL     1       0.994  11.929  19.878  0.00  0.00    +0.000 A 
ATOM     13  C   UNL     1       0.672  11.129  21.025  0.00  0.00    +0.000 A 
BRANCH   9  14
ATOM     14  N   UNL     1      -0.208  15.523  20.776  0.00  0.00    +0.000 N 
ATOM     15  C   UNL     1      -1.393  15.969  19.979  0.00  0.00    +0.000 C 
ATOM     16  C   UNL     1      -1.842  17.427  20.331  0.00  0.00    +0.000 C 
ATOM     17  N   UNL     1      -0.784  18.443  20.202  0.00  0.00    +0.000 NA
ATOM     18  C   UNL     1       0.368  18.016  21.006  0.00  0.00    +0.000 C 
ATOM     19  C   UNL     1       0.874  16.571  20.693  0.00  0.00    +0.000 C 
ATOM     20  H   UNL     1      -1.130  19.337  20.556  0.00  0.00    +0.000 HD
ENDBRANCH   9  14
ENDBRANCH   1   3
BRANCH   1  24
ATOM     21  C   UNL     1       2.240   4.779  18.715  0.00  0.00    +0.000 A 
ATOM     22  C   UNL     1       2.499   6.052  18.159  0.00  0.00    +0.000 A 
ATOM     23  C   UNL     1       2.314   7.301  18.846  0.00  0.00    +0.000 A 
ATOM     24  C   UNL     1       1.840   7.367  20.155  0.00  0.00    +0.000 A 
ATOM     25  C   UNL     1       1.622   6.080  20.744  0.00  0.00    +0.000 A 
ATOM     26  C   UNL     1       1.845   4.814  20.059  0.00  0.00    +0.000 A 
ATOM     27 CL   UNL     1       1.670   3.372  21.006  0.00  0.00    +0.000 Cl
BRANCH  21  28
ATOM     28  O   UNL     1       2.455   3.724  17.837  0.00  0.00    +0.000 OA
BRANCH  28  29
ATOM     29  C   UNL     1       3.751   3.085  17.682  0.00  0.00    +0.000 C 
BRANCH  29  35
ATOM     30  F   UNL     1       7.888   5.605  18.573  0.00  0.00    +0.000 F 
ATOM     31  C   UNL     1       6.980   5.202  17.671  0.00  0.00    +0.000 A 
ATOM     32  C   UNL     1       7.135   5.576  16.346  0.00  0.00    +0.000 A 
ATOM     33  C   UNL     1       6.176   5.163  15.422  0.00  0.00    +0.000 A 
ATOM     34  C   UNL     1       5.077   4.367  15.822  0.00  0.00    +0.000 A 
ATOM     35  C   UNL     1       4.922   3.955  17.155  0.00  0.00    +0.000 A 
ATOM     36  C   UNL     1       5.896   4.413  18.078  0.00  0.00    +0.000 A 
ENDBRANCH  29  35
ENDBRANCH  28  29
ENDBRANCH  21  28
ENDBRANCH   1  24
TORSDOF 6
ENDMDL
