MODEL 1
REMARK VINA RESULT:      -7.6      0.000      0.000
REMARK  Name = 
REMARK  4 active torsions:
REMARK  status: ('A' for Active; 'I' for Inactive)
REMARK    1  A    between atoms: C_1  and  C_2
REMARK    2  A    between atoms: C_3  and  C_4
REMARK    3  A    between atoms: C_15  and  C_16
REMARK    4  A    between atoms: C_16  and  O_18
REMARK                            x       y       z     vdW  Elec       q    Type
REMARK                         _______ _______ _______ _____ _____    ______ ____
ROOT
ATOM      1  C   UNL     1       2.693   8.631  17.466  0.00  0.00    +0.000 C 
ATOM      2  C   UNL     1       2.600   7.566  18.507  0.00  0.00    +0.000 A 
ATOM      3  C   UNL     1       3.098   6.271  18.546  0.00  0.00    +0.000 A 
ATOM      4  C   UNL     1       2.783   5.819  19.845  0.00  0.00    +0.000 A 
ATOM      5  N   UNL     1       2.100   6.710  20.560  0.00  0.00    +0.000 NA
ATOM      6  N   UNL     1       1.945   7.773  19.721  0.00  0.00    +0.000 N 
ATOM      7  C   UNL     1       1.161   8.911  20.122  0.00  0.00    +0.000 A 
ATOM      8  C   UNL     1       0.651   8.963  21.417  0.00  0.00    +0.000 A 
ATOM      9  C   UNL     1      -0.149  10.054  21.767  0.00  0.00    +0.000 A 
ATOM     10  C   UNL     1      -0.385  11.071  20.842  0.00  0.00    +0.000 A 
ATOM     11  C   UNL     1       0.169  10.948  19.589  0.00  0.00    +0.000 A 
ATOM     12  N   UNL     1       0.919   9.893  19.213  0.00  0.00    +0.000 NA
ENDROOT
BRANCH   3  13
ATOM     13  C   UNL     1       3.866   5.609  17.496  0.00  0.00    +0.000 A 
ATOM     14  C   UNL     1       3.809   4.216  17.343  0.00  0.00    +0.000 A 
ATOM     15  C   UNL     1       4.610   3.569  16.396  0.00  0.00    +0.000 A 
ATOM     16  C   UNL     1       5.483   4.305  15.596  0.00  0.00    +0.000 A 
ATOM     17  C   UNL     1       5.517   5.690  15.705  0.00  0.00    +0.000 A 
ATOM     18  C   UNL     1       4.690   6.338  16.626  0.00  0.00    +0.000 A 
ENDBRANCH   3  13
BRANCH   9  19
ATOM     19  C   UNL     1      -0.738  10.217  23.117  0.00  0.00    +0.000 C 
ATOM     20  O   UNL     1      -1.703  10.935  23.329  0.00  0.00    +0.000 OA
BRANCH  19  21
ATOM     21  O   UNL     1      -0.149   9.479  24.081  0.00  0.00    +0.000 OA
ATOM     22  H   UNL     1      -0.603   8.655  24.334  0.00  0.00    +0.000 HD
ENDBRANCH  19  21
ENDBRANCH   9  19
TORSDOF 3
ENDMDL
MODEL 2
REMARK VINA RESULT:      -7.5      0.090      1.054
REMARK  Name = 
REMARK  4 active torsions:
REMARK  status: ('A' for Active; 'I' for Inactive)
REMARK    1  A    between atoms: C_1  and  C_2
REMARK    2  A    between atoms: C_3  and  C_4
REMARK    3  A    between atoms: C_15  and  C_16
REMARK    4  A    between atoms: C_16  and  O_18
REMARK                            x       y       z     vdW  Elec       q    Type
REMARK                         _______ _______ _______ _____ _____    ______ ____
ROOT
ATOM      1  C   UNL     1       2.718   8.624  17.522  0.00  0.00    +0.000 C 
ATOM      2  C   UNL     1       2.633   7.569  18.574  0.00  0.00    +0.000 A 
ATOM      3  C   UNL     1       3.150   6.281  18.630  0.00  0.00    +0.000 A 
ATOM      4  C   UNL     1       2.832   5.839  19.932  0.00  0.00    +0.000 A 
ATOM      5  N   UNL     1       2.130   6.728  20.632  0.00  0.00    +0.000 NA
ATOM      6  N   UNL     1       1.966   7.779  19.780  0.00  0.00    +0.000 N 
ATOM      7  C   UNL     1       1.162   8.909  20.163  0.00  0.00    +0.000 A 
ATOM      8  C   UNL     1       0.642   8.968  21.453  0.00  0.00    +0.000 A 
ATOM      9  C   UNL     1      -0.176  10.051  21.786  0.00  0.00    +0.000 A 
ATOM     10  C   UNL     1      -0.421  11.054  20.848  0.00  0.00    +0.000 A 
ATOM     11  C   UNL     1       0.144  10.925  19.600  0.00  0.00    +0.000 A 
ATOM     12  N   UNL     1       0.912   9.878  19.241  0.00  0.00    +0.000 NA
ENDROOT
BRANCH   3  13
ATOM     13  C   UNL     1       3.935   5.620  17.593  0.00  0.00    +0.000 A 
ATOM     14  C   UNL     1       4.753   6.366  16.732  0.00  0.00    +0.000 A 
ATOM     15  C   UNL     1       5.438   5.747  15.682  0.00  0.00    +0.000 A 
ATOM     16  C   UNL     1       5.308   4.375  15.474  0.00  0.00    +0.000 A 
ATOM     17  C   UNL     1       4.537   3.614  16.346  0.00  0.00    +0.000 A 
ATOM     18  C   UNL     1       3.883   4.229  17.416  0.00  0.00    +0.000 A 
ENDBRANCH   3  13
BRANCH   9  19
ATOM     19  C   UNL     1      -0.778  10.220  23.130  0.00  0.00    +0.000 C 
ATOM     20  O   UNL     1      -1.767  10.910  23.323  0.00  0.00    +0.000 OA
BRANCH  19  21
ATOM     21  O   UNL     1      -0.172   9.519  24.110  0.00  0.00    +0.000 OA
ATOM     22  H   UNL     1       0.528   8.901  23.831  0.00  0.00    +0.000 HD
ENDBRANCH  19  21
ENDBRANCH   9  19
TORSDOF 3
ENDMDL
MODEL 3
REMARK VINA RESULT:      -7.4      3.168      8.344
REMARK  Name = 
REMARK  4 active torsions:
REMARK  status: ('A' for Active; 'I' for Inactive)
REMARK    1  A    between atoms: C_1  and  C_2
REMARK    2  A    between atoms: C_3  and  C_4
REMARK    3  A    between atoms: C_15  and  C_16
REMARK    4  A    between atoms: C_16  and  O_18
REMARK                            x       y       z     vdW  Elec       q    Type
REMARK                         _______ _______ _______ _____ _____    ______ ____
ROOT
ATOM      1  C   UNL     1      -0.826  11.655  20.045  0.00  0.00    +0.000 C 
ATOM      2  C   UNL     1      -0.503  10.897  21.289  0.00  0.00    +0.000 A 
ATOM      3  C   UNL     1      -0.862  11.106  22.614  0.00  0.00    +0.000 A 
ATOM      4  C   UNL     1      -0.349   9.979  23.291  0.00  0.00    +0.000 A 
ATOM      5  N   UNL     1       0.324   9.149  22.497  0.00  0.00    +0.000 NA
ATOM      6  N   UNL     1       0.270   9.736  21.268  0.00  0.00    +0.000 N 
ATOM      7  C   UNL     1       0.980   9.164  20.154  0.00  0.00    +0.000 A 
ATOM      8  C   UNL     1       1.635   7.947  20.319  0.00  0.00    +0.000 A 
ATOM      9  C   UNL     1       2.359   7.436  19.238  0.00  0.00    +0.000 A 
ATOM     10  C   UNL     1       2.379   8.125  18.025  0.00  0.00    +0.000 A 
ATOM     11  C   UNL     1       1.693   9.314  17.944  0.00  0.00    +0.000 A 
ATOM     12  N   UNL     1       1.012   9.846  18.978  0.00  0.00    +0.000 NA
ENDROOT
BRANCH   3  13
ATOM     13  C   UNL     1      -1.681  12.200  23.125  0.00  0.00    +0.000 A 
ATOM     14  C   UNL     1      -1.135  13.481  23.291  0.00  0.00    +0.000 A 
ATOM     15  C   UNL     1      -1.890  14.511  23.862  0.00  0.00    +0.000 A 
ATOM     16  C   UNL     1      -3.197  14.270  24.282  0.00  0.00    +0.000 A 
ATOM     17  C   UNL     1      -3.767  13.017  24.082  0.00  0.00    +0.000 A 
ATOM     18  C   UNL     1      -3.023  12.001  23.478  0.00  0.00    +0.000 A 
ENDBRANCH   3  13
BRANCH   9  19
ATOM     19  C   UNL     1       3.088   6.147  19.297  0.00  0.00    +0.000 C 
ATOM     20  O   UNL     1       3.771   5.737  18.371  0.00  0.00    +0.000 OA
BRANCH  19  21
ATOM     21  O   UNL     1       2.968   5.486  20.467  0.00  0.00    +0.000 OA
ATOM     22  H   UNL     1       2.092   5.513  20.892  0.00  0.00    +0.000 HD
ENDBRANCH  19  21
ENDBRANCH   9  19
TORSDOF 3
ENDMDL
MODEL 4
REMARK VINA RESULT:      -7.4      3.898      7.218
REMARK  Name = 
REMARK  4 active torsions:
REMARK  status: ('A' for Active; 'I' for Inactive)
REMARK    1  A    between atoms: C_1  and  C_2
REMARK    2  A    between atoms: C_3  and  C_4
REMARK    3  A    between atoms: C_15  and  C_16
REMARK    4  A    between atoms: C_16  and  O_18
REMARK                            x       y       z     vdW  Elec       q    Type
REMARK                         _______ _______ _______ _____ _____    ______ ____
ROOT
ATOM      1  C   UNL     1       0.925   8.430  21.003  0.00  0.00    +0.000 C 
ATOM      2  C   UNL     1       1.482   8.501  19.621  0.00  0.00    +0.000 A 
ATOM      3  C   UNL     1       1.465   9.515  18.672  0.00  0.00    +0.000 A 
ATOM      4  C   UNL     1       2.265   9.017  17.621  0.00  0.00    +0.000 A 
ATOM      5  N   UNL     1       2.710   7.782  17.840  0.00  0.00    +0.000 NA
ATOM      6  N   UNL     1       2.191   7.442  19.054  0.00  0.00    +0.000 N 
ATOM      7  C   UNL     1       2.385   6.120  19.586  0.00  0.00    +0.000 A 
ATOM      8  C   UNL     1       3.200   5.223  18.900  0.00  0.00    +0.000 A 
ATOM      9  C   UNL     1       3.333   3.929  19.411  0.00  0.00    +0.000 A 
ATOM     10  C   UNL     1       2.689   3.578  20.598  0.00  0.00    +0.000 A 
ATOM     11  C   UNL     1       1.915   4.530  21.220  0.00  0.00    +0.000 A 
ATOM     12  N   UNL     1       1.743   5.775  20.736  0.00  0.00    +0.000 NA
ENDROOT
BRANCH   3  13
ATOM     13  C   UNL     1       0.841  10.825  18.820  0.00  0.00    +0.000 A 
ATOM     14  C   UNL     1      -0.554  10.963  18.752  0.00  0.00    +0.000 A 
ATOM     15  C   UNL     1      -1.150  12.227  18.805  0.00  0.00    +0.000 A 
ATOM     16  C   UNL     1      -0.360  13.370  18.918  0.00  0.00    +0.000 A 
ATOM     17  C   UNL     1       1.020  13.247  19.032  0.00  0.00    +0.000 A 
ATOM     18  C   UNL     1       1.611  11.981  19.015  0.00  0.00    +0.000 A 
ENDBRANCH   3  13
BRANCH   9  19
ATOM     19  C   UNL     1       4.178   2.895  18.767  0.00  0.00    +0.000 C 
ATOM     20  O   UNL     1       3.944   2.459  17.651  0.00  0.00    +0.000 OA
BRANCH  19  21
ATOM     21  O   UNL     1       5.244   2.506  19.497  0.00  0.00    +0.000 OA
ATOM     22  H   UNL     1       5.061   2.211  20.408  0.00  0.00    +0.000 HD
ENDBRANCH  19  21
ENDBRANCH   9  19
TORSDOF 3
ENDMDL
MODEL 5
REMARK VINA RESULT:      -7.4      4.123      7.982
REMARK  Name = 
REMARK  4 active torsions:
REMARK  status: ('A' for Active; 'I' for Inactive)
REMARK    1  A    between atoms: C_1  and  C_2
REMARK    2  A    between atoms: C_3  and  C_4
REMARK    3  A    between atoms: C_15  and  C_16
REMARK    4  A    between atoms: C_16  and  O_18
REMARK                            x       y       z     vdW  Elec       q    Type
REMARK                         _______ _______ _______ _____ _____    ______ ____
ROOT
ATOM      1  C   UNL     1       2.120   6.111  20.402  0.00  0.00    +0.000 C 
ATOM      2  C   UNL     1       2.281   7.213  19.409  0.00  0.00    +0.000 A 
ATOM      3  C   UNL     1       1.769   8.503  19.374  0.00  0.00    +0.000 A 
ATOM      4  C   UNL     1       2.386   9.088  18.248  0.00  0.00    +0.000 A 
ATOM      5  N   UNL     1       3.175   8.246  17.584  0.00  0.00    +0.000 NA
ATOM      6  N   UNL     1       3.077   7.073  18.272  0.00  0.00    +0.000 N 
ATOM      7  C   UNL     1       3.731   5.887  17.789  0.00  0.00    +0.000 A 
ATOM      8  C   UNL     1       4.554   5.973  16.669  0.00  0.00    +0.000 A 
ATOM      9  C   UNL     1       5.139   4.798  16.188  0.00  0.00    +0.000 A 
ATOM     10  C   UNL     1       4.921   3.589  16.851  0.00  0.00    +0.000 A 
ATOM     11  C   UNL     1       4.105   3.596  17.958  0.00  0.00    +0.000 A 
ATOM     12  N   UNL     1       3.504   4.707  18.427  0.00  0.00    +0.000 NA
ENDROOT
BRANCH   3  13
ATOM     13  C   UNL     1       0.884   9.108  20.364  0.00  0.00    +0.000 A 
ATOM     14  C   UNL     1      -0.027  10.107  19.990  0.00  0.00    +0.000 A 
ATOM     15  C   UNL     1      -0.815  10.751  20.949  0.00  0.00    +0.000 A 
ATOM     16  C   UNL     1      -0.696  10.411  22.296  0.00  0.00    +0.000 A 
ATOM     17  C   UNL     1       0.170   9.392  22.677  0.00  0.00    +0.000 A 
ATOM     18  C   UNL     1       0.929   8.726  21.713  0.00  0.00    +0.000 A 
ENDBRANCH   3  13
BRANCH   9  19
ATOM     19  C   UNL     1       6.036   4.771  15.009  0.00  0.00    +0.000 C 
ATOM     20  O   UNL     1       5.722   4.233  13.959  0.00  0.00    +0.000 OA
BRANCH  19  21
ATOM     21  O   UNL     1       7.206   5.422  15.178  0.00  0.00    +0.000 OA
ATOM     22  H   UNL     1       7.416   5.707  16.086  0.00  0.00    +0.000 HD
ENDBRANCH  19  21
ENDBRANCH   9  19
TORSDOF 3
ENDMDL
MODEL 6
REMARK VINA RESULT:      -7.3      3.732      7.473
REMARK  Name = 
REMARK  4 active torsions:
REMARK  status: ('A' for Active; 'I' for Inactive)
REMARK    1  A    between atoms: C_1  and  C_2
REMARK    2  A    between atoms: C_3  and  C_4
REMARK    3  A    between atoms: C_15  and  C_16
REMARK    4  A    between atoms: C_16  and  O_18
REMARK                            x       y       z     vdW  Elec       q    Type
REMARK                         _______ _______ _______ _____ _____    ______ ____
ROOT
ATOM      1  C   UNL     1       0.801   8.483  21.210  0.00  0.00    +0.000 C 
ATOM      2  C   UNL     1       1.304   8.753  19.832  0.00  0.00    +0.000 A 
ATOM      3  C   UNL     1       1.159   9.854  18.998  0.00  0.00    +0.000 A 
ATOM      4  C   UNL     1       1.970   9.551  17.883  0.00  0.00    +0.000 A 
ATOM      5  N   UNL     1       2.539   8.349  17.959  0.00  0.00    +0.000 NA
ATOM      6  N   UNL     1       2.094   7.835  19.140  0.00  0.00    +0.000 N 
ATOM      7  C   UNL     1       2.431   6.490  19.523  0.00  0.00    +0.000 A 
ATOM      8  C   UNL     1       3.306   5.755  18.727  0.00  0.00    +0.000 A 
ATOM      9  C   UNL     1       3.579   4.434  19.093  0.00  0.00    +0.000 A 
ATOM     10  C   UNL     1       3.011   3.899  20.249  0.00  0.00    +0.000 A 
ATOM     11  C   UNL     1       2.168   4.699  20.986  0.00  0.00    +0.000 A 
ATOM     12  N   UNL     1       1.862   5.965  20.642  0.00  0.00    +0.000 NA
ENDROOT
BRANCH   3  13
ATOM     13  C   UNL     1       0.417  11.074  19.299  0.00  0.00    +0.000 A 
ATOM     14  C   UNL     1       1.088  12.230  19.724  0.00  0.00    +0.000 A 
ATOM     15  C   UNL     1       0.374  13.373  20.097  0.00  0.00    +0.000 A 
ATOM     16  C   UNL     1      -1.019  13.373  20.058  0.00  0.00    +0.000 A 
ATOM     17  C   UNL     1      -1.696  12.250  19.596  0.00  0.00    +0.000 A 
ATOM     18  C   UNL     1      -0.980  11.122  19.190  0.00  0.00    +0.000 A 
ENDBRANCH   3  13
BRANCH   9  19
ATOM     19  C   UNL     1       4.499   3.562  18.325  0.00  0.00    +0.000 C 
ATOM     20  O   UNL     1       4.122   2.879  17.386  0.00  0.00    +0.000 OA
BRANCH  19  21
ATOM     21  O   UNL     1       5.788   3.616  18.721  0.00  0.00    +0.000 OA
ATOM     22  H   UNL     1       5.949   3.940  19.625  0.00  0.00    +0.000 HD
ENDBRANCH  19  21
ENDBRANCH   9  19
TORSDOF 3
ENDMDL
MODEL 7
REMARK VINA RESULT:      -7.3      3.179      8.261
REMARK  Name = 
REMARK  4 active torsions:
REMARK  status: ('A' for Active; 'I' for Inactive)
REMARK    1  A    between atoms: C_1  and  C_2
REMARK    2  A    between atoms: C_3  and  C_4
REMARK    3  A    between atoms: C_15  and  C_16
REMARK    4  A    between atoms: C_16  and  O_18
REMARK                            x       y       z     vdW  Elec       q    Type
REMARK                         _______ _______ _______ _____ _____    ______ ____
ROOT
ATOM      1  C   UNL     1      -0.677  11.813  20.023  0.00  0.00    +0.000 C 
ATOM      2  C   UNL     1      -0.435  10.966  21.228  0.00  0.00    +0.000 A 
ATOM      3  C   UNL     1      -0.834  11.111  22.549  0.00  0.00    +0.000 A 
ATOM      4  C   UNL     1      -0.397   9.922  23.173  0.00  0.00    +0.000 A 
ATOM      5  N   UNL     1       0.269   9.113  22.352  0.00  0.00    +0.000 NA
ATOM      6  N   UNL     1       0.287   9.775  21.161  0.00  0.00    +0.000 N 
ATOM      7  C   UNL     1       1.013   9.240  20.040  0.00  0.00    +0.000 A 
ATOM      8  C   UNL     1       1.607   7.986  20.151  0.00  0.00    +0.000 A 
ATOM      9  C   UNL     1       2.349   7.509  19.066  0.00  0.00    +0.000 A 
ATOM     10  C   UNL     1       2.445   8.269  17.900  0.00  0.00    +0.000 A 
ATOM     11  C   UNL     1       1.816   9.492  17.870  0.00  0.00    +0.000 A 
ATOM     12  N   UNL     1       1.120   9.990  18.910  0.00  0.00    +0.000 NA
ENDROOT
BRANCH   3  13
ATOM     13  C   UNL     1      -1.624  12.208  23.099  0.00  0.00    +0.000 A 
ATOM     14  C   UNL     1      -2.966  12.011  23.456  0.00  0.00    +0.000 A 
ATOM     15  C   UNL     1      -3.751  13.081  23.900  0.00  0.00    +0.000 A 
ATOM     16  C   UNL     1      -3.206  14.361  23.985  0.00  0.00    +0.000 A 
ATOM     17  C   UNL     1      -1.865  14.563  23.677  0.00  0.00    +0.000 A 
ATOM     18  C   UNL     1      -1.074  13.487  23.269  0.00  0.00    +0.000 A 
ENDBRANCH   3  13
BRANCH   9  19
ATOM     19  C   UNL     1       3.019   6.187  19.070  0.00  0.00    +0.000 C 
ATOM     20  O   UNL     1       3.368   5.626  18.043  0.00  0.00    +0.000 OA
BRANCH  19  21
ATOM     21  O   UNL     1       3.246   5.675  20.298  0.00  0.00    +0.000 OA
ATOM     22  H   UNL     1       2.466   5.346  20.781  0.00  0.00    +0.000 HD
ENDBRANCH  19  21
ENDBRANCH   9  19
TORSDOF 3
ENDMDL
MODEL 8
REMARK VINA RESULT:      -7.3      3.877      7.733
REMARK  Name = 
REMARK  4 active torsions:
REMARK  status: ('A' for Active; 'I' for Inactive)
REMARK    1  A    between atoms: C_1  and  C_2
REMARK    2  A    between atoms: C_3  and  C_4
REMARK    3  A    between atoms: C_15  and  C_16
REMARK    4  A    between atoms: C_16  and  O_18
REMARK                            x       y       z     vdW  Elec       q    Type
REMARK                         _______ _______ _______ _____ _____    ______ ____
ROOT
ATOM      1  C   UNL     1       1.414   7.776  20.952  0.00  0.00    +0.000 C 
ATOM      2  C   UNL     1       1.618   8.392  19.608  0.00  0.00    +0.000 A 
ATOM      3  C   UNL     1       1.142   9.573  19.056  0.00  0.00    +0.000 A 
ATOM      4  C   UNL     1       1.789   9.654  17.804  0.00  0.00    +0.000 A 
ATOM      5  N   UNL     1       2.564   8.602  17.545  0.00  0.00    +0.000 NA
ATOM      6  N   UNL     1       2.425   7.799  18.638  0.00  0.00    +0.000 N 
ATOM      7  C   UNL     1       3.054   6.506  18.676  0.00  0.00    +0.000 A 
ATOM      8  C   UNL     1       3.893   6.126  17.633  0.00  0.00    +0.000 A 
ATOM      9  C   UNL     1       4.452   4.845  17.669  0.00  0.00    +0.000 A 
ATOM     10  C   UNL     1       4.193   4.002  18.749  0.00  0.00    +0.000 A 
ATOM     11  C   UNL     1       3.363   4.462  19.745  0.00  0.00    +0.000 A 
ATOM     12  N   UNL     1       2.786   5.679  19.723  0.00  0.00    +0.000 NA
ENDROOT
BRANCH   3  13
ATOM     13  C   UNL     1       0.261  10.538  19.705  0.00  0.00    +0.000 A 
ATOM     14  C   UNL     1      -1.025  10.782  19.200  0.00  0.00    +0.000 A 
ATOM     15  C   UNL     1      -1.840  11.768  19.767  0.00  0.00    +0.000 A 
ATOM     16  C   UNL     1      -1.376  12.527  20.840  0.00  0.00    +0.000 A 
ATOM     17  C   UNL     1      -0.122  12.267  21.380  0.00  0.00    +0.000 A 
ATOM     18  C   UNL     1       0.675  11.257  20.836  0.00  0.00    +0.000 A 
ENDBRANCH   3  13
BRANCH   9  19
ATOM     19  C   UNL     1       5.364   4.338  16.617  0.00  0.00    +0.000 C 
ATOM     20  O   UNL     1       5.043   4.288  15.439  0.00  0.00    +0.000 OA
BRANCH  19  21
ATOM     21  O   UNL     1       6.586   3.975  17.058  0.00  0.00    +0.000 OA
ATOM     22  H   UNL     1       6.664   3.077  17.430  0.00  0.00    +0.000 HD
ENDBRANCH  19  21
ENDBRANCH   9  19
TORSDOF 3
ENDMDL
MODEL 9
REMARK VINA RESULT:      -7.3      3.219      7.201
REMARK  Name = 
REMARK  4 active torsions:
REMARK  status: ('A' for Active; 'I' for Inactive)
REMARK    1  A    between atoms: C_1  and  C_2
REMARK    2  A    between atoms: C_3  and  C_4
REMARK    3  A    between atoms: C_15  and  C_16
REMARK    4  A    between atoms: C_16  and  O_18
REMARK                            x       y       z     vdW  Elec       q    Type
REMARK                         _______ _______ _______ _____ _____    ______ ____
ROOT
ATOM      1  C   UNL     1       1.846   9.202  17.819  0.00  0.00    +0.000 C 
ATOM      2  C   UNL     1       1.549   8.826  19.232  0.00  0.00    +0.000 A 
ATOM      3  C   UNL     1       0.886   9.505  20.245  0.00  0.00    +0.000 A 
ATOM      4  C   UNL     1       0.825   8.572  21.303  0.00  0.00    +0.000 A 
ATOM      5  N   UNL     1       1.436   7.422  21.025  0.00  0.00    +0.000 NA
ATOM      6  N   UNL     1       1.925   7.592  19.763  0.00  0.00    +0.000 N 
ATOM      7  C   UNL     1       2.739   6.575  19.153  0.00  0.00    +0.000 A 
ATOM      8  C   UNL     1       2.934   5.369  19.821  0.00  0.00    +0.000 A 
ATOM      9  C   UNL     1       3.769   4.416  19.231  0.00  0.00    +0.000 A 
ATOM     10  C   UNL     1       4.349   4.671  17.989  0.00  0.00    +0.000 A 
ATOM     11  C   UNL     1       4.093   5.883  17.391  0.00  0.00    +0.000 A 
ATOM     12  N   UNL     1       3.317   6.833  17.949  0.00  0.00    +0.000 NA
ENDROOT
BRANCH   3  13
ATOM     13  C   UNL     1       0.304  10.839  20.153  0.00  0.00    +0.000 A 
ATOM     14  C   UNL     1      -0.952  11.029  19.558  0.00  0.00    +0.000 A 
ATOM     15  C   UNL     1      -1.475  12.315  19.389  0.00  0.00    +0.000 A 
ATOM     16  C   UNL     1      -0.746  13.428  19.805  0.00  0.00    +0.000 A 
ATOM     17  C   UNL     1       0.480  13.253  20.437  0.00  0.00    +0.000 A 
ATOM     18  C   UNL     1       0.984  11.966  20.637  0.00  0.00    +0.000 A 
ENDBRANCH   3  13
BRANCH   9  19
ATOM     19  C   UNL     1       4.043   3.096  19.849  0.00  0.00    +0.000 C 
ATOM     20  O   UNL     1       3.242   2.536  20.580  0.00  0.00    +0.000 OA
BRANCH  19  21
ATOM     21  O   UNL     1       5.228   2.550  19.506  0.00  0.00    +0.000 OA
ATOM     22  H   UNL     1       5.896   3.158  19.139  0.00  0.00    +0.000 HD
ENDBRANCH  19  21
ENDBRANCH   9  19
TORSDOF 3
ENDMDL
