MODEL 1
REMARK VINA RESULT:      -7.6      0.000      0.000
REMARK  Name = 
REMARK  10 active torsions:
REMARK  status: ('A' for Active; 'I' for Inactive)
REMARK    1  A    between atoms: C_1  and  C_2
REMARK    2  A    between atoms: C_2  and  C_3
REMARK    3  A    between atoms: C_3  and  CA_4
REMARK    4  A    between atoms: CA_4  and  N_5
REMARK    5  A    between atoms: CA_4  and  C_21
REMARK    6  A    between atoms: N_5  and  C_6
REMARK    7  A    between atoms: C_6  and  C_7
REMARK    8  A    between atoms: C_17  and  C_18
REMARK    9  A    between atoms: C_18  and  O_20
REMARK   10  A    between atoms: C_21  and  OXT_23
REMARK                            x       y       z     vdW  Elec       q    Type
REMARK                         _______ _______ _______ _____ _____    ______ ____
ROOT
ATOM      1  C   UNL     1       6.538   4.615  15.419  0.00  0.00    +0.000 C 
ATOM      2  O   UNL     1       7.712   4.975  15.269  0.00  0.00    +0.000 OA
ATOM      3  N   UNL     1       5.777   5.246  16.381  0.00  0.00    +0.000 N 
ATOM      4  C   UNL     1       4.407   4.930  16.766  0.00  0.00    +0.000 C 
ATOM      5  C   UNL     1       4.049   3.511  17.199  0.00  0.00    +0.000 C 
ATOM      6  C   UNL     1       2.565   3.458  17.564  0.00  0.00    +0.000 C 
ATOM      7  C   UNL     1       2.195   4.499  18.621  0.00  0.00    +0.000 C 
ATOM      8  C   UNL     1       2.647   5.913  18.232  0.00  0.00    +0.000 C 
ATOM      9  C   UNL     1       4.135   5.899  17.915  0.00  0.00    +0.000 C 
ATOM     10  C   UNL     1       4.755   7.181  17.373  0.00  0.00    +0.000 C 
ATOM     11  C   UNL     1       6.068   6.668  16.735  0.00  0.00    +0.000 C 
ENDROOT
BRANCH  11  12
ATOM     12  C   UNL     1       7.276   6.979  17.644  0.00  0.00    +0.000 C 
ATOM     13  O   UNL     1       7.837   8.066  17.676  0.00  0.00    +0.000 OA
BRANCH  12  14
ATOM     14  O   UNL     1       7.766   5.921  18.326  0.00  0.00    +0.000 OA
ATOM     15  H   UNL     1       7.382   5.070  18.004  0.00  0.00    +0.000 HD
ENDBRANCH  12  14
ENDBRANCH  11  12
BRANCH   1  16
ATOM     16  C   UNL     1       5.946   3.493  14.558  0.00  0.00    +0.000 C 
BRANCH  16  17
ATOM     17  N   UNL     1       6.376   3.550  13.134  0.00  0.00    +0.000 NA
ATOM     18  H   UNL     1       7.311   3.154  13.068  0.00  0.00    +0.000 HD
BRANCH  17  19
ATOM     19  CA  UNL     1       5.466   2.760  12.239  0.00  0.00    +0.000 C 
BRANCH  19  20
ATOM     20  C   UNL     1       6.308   1.695  11.506  0.00  0.00    +0.000 C 
ATOM     21  O   UNL     1       5.910   0.599  11.156  0.00  0.00    +0.000 OA
BRANCH  20  22
ATOM     22  OXT UNL     1       7.585   2.111  11.297  0.00  0.00    +0.000 OA
ATOM     23  HXT UNL     1       8.139   1.316  11.122  0.00  0.00    +0.000 HD
ENDBRANCH  20  22
ENDBRANCH  19  20
BRANCH  19  24
ATOM     24  C   UNL     1       4.799   3.712  11.247  0.00  0.00    +0.000 C 
BRANCH  24  26
ATOM     25  C   UNL     1       2.949   4.123   9.631  0.00  0.00    +0.000 C 
ATOM     26  C   UNL     1       3.408   3.270  10.801  0.00  0.00    +0.000 C 
ENDBRANCH  24  26
ENDBRANCH  19  24
ENDBRANCH  17  19
ENDBRANCH  16  17
ENDBRANCH   1  16
TORSDOF 9
ENDMDL
MODEL 2
REMARK VINA RESULT:      -7.4      4.004      6.191
REMARK  Name = 
REMARK  10 active torsions:
REMARK  status: ('A' for Active; 'I' for Inactive)
REMARK    1  A    between atoms: C_1  and  C_2
REMARK    2  A    between atoms: C_2  and  C_3
REMARK    3  A    between atoms: C_3  and  CA_4
REMARK    4  A    between atoms: CA_4  and  N_5
REMARK    5  A    between atoms: CA_4  and  C_21
REMARK    6  A    between atoms: N_5  and  C_6
REMARK    7  A    between atoms: C_6  and  C_7
REMARK    8  A    between atoms: C_17  and  C_18
REMARK    9  A    between atoms: C_18  and  O_20
REMARK   10  A    between atoms: C_21  and  OXT_23
REMARK                            x       y       z     vdW  Elec       q    Type
REMARK                         _______ _______ _______ _____ _____    ______ ____
ROOT
ATOM      1  C   UNL     1       3.808   4.782  17.453  0.00  0.00    +0.000 C 
ATOM      2  O   UNL     1       3.853   3.597  17.104  0.00  0.00    +0.000 OA
ATOM      3  N   UNL     1       2.991   5.124  18.511  0.00  0.00    +0.000 N 
ATOM      4  C   UNL     1       2.740   6.461  19.033  0.00  0.00    +0.000 C 
ATOM      5  C   UNL     1       2.241   7.558  18.097  0.00  0.00    +0.000 C 
ATOM      6  C   UNL     1       2.042   8.847  18.896  0.00  0.00    +0.000 C 
ATOM      7  C   UNL     1       1.119   8.642  20.097  0.00  0.00    +0.000 C 
ATOM      8  C   UNL     1       1.563   7.471  20.984  0.00  0.00    +0.000 C 
ATOM      9  C   UNL     1       1.708   6.219  20.132  0.00  0.00    +0.000 C 
ATOM     10  C   UNL     1       2.275   4.972  20.799  0.00  0.00    +0.000 C 
ATOM     11  C   UNL     1       2.719   4.121  19.585  0.00  0.00    +0.000 C 
ENDROOT
BRANCH  11  12
ATOM     12  C   UNL     1       1.706   2.990  19.311  0.00  0.00    +0.000 C 
ATOM     13  O   UNL     1       0.554   2.998  19.724  0.00  0.00    +0.000 OA
BRANCH  12  14
ATOM     14  O   UNL     1       2.214   1.909  18.680  0.00  0.00    +0.000 OA
ATOM     15  H   UNL     1       1.873   1.067  19.066  0.00  0.00    +0.000 HD
ENDBRANCH  12  14
ENDBRANCH  11  12
BRANCH   1  16
ATOM     16  C   UNL     1       4.641   5.845  16.727  0.00  0.00    +0.000 C 
BRANCH  16  17
ATOM     17  N   UNL     1       5.881   5.304  16.105  0.00  0.00    +0.000 NA
ATOM     18  H   UNL     1       5.927   5.640  15.145  0.00  0.00    +0.000 HD
BRANCH  17  19
ATOM     19  CA  UNL     1       7.116   5.760  16.824  0.00  0.00    +0.000 C 
BRANCH  19  20
ATOM     20  C   UNL     1       7.403   4.771  17.973  0.00  0.00    +0.000 C 
ATOM     21  O   UNL     1       6.799   4.723  19.030  0.00  0.00    +0.000 OA
BRANCH  20  22
ATOM     22  OXT UNL     1       8.439   3.941  17.685  0.00  0.00    +0.000 OA
ATOM     23  HXT UNL     1       9.109   4.455  17.179  0.00  0.00    +0.000 HD
ENDBRANCH  20  22
ENDBRANCH  19  20
BRANCH  19  24
ATOM     24  C   UNL     1       6.887   7.173  17.357  0.00  0.00    +0.000 C 
BRANCH  24  26
ATOM     25  C   UNL     1       8.135   9.255  17.911  0.00  0.00    +0.000 C 
ATOM     26  C   UNL     1       8.077   7.751  18.117  0.00  0.00    +0.000 C 
ENDBRANCH  24  26
ENDBRANCH  19  24
ENDBRANCH  17  19
ENDBRANCH  16  17
ENDBRANCH   1  16
TORSDOF 9
ENDMDL
MODEL 3
REMARK VINA RESULT:      -7.4      3.667      6.120
REMARK  Name = 
REMARK  10 active torsions:
REMARK  status: ('A' for Active; 'I' for Inactive)
REMARK    1  A    between atoms: C_1  and  C_2
REMARK    2  A    between atoms: C_2  and  C_3
REMARK    3  A    between atoms: C_3  and  CA_4
REMARK    4  A    between atoms: CA_4  and  N_5
REMARK    5  A    between atoms: CA_4  and  C_21
REMARK    6  A    between atoms: N_5  and  C_6
REMARK    7  A    between atoms: C_6  and  C_7
REMARK    8  A    between atoms: C_17  and  C_18
REMARK    9  A    between atoms: C_18  and  O_20
REMARK   10  A    between atoms: C_21  and  OXT_23
REMARK                            x       y       z     vdW  Elec       q    Type
REMARK                         _______ _______ _______ _____ _____    ______ ____
ROOT
ATOM      1  C   UNL     1       3.980   3.612  18.814  0.00  0.00    +0.000 C 
ATOM      2  O   UNL     1       3.863   2.404  19.046  0.00  0.00    +0.000 OA
ATOM      3  N   UNL     1       3.110   4.487  19.432  0.00  0.00    +0.000 N 
ATOM      4  C   UNL     1       3.030   5.929  19.244  0.00  0.00    +0.000 C 
ATOM      5  C   UNL     1       2.845   6.501  17.841  0.00  0.00    +0.000 C 
ATOM      6  C   UNL     1       2.774   8.027  17.927  0.00  0.00    +0.000 C 
ATOM      7  C   UNL     1       1.689   8.498  18.896  0.00  0.00    +0.000 C 
ATOM      8  C   UNL     1       1.814   7.843  20.278  0.00  0.00    +0.000 C 
ATOM      9  C   UNL     1       1.846   6.331  20.120  0.00  0.00    +0.000 C 
ATOM     10  C   UNL     1       2.104   5.495  21.367  0.00  0.00    +0.000 C 
ATOM     11  C   UNL     1       2.541   4.136  20.768  0.00  0.00    +0.000 C 
ENDROOT
BRANCH  11  12
ATOM     12  C   UNL     1       1.391   3.110  20.844  0.00  0.00    +0.000 C 
ATOM     13  O   UNL     1       0.609   2.902  19.926  0.00  0.00    +0.000 OA
BRANCH  12  14
ATOM     14  O   UNL     1       1.217   2.534  22.053  0.00  0.00    +0.000 OA
ATOM     15  H   UNL     1       1.861   1.801  22.204  0.00  0.00    +0.000 HD
ENDBRANCH  12  14
ENDBRANCH  11  12
BRANCH   1  16
ATOM     16  C   UNL     1       5.065   4.126  17.859  0.00  0.00    +0.000 C 
BRANCH  16  17
ATOM     17  N   UNL     1       6.448   3.923  18.371  0.00  0.00    +0.000 NA
ATOM     18  H   UNL     1       6.720   2.960  18.178  0.00  0.00    +0.000 HD
BRANCH  17  19
ATOM     19  CA  UNL     1       7.436   4.834  17.703  0.00  0.00    +0.000 C 
BRANCH  19  20
ATOM     20  C   UNL     1       7.849   5.927  18.711  0.00  0.00    +0.000 C 
ATOM     21  O   UNL     1       7.998   7.107  18.451  0.00  0.00    +0.000 OA
BRANCH  20  22
ATOM     22  OXT UNL     1       8.050   5.421  19.956  0.00  0.00    +0.000 OA
ATOM     23  HXT UNL     1       7.181   5.122  20.308  0.00  0.00    +0.000 HD
ENDBRANCH  20  22
ENDBRANCH  19  20
BRANCH  19  24
ATOM     24  C   UNL     1       6.785   5.446  16.463  0.00  0.00    +0.000 C 
BRANCH  24  26
ATOM     25  C   UNL     1       6.131   4.005  14.541  0.00  0.00    +0.000 C 
ATOM     26  C   UNL     1       7.252   4.831  15.148  0.00  0.00    +0.000 C 
ENDBRANCH  24  26
ENDBRANCH  19  24
ENDBRANCH  17  19
ENDBRANCH  16  17
ENDBRANCH   1  16
TORSDOF 9
ENDMDL
MODEL 4
REMARK VINA RESULT:      -7.4      0.875      1.149
REMARK  Name = 
REMARK  10 active torsions:
REMARK  status: ('A' for Active; 'I' for Inactive)
REMARK    1  A    between atoms: C_1  and  C_2
REMARK    2  A    between atoms: C_2  and  C_3
REMARK    3  A    between atoms: C_3  and  CA_4
REMARK    4  A    between atoms: CA_4  and  N_5
REMARK    5  A    between atoms: CA_4  and  C_21
REMARK    6  A    between atoms: N_5  and  C_6
REMARK    7  A    between atoms: C_6  and  C_7
REMARK    8  A    between atoms: C_17  and  C_18
REMARK    9  A    between atoms: C_18  and  O_20
REMARK   10  A    between atoms: C_21  and  OXT_23
REMARK                            x       y       z     vdW  Elec       q    Type
REMARK                         _______ _______ _______ _____ _____    ______ ____
ROOT
ATOM      1  C   UNL     1       6.634   4.377  15.919  0.00  0.00    +0.000 C 
ATOM      2  O   UNL     1       7.856   4.560  15.960  0.00  0.00    +0.000 OA
ATOM      3  N   UNL     1       5.843   5.026  16.845  0.00  0.00    +0.000 N 
ATOM      4  C   UNL     1       4.402   4.897  17.016  0.00  0.00    +0.000 C 
ATOM      5  C   UNL     1       3.785   3.518  17.233  0.00  0.00    +0.000 C 
ATOM      6  C   UNL     1       2.272   3.666  17.400  0.00  0.00    +0.000 C 
ATOM      7  C   UNL     1       1.911   4.647  18.516  0.00  0.00    +0.000 C 
ATOM      8  C   UNL     1       2.613   6.002  18.354  0.00  0.00    +0.000 C 
ATOM      9  C   UNL     1       4.113   5.783  18.226  0.00  0.00    +0.000 C 
ATOM     10  C   UNL     1       4.981   6.995  17.919  0.00  0.00    +0.000 C 
ATOM     11  C   UNL     1       6.284   6.344  17.394  0.00  0.00    +0.000 C 
ENDROOT
BRANCH  11  12
ATOM     12  C   UNL     1       7.383   6.371  18.478  0.00  0.00    +0.000 C 
ATOM     13  O   UNL     1       8.232   7.249  18.558  0.00  0.00    +0.000 OA
BRANCH  12  14
ATOM     14  O   UNL     1       7.429   5.281  19.273  0.00  0.00    +0.000 OA
ATOM     15  H   UNL     1       6.586   5.157  19.772  0.00  0.00    +0.000 HD
ENDBRANCH  12  14
ENDBRANCH  11  12
BRANCH   1  16
ATOM     16  C   UNL     1       6.014   3.451  14.866  0.00  0.00    +0.000 C 
BRANCH  16  17
ATOM     17  N   UNL     1       5.323   4.181  13.768  0.00  0.00    +0.000 NA
ATOM     18  H   UNL     1       5.815   5.059  13.611  0.00  0.00    +0.000 HD
BRANCH  17  19
ATOM     19  CA  UNL     1       5.326   3.403  12.485  0.00  0.00    +0.000 C 
BRANCH  19  20
ATOM     20  C   UNL     1       6.768   3.378  11.935  0.00  0.00    +0.000 C 
ATOM     21  O   UNL     1       7.497   4.346  11.820  0.00  0.00    +0.000 OA
BRANCH  20  22
ATOM     22  OXT UNL     1       7.150   2.127  11.566  0.00  0.00    +0.000 OA
ATOM     23  HXT UNL     1       7.862   1.833  12.178  0.00  0.00    +0.000 HD
ENDBRANCH  20  22
ENDBRANCH  19  20
BRANCH  19  24
ATOM     24  C   UNL     1       4.372   4.073  11.498  0.00  0.00    +0.000 C 
BRANCH  24  26
ATOM     25  C   UNL     1       2.836   3.824   9.554  0.00  0.00    +0.000 C 
ATOM     26  C   UNL     1       3.518   3.094  10.698  0.00  0.00    +0.000 C 
ENDBRANCH  24  26
ENDBRANCH  19  24
ENDBRANCH  17  19
ENDBRANCH  16  17
ENDBRANCH   1  16
TORSDOF 9
ENDMDL
MODEL 5
REMARK VINA RESULT:      -7.4      3.223      5.159
REMARK  Name = 
REMARK  10 active torsions:
REMARK  status: ('A' for Active; 'I' for Inactive)
REMARK    1  A    between atoms: C_1  and  C_2
REMARK    2  A    between atoms: C_2  and  C_3
REMARK    3  A    between atoms: C_3  and  CA_4
REMARK    4  A    between atoms: CA_4  and  N_5
REMARK    5  A    between atoms: CA_4  and  C_21
REMARK    6  A    between atoms: N_5  and  C_6
REMARK    7  A    between atoms: C_6  and  C_7
REMARK    8  A    between atoms: C_17  and  C_18
REMARK    9  A    between atoms: C_18  and  O_20
REMARK   10  A    between atoms: C_21  and  OXT_23
REMARK                            x       y       z     vdW  Elec       q    Type
REMARK                         _______ _______ _______ _____ _____    ______ ____
ROOT
ATOM      1  C   UNL     1       3.811   3.640  18.352  0.00  0.00    +0.000 C 
ATOM      2  O   UNL     1       3.713   2.418  18.513  0.00  0.00    +0.000 OA
ATOM      3  N   UNL     1       3.036   4.469  19.139  0.00  0.00    +0.000 N 
ATOM      4  C   UNL     1       2.946   5.921  19.064  0.00  0.00    +0.000 C 
ATOM      5  C   UNL     1       2.587   6.591  17.741  0.00  0.00    +0.000 C 
ATOM      6  C   UNL     1       2.542   8.107  17.943  0.00  0.00    +0.000 C 
ATOM      7  C   UNL     1       1.596   8.509  19.075  0.00  0.00    +0.000 C 
ATOM      8  C   UNL     1       1.893   7.757  20.380  0.00  0.00    +0.000 C 
ATOM      9  C   UNL     1       1.889   6.260  20.113  0.00  0.00    +0.000 C 
ATOM     10  C   UNL     1       2.299   5.337  21.254  0.00  0.00    +0.000 C 
ATOM     11  C   UNL     1       2.642   4.024  20.510  0.00  0.00    +0.000 C 
ENDROOT
BRANCH  11  12
ATOM     12  C   UNL     1       1.501   2.996  20.661  0.00  0.00    +0.000 C 
ATOM     13  O   UNL     1       0.660   2.785  19.797  0.00  0.00    +0.000 OA
BRANCH  12  14
ATOM     14  O   UNL     1       1.409   2.420  21.879  0.00  0.00    +0.000 OA
ATOM     15  H   UNL     1       1.946   2.901  22.553  0.00  0.00    +0.000 HD
ENDBRANCH  12  14
ENDBRANCH  11  12
BRANCH   1  16
ATOM     16  C   UNL     1       4.768   4.220  17.304  0.00  0.00    +0.000 C 
BRANCH  16  17
ATOM     17  N   UNL     1       5.460   3.180  16.494  0.00  0.00    +0.000 NA
ATOM     18  H   UNL     1       4.754   2.657  15.979  0.00  0.00    +0.000 HD
BRANCH  17  19
ATOM     19  CA  UNL     1       6.416   3.780  15.505  0.00  0.00    +0.000 C 
BRANCH  19  20
ATOM     20  C   UNL     1       7.335   4.767  16.255  0.00  0.00    +0.000 C 
ATOM     21  O   UNL     1       7.402   5.965  16.047  0.00  0.00    +0.000 OA
BRANCH  20  22
ATOM     22  OXT UNL     1       8.097   4.144  17.191  0.00  0.00    +0.000 OA
ATOM     23  HXT UNL     1       9.035   4.183  16.896  0.00  0.00    +0.000 HD
ENDBRANCH  20  22
ENDBRANCH  19  20
BRANCH  19  24
ATOM     24  C   UNL     1       5.618   4.491  14.413  0.00  0.00    +0.000 C 
BRANCH  24  26
ATOM     25  C   UNL     1       6.734   3.789  12.301  0.00  0.00    +0.000 C 
ATOM     26  C   UNL     1       5.465   3.681  13.129  0.00  0.00    +0.000 C 
ENDBRANCH  24  26
ENDBRANCH  19  24
ENDBRANCH  17  19
ENDBRANCH  16  17
ENDBRANCH   1  16
TORSDOF 9
ENDMDL
MODEL 6
REMARK VINA RESULT:      -7.4      3.349      5.519
REMARK  Name = 
REMARK  10 active torsions:
REMARK  status: ('A' for Active; 'I' for Inactive)
REMARK    1  A    between atoms: C_1  and  C_2
REMARK    2  A    between atoms: C_2  and  C_3
REMARK    3  A    between atoms: C_3  and  CA_4
REMARK    4  A    between atoms: CA_4  and  N_5
REMARK    5  A    between atoms: CA_4  and  C_21
REMARK    6  A    between atoms: N_5  and  C_6
REMARK    7  A    between atoms: C_6  and  C_7
REMARK    8  A    between atoms: C_17  and  C_18
REMARK    9  A    between atoms: C_18  and  O_20
REMARK   10  A    between atoms: C_21  and  OXT_23
REMARK                            x       y       z     vdW  Elec       q    Type
REMARK                         _______ _______ _______ _____ _____    ______ ____
ROOT
ATOM      1  C   UNL     1       3.415   3.192  18.459  0.00  0.00    +0.000 C 
ATOM      2  O   UNL     1       3.228   2.000  18.728  0.00  0.00    +0.000 OA
ATOM      3  N   UNL     1       2.805   4.146  19.247  0.00  0.00    +0.000 N 
ATOM      4  C   UNL     1       2.835   5.591  19.062  0.00  0.00    +0.000 C 
ATOM      5  C   UNL     1       2.396   6.194  17.731  0.00  0.00    +0.000 C 
ATOM      6  C   UNL     1       2.506   7.718  17.810  0.00  0.00    +0.000 C 
ATOM      7  C   UNL     1       1.726   8.290  18.994  0.00  0.00    +0.000 C 
ATOM      8  C   UNL     1       2.094   7.611  20.320  0.00  0.00    +0.000 C 
ATOM      9  C   UNL     1       1.930   6.105  20.180  0.00  0.00    +0.000 C 
ATOM     10  C   UNL     1       2.377   5.233  21.346  0.00  0.00    +0.000 C 
ATOM     11  C   UNL     1       2.522   3.843  20.683  0.00  0.00    +0.000 C 
ENDROOT
BRANCH  11  12
ATOM     12  C   UNL     1       1.319   2.943  21.032  0.00  0.00    +0.000 C 
ATOM     13  O   UNL     1       1.227   2.311  22.077  0.00  0.00    +0.000 OA
BRANCH  12  14
ATOM     14  O   UNL     1       0.411   2.792  20.044  0.00  0.00    +0.000 OA
ATOM     15  H   UNL     1       0.827   2.457  19.214  0.00  0.00    +0.000 HD
ENDBRANCH  12  14
ENDBRANCH  11  12
BRANCH   1  16
ATOM     16  C   UNL     1       4.301   3.599  17.275  0.00  0.00    +0.000 C 
BRANCH  16  17
ATOM     17  N   UNL     1       5.644   4.095  17.685  0.00  0.00    +0.000 NA
ATOM     18  H   UNL     1       6.121   3.347  18.183  0.00  0.00    +0.000 HD
BRANCH  17  19
ATOM     19  CA  UNL     1       6.484   4.486  16.504  0.00  0.00    +0.000 C 
BRANCH  19  20
ATOM     20  C   UNL     1       6.454   6.024  16.374  0.00  0.00    +0.000 C 
ATOM     21  O   UNL     1       5.483   6.686  16.058  0.00  0.00    +0.000 OA
BRANCH  20  22
ATOM     22  OXT UNL     1       7.664   6.581  16.641  0.00  0.00    +0.000 OA
ATOM     23  HXT UNL     1       7.827   7.289  15.977  0.00  0.00    +0.000 HD
ENDBRANCH  20  22
ENDBRANCH  19  20
BRANCH  19  24
ATOM     24  C   UNL     1       5.920   3.816  15.252  0.00  0.00    +0.000 C 
BRANCH  24  26
ATOM     25  C   UNL     1       5.953   3.544  12.777  0.00  0.00    +0.000 C 
ATOM     26  C   UNL     1       6.589   4.261  13.955  0.00  0.00    +0.000 C 
ENDBRANCH  24  26
ENDBRANCH  19  24
ENDBRANCH  17  19
ENDBRANCH  16  17
ENDBRANCH   1  16
TORSDOF 9
ENDMDL
MODEL 7
REMARK VINA RESULT:      -7.4      3.156      5.643
REMARK  Name = 
REMARK  10 active torsions:
REMARK  status: ('A' for Active; 'I' for Inactive)
REMARK    1  A    between atoms: C_1  and  C_2
REMARK    2  A    between atoms: C_2  and  C_3
REMARK    3  A    between atoms: C_3  and  CA_4
REMARK    4  A    between atoms: CA_4  and  N_5
REMARK    5  A    between atoms: CA_4  and  C_21
REMARK    6  A    between atoms: N_5  and  C_6
REMARK    7  A    between atoms: C_6  and  C_7
REMARK    8  A    between atoms: C_17  and  C_18
REMARK    9  A    between atoms: C_18  and  O_20
REMARK   10  A    between atoms: C_21  and  OXT_23
REMARK                            x       y       z     vdW  Elec       q    Type
REMARK                         _______ _______ _______ _____ _____    ______ ____
ROOT
ATOM      1  C   UNL     1       4.502   3.653  19.091  0.00  0.00    +0.000 C 
ATOM      2  O   UNL     1       4.425   2.445  19.342  0.00  0.00    +0.000 OA
ATOM      3  N   UNL     1       3.478   4.477  19.513  0.00  0.00    +0.000 N 
ATOM      4  C   UNL     1       3.338   5.906  19.262  0.00  0.00    +0.000 C 
ATOM      5  C   UNL     1       3.373   6.431  17.829  0.00  0.00    +0.000 C 
ATOM      6  C   UNL     1       3.187   7.949  17.846  0.00  0.00    +0.000 C 
ATOM      7  C   UNL     1       1.915   8.364  18.588  0.00  0.00    +0.000 C 
ATOM      8  C   UNL     1       1.831   7.751  19.993  0.00  0.00    +0.000 C 
ATOM      9  C   UNL     1       1.991   6.242  19.897  0.00  0.00    +0.000 C 
ATOM     10  C   UNL     1       2.074   5.455  21.199  0.00  0.00    +0.000 C 
ATOM     11  C   UNL     1       2.701   4.118  20.737  0.00  0.00    +0.000 C 
ENDROOT
BRANCH  11  12
ATOM     12  C   UNL     1       1.626   3.014  20.642  0.00  0.00    +0.000 C 
ATOM     13  O   UNL     1       1.173   2.426  21.615  0.00  0.00    +0.000 OA
BRANCH  12  14
ATOM     14  O   UNL     1       1.299   2.641  19.386  0.00  0.00    +0.000 OA
ATOM     15  H   UNL     1       1.296   1.660  19.286  0.00  0.00    +0.000 HD
ENDBRANCH  12  14
ENDBRANCH  11  12
BRANCH   1  16
ATOM     16  C   UNL     1       5.705   4.221  18.329  0.00  0.00    +0.000 C 
BRANCH  16  17
ATOM     17  N   UNL     1       5.616   4.032  16.855  0.00  0.00    +0.000 NA
ATOM     18  H   UNL     1       4.636   3.913  16.609  0.00  0.00    +0.000 HD
BRANCH  17  19
ATOM     19  CA  UNL     1       6.151   5.214  16.102  0.00  0.00    +0.000 C 
BRANCH  19  20
ATOM     20  C   UNL     1       6.790   4.708  14.792  0.00  0.00    +0.000 C 
ATOM     21  O   UNL     1       6.456   3.708  14.184  0.00  0.00    +0.000 OA
BRANCH  20  22
ATOM     22  OXT UNL     1       7.806   5.510  14.378  0.00  0.00    +0.000 OA
ATOM     23  HXT UNL     1       7.477   6.438  14.368  0.00  0.00    +0.000 HD
ENDBRANCH  20  22
ENDBRANCH  19  20
BRANCH  19  24
ATOM     24  C   UNL     1       7.180   5.933  16.975  0.00  0.00    +0.000 C 
BRANCH  24  26
ATOM     25  C   UNL     1       8.049   8.091  17.862  0.00  0.00    +0.000 C 
ATOM     26  C   UNL     1       6.842   7.393  17.259  0.00  0.00    +0.000 C 
ENDBRANCH  24  26
ENDBRANCH  19  24
ENDBRANCH  17  19
ENDBRANCH  16  17
ENDBRANCH   1  16
TORSDOF 9
ENDMDL
MODEL 8
REMARK VINA RESULT:      -7.3      3.741      6.096
REMARK  Name = 
REMARK  10 active torsions:
REMARK  status: ('A' for Active; 'I' for Inactive)
REMARK    1  A    between atoms: C_1  and  C_2
REMARK    2  A    between atoms: C_2  and  C_3
REMARK    3  A    between atoms: C_3  and  CA_4
REMARK    4  A    between atoms: CA_4  and  N_5
REMARK    5  A    between atoms: CA_4  and  C_21
REMARK    6  A    between atoms: N_5  and  C_6
REMARK    7  A    between atoms: C_6  and  C_7
REMARK    8  A    between atoms: C_17  and  C_18
REMARK    9  A    between atoms: C_18  and  O_20
REMARK   10  A    between atoms: C_21  and  OXT_23
REMARK                            x       y       z     vdW  Elec       q    Type
REMARK                         _______ _______ _______ _____ _____    ______ ____
ROOT
ATOM      1  C   UNL     1       4.787   4.635  16.851  0.00  0.00    +0.000 C 
ATOM      2  O   UNL     1       5.092   3.668  16.143  0.00  0.00    +0.000 OA
ATOM      3  N   UNL     1       3.984   4.414  17.952  0.00  0.00    +0.000 N 
ATOM      4  C   UNL     1       3.454   5.413  18.869  0.00  0.00    +0.000 C 
ATOM      5  C   UNL     1       2.643   6.587  18.326  0.00  0.00    +0.000 C 
ATOM      6  C   UNL     1       2.194   7.469  19.492  0.00  0.00    +0.000 C 
ATOM      7  C   UNL     1       1.430   6.675  20.553  0.00  0.00    +0.000 C 
ATOM      8  C   UNL     1       2.203   5.436  21.025  0.00  0.00    +0.000 C 
ATOM      9  C   UNL     1       2.588   4.590  19.820  0.00  0.00    +0.000 C 
ATOM     10  C   UNL     1       3.482   3.381  20.062  0.00  0.00    +0.000 C 
ATOM     11  C   UNL     1       4.035   3.092  18.646  0.00  0.00    +0.000 C 
ENDROOT
BRANCH  11  12
ATOM     12  C   UNL     1       3.309   1.887  18.011  0.00  0.00    +0.000 C 
ATOM     13  O   UNL     1       2.233   1.973  17.434  0.00  0.00    +0.000 OA
BRANCH  12  14
ATOM     14  O   UNL     1       3.882   0.686  18.245  0.00  0.00    +0.000 OA
ATOM     15  H   UNL     1       4.641   0.519  17.636  0.00  0.00    +0.000 HD
ENDBRANCH  12  14
ENDBRANCH  11  12
BRANCH   1  16
ATOM     16  C   UNL     1       5.287   6.044  16.513  0.00  0.00    +0.000 C 
BRANCH  16  17
ATOM     17  N   UNL     1       6.704   6.077  16.058  0.00  0.00    +0.000 NA
ATOM     18  H   UNL     1       6.795   6.807  15.355  0.00  0.00    +0.000 HD
BRANCH  17  19
ATOM     19  CA  UNL     1       7.650   6.382  17.181  0.00  0.00    +0.000 C 
BRANCH  19  20
ATOM     20  C   UNL     1       7.539   5.256  18.231  0.00  0.00    +0.000 C 
ATOM     21  O   UNL     1       7.169   5.398  19.382  0.00  0.00    +0.000 OA
BRANCH  20  22
ATOM     22  OXT UNL     1       7.921   4.053  17.729  0.00  0.00    +0.000 OA
ATOM     23  HXT UNL     1       8.694   4.201  17.138  0.00  0.00    +0.000 HD
ENDBRANCH  20  22
ENDBRANCH  19  20
BRANCH  19  24
ATOM     24  C   UNL     1       7.281   7.736  17.786  0.00  0.00    +0.000 C 
BRANCH  24  26
ATOM     25  C   UNL     1       8.381   9.961  17.983  0.00  0.00    +0.000 C 
ATOM     26  C   UNL     1       8.465   8.496  18.376  0.00  0.00    +0.000 C 
ENDBRANCH  24  26
ENDBRANCH  19  24
ENDBRANCH  17  19
ENDBRANCH  16  17
ENDBRANCH   1  16
TORSDOF 9
ENDMDL
MODEL 9
REMARK VINA RESULT:      -7.3      4.058      6.366
REMARK  Name = 
REMARK  10 active torsions:
REMARK  status: ('A' for Active; 'I' for Inactive)
REMARK    1  A    between atoms: C_1  and  C_2
REMARK    2  A    between atoms: C_2  and  C_3
REMARK    3  A    between atoms: C_3  and  CA_4
REMARK    4  A    between atoms: CA_4  and  N_5
REMARK    5  A    between atoms: CA_4  and  C_21
REMARK    6  A    between atoms: N_5  and  C_6
REMARK    7  A    between atoms: C_6  and  C_7
REMARK    8  A    between atoms: C_17  and  C_18
REMARK    9  A    between atoms: C_18  and  O_20
REMARK   10  A    between atoms: C_21  and  OXT_23
REMARK                            x       y       z     vdW  Elec       q    Type
REMARK                         _______ _______ _______ _____ _____    ______ ____
ROOT
ATOM      1  C   UNL     1       4.306   3.820  17.630  0.00  0.00    +0.000 C 
ATOM      2  O   UNL     1       4.233   2.591  17.520  0.00  0.00    +0.000 OA
ATOM      3  N   UNL     1       3.396   4.461  18.447  0.00  0.00    +0.000 N 
ATOM      4  C   UNL     1       3.262   5.896  18.660  0.00  0.00    +0.000 C 
ATOM      5  C   UNL     1       3.069   6.825  17.465  0.00  0.00    +0.000 C 
ATOM      6  C   UNL     1       2.939   8.264  17.964  0.00  0.00    +0.000 C 
ATOM      7  C   UNL     1       1.827   8.414  19.004  0.00  0.00    +0.000 C 
ATOM      8  C   UNL     1       1.963   7.409  20.155  0.00  0.00    +0.000 C 
ATOM      9  C   UNL     1       2.055   6.000  19.589  0.00  0.00    +0.000 C 
ATOM     10  C   UNL     1       2.333   4.863  20.563  0.00  0.00    +0.000 C 
ATOM     11  C   UNL     1       2.828   3.737  19.624  0.00  0.00    +0.000 C 
ENDROOT
BRANCH  11  12
ATOM     12  C   UNL     1       1.718   2.691  19.392  0.00  0.00    +0.000 C 
ATOM     13  O   UNL     1       0.544   2.872  19.690  0.00  0.00    +0.000 OA
BRANCH  12  14
ATOM     14  O   UNL     1       2.147   1.490  18.947  0.00  0.00    +0.000 OA
ATOM     15  H   UNL     1       2.600   0.977  19.658  0.00  0.00    +0.000 HD
ENDBRANCH  12  14
ENDBRANCH  11  12
BRANCH   1  16
ATOM     16  C   UNL     1       5.379   4.614  16.876  0.00  0.00    +0.000 C 
BRANCH  16  17
ATOM     17  N   UNL     1       6.769   4.257  17.273  0.00  0.00    +0.000 NA
ATOM     18  H   UNL     1       7.283   3.997  16.434  0.00  0.00    +0.000 HD
BRANCH  17  19
ATOM     19  CA  UNL     1       7.481   5.405  17.926  0.00  0.00    +0.000 C 
BRANCH  19  20
ATOM     20  C   UNL     1       7.388   5.228  19.456  0.00  0.00    +0.000 C 
ATOM     21  O   UNL     1       6.372   4.978  20.077  0.00  0.00    +0.000 OA
BRANCH  20  22
ATOM     22  OXT UNL     1       8.592   5.401  20.062  0.00  0.00    +0.000 OA
ATOM     23  HXT UNL     1       8.428   5.700  20.986  0.00  0.00    +0.000 HD
ENDBRANCH  20  22
ENDBRANCH  19  20
BRANCH  19  24
ATOM     24  C   UNL     1       6.825   6.711  17.481  0.00  0.00    +0.000 C 
BRANCH  24  26
ATOM     25  C   UNL     1       7.982   8.845  18.038  0.00  0.00    +0.000 C 
ATOM     26  C   UNL     1       7.811   7.764  16.984  0.00  0.00    +0.000 C 
ENDBRANCH  24  26
ENDBRANCH  19  24
ENDBRANCH  17  19
ENDBRANCH  16  17
ENDBRANCH   1  16
TORSDOF 9
ENDMDL
