MODEL 1
REMARK VINA RESULT:      -8.8      0.000      0.000
REMARK  Name = 
REMARK  5 active torsions:
REMARK  status: ('A' for Active; 'I' for Inactive)
REMARK    1  A    between atoms: C_1  and  C_2
REMARK    2  A    between atoms: C_11  and  C_12
REMARK    3  A    between atoms: N_18  and  C_19
REMARK    4  A    between atoms: C_19  and  C_20
REMARK    5  A    between atoms: C_27  and  C_28
REMARK                            x       y       z     vdW  Elec       q    Type
REMARK                         _______ _______ _______ _____ _____    ______ ____
ROOT
ATOM      1  C   UNL     1       9.761  12.507  18.398  0.00  0.00    +0.000 A 
ATOM      2  N   UNL     1       8.866  11.758  17.610  0.00  0.00    +0.000 NA
ATOM      3  C   UNL     1       8.693  10.541  18.105  0.00  0.00    +0.000 A 
ATOM      4  N   UNL     1       7.985   9.536  17.510  0.00  0.00    +0.000 N 
ATOM      5  C   UNL     1       7.900   8.207  17.845  0.00  0.00    +0.000 C 
ATOM      6  N   UNL     1       8.449   7.623  18.867  0.00  0.00    +0.000 NA
ATOM      7  N   UNL     1       7.146   7.437  16.993  0.00  0.00    +0.000 N 
ATOM      8  S   UNL     1       9.466  10.322  19.631  0.00  0.00    +0.000 S 
ATOM      9  C   UNL     1      10.172  11.864  19.553  0.00  0.00    +0.000 A 
ATOM     10  C   UNL     1      11.076  12.252  20.666  0.00  0.00    +0.000 C 
ATOM     11  H   UNL     1       7.391   9.827  16.746  0.00  0.00    +0.000 HD
ATOM     12  H   UNL     1       8.971   8.312  19.407  0.00  0.00    +0.000 HD
ATOM     13  H   UNL     1       7.437   7.522  16.025  0.00  0.00    +0.000 HD
ENDROOT
BRANCH   1  24
ATOM     14  C   UNL     1      12.333  13.321  16.437  0.00  0.00    +0.000 C 
ATOM     15  C   UNL     1      11.300  14.142  17.116  0.00  0.00    +0.000 A 
ATOM     16  N   UNL     1      11.324  15.503  16.935  0.00  0.00    +0.000 N 
ATOM     17  C   UNL     1      10.261  16.099  17.557  0.00  0.00    +0.000 A 
ATOM     18  C   UNL     1       9.896  17.451  17.567  0.00  0.00    +0.000 A 
ATOM     19  C   UNL     1       8.762  17.806  18.297  0.00  0.00    +0.000 A 
ATOM     20  C   UNL     1       8.044  16.840  18.991  0.00  0.00    +0.000 A 
ATOM     21 CL   UNL     1       6.655  17.322  19.890  0.00  0.00    +0.000 Cl
ATOM     22  C   UNL     1       8.418  15.485  18.967  0.00  0.00    +0.000 A 
ATOM     23  C   UNL     1       9.548  15.093  18.216  0.00  0.00    +0.000 A 
ATOM     24  C   UNL     1      10.209  13.845  17.925  0.00  0.00    +0.000 A 
ATOM     25  H   UNL     1      12.013  16.001  16.385  0.00  0.00    +0.000 HD
ENDBRANCH   1  24
BRANCH   7  26
ATOM     26  C   UNL     1       6.980   6.020  17.361  0.00  0.00    +0.000 C 
BRANCH  26  27
ATOM     27  C   UNL     1       5.550   5.534  17.383  0.00  0.00    +0.000 A 
ATOM     28  C   UNL     1       5.295   4.180  17.102  0.00  0.00    +0.000 A 
ATOM     29  C   UNL     1       4.009   3.651  17.217  0.00  0.00    +0.000 A 
ATOM     30  C   UNL     1       2.957   4.469  17.622  0.00  0.00    +0.000 A 
ATOM     31  C   UNL     1       3.195   5.810  17.919  0.00  0.00    +0.000 A 
ATOM     32  C   UNL     1       4.484   6.340  17.809  0.00  0.00    +0.000 A 
ENDBRANCH  26  27
ENDBRANCH   7  26
TORSDOF 3
ENDMDL
MODEL 2
REMARK VINA RESULT:      -8.3      7.362     10.778
REMARK  Name = 
REMARK  5 active torsions:
REMARK  status: ('A' for Active; 'I' for Inactive)
REMARK    1  A    between atoms: C_1  and  C_2
REMARK    2  A    between atoms: C_11  and  C_12
REMARK    3  A    between atoms: N_18  and  C_19
REMARK    4  A    between atoms: C_19  and  C_20
REMARK    5  A    between atoms: C_27  and  C_28
REMARK                            x       y       z     vdW  Elec       q    Type
REMARK                         _______ _______ _______ _____ _____    ______ ____
ROOT
ATOM      1  C   UNL     1       2.659   6.322  19.033  0.00  0.00    +0.000 A 
ATOM      2  N   UNL     1       2.421   7.646  18.617  0.00  0.00    +0.000 NA
ATOM      3  C   UNL     1       1.623   8.280  19.464  0.00  0.00    +0.000 A 
ATOM      4  N   UNL     1       1.107   9.531  19.282  0.00  0.00    +0.000 N 
ATOM      5  C   UNL     1       0.142  10.192  20.000  0.00  0.00    +0.000 C 
ATOM      6  N   UNL     1      -0.460   9.773  21.072  0.00  0.00    +0.000 NA
ATOM      7  N   UNL     1      -0.204  11.429  19.511  0.00  0.00    +0.000 N 
ATOM      8  S   UNL     1       1.278   7.356  20.879  0.00  0.00    +0.000 S 
ATOM      9  C   UNL     1       2.111   6.009  20.266  0.00  0.00    +0.000 A 
ATOM     10  C   UNL     1       2.109   4.777  21.094  0.00  0.00    +0.000 C 
ATOM     11  H   UNL     1       1.543  10.070  18.547  0.00  0.00    +0.000 HD
ATOM     12  H   UNL     1      -0.104   8.850  21.317  0.00  0.00    +0.000 HD
ATOM     13  H   UNL     1      -0.470  11.406  18.533  0.00  0.00    +0.000 HD
ENDROOT
BRANCH   1  24
ATOM     14  C   UNL     1       1.699   3.421  17.698  0.00  0.00    +0.000 C 
ATOM     15  C   UNL     1       2.969   4.184  17.612  0.00  0.00    +0.000 A 
ATOM     16  N   UNL     1       3.984   3.679  16.838  0.00  0.00    +0.000 N 
ATOM     17  C   UNL     1       5.046   4.540  16.800  0.00  0.00    +0.000 A 
ATOM     18  C   UNL     1       6.245   4.424  16.085  0.00  0.00    +0.000 A 
ATOM     19  C   UNL     1       7.183   5.445  16.231  0.00  0.00    +0.000 A 
ATOM     20  C   UNL     1       6.922   6.522  17.068  0.00  0.00    +0.000 A 
ATOM     21 CL   UNL     1       8.112   7.758  17.230  0.00  0.00    +0.000 Cl
ATOM     22  C   UNL     1       5.712   6.631  17.775  0.00  0.00    +0.000 A 
ATOM     23  C   UNL     1       4.733   5.622  17.628  0.00  0.00    +0.000 A 
ATOM     24  C   UNL     1       3.404   5.395  18.137  0.00  0.00    +0.000 A 
ATOM     25  H   UNL     1       3.944   2.804  16.330  0.00  0.00    +0.000 HD
ENDBRANCH   1  24
BRANCH   7  26
ATOM     26  C   UNL     1      -1.190  12.194  20.296  0.00  0.00    +0.000 C 
BRANCH  26  27
ATOM     27  C   UNL     1      -2.574  12.249  19.693  0.00  0.00    +0.000 A 
ATOM     28  C   UNL     1      -2.786  11.651  18.437  0.00  0.00    +0.000 A 
ATOM     29  C   UNL     1      -4.064  11.573  17.884  0.00  0.00    +0.000 A 
ATOM     30  C   UNL     1      -5.154  12.088  18.580  0.00  0.00    +0.000 A 
ATOM     31  C   UNL     1      -4.963  12.671  19.833  0.00  0.00    +0.000 A 
ATOM     32  C   UNL     1      -3.684  12.745  20.391  0.00  0.00    +0.000 A 
ENDBRANCH  26  27
ENDBRANCH   7  26
TORSDOF 3
ENDMDL
MODEL 3
REMARK VINA RESULT:      -8.2      6.318      8.017
REMARK  Name = 
REMARK  5 active torsions:
REMARK  status: ('A' for Active; 'I' for Inactive)
REMARK    1  A    between atoms: C_1  and  C_2
REMARK    2  A    between atoms: C_11  and  C_12
REMARK    3  A    between atoms: N_18  and  C_19
REMARK    4  A    between atoms: C_19  and  C_20
REMARK    5  A    between atoms: C_27  and  C_28
REMARK                            x       y       z     vdW  Elec       q    Type
REMARK                         _______ _______ _______ _____ _____    ______ ____
ROOT
ATOM      1  C   UNL     1       0.318  11.284  19.844  0.00  0.00    +0.000 A 
ATOM      2  N   UNL     1       0.857  10.498  18.807  0.00  0.00    +0.000 NA
ATOM      3  C   UNL     1       1.232   9.308  19.253  0.00  0.00    +0.000 A 
ATOM      4  N   UNL     1       1.900   8.364  18.526  0.00  0.00    +0.000 N 
ATOM      5  C   UNL     1       2.486   7.193  18.940  0.00  0.00    +0.000 C 
ATOM      6  N   UNL     1       2.476   6.696  20.140  0.00  0.00    +0.000 NA
ATOM      7  N   UNL     1       3.144   6.491  17.959  0.00  0.00    +0.000 N 
ATOM      8  S   UNL     1       0.785   9.036  20.896  0.00  0.00    +0.000 S 
ATOM      9  C   UNL     1       0.198  10.620  21.053  0.00  0.00    +0.000 A 
ATOM     10  C   UNL     1      -0.311  11.024  22.388  0.00  0.00    +0.000 C 
ATOM     11  H   UNL     1       1.913   8.523  17.528  0.00  0.00    +0.000 HD
ATOM     12  H   UNL     1       1.954   7.317  20.756  0.00  0.00    +0.000 HD
ATOM     13  H   UNL     1       3.828   7.053  17.465  0.00  0.00    +0.000 HD
ENDROOT
BRANCH   1  24
ATOM     14  C   UNL     1      -2.566  12.904  20.268  0.00  0.00    +0.000 C 
ATOM     15  C   UNL     1      -1.242  13.344  19.761  0.00  0.00    +0.000 A 
ATOM     16  N   UNL     1      -1.086  14.659  19.396  0.00  0.00    +0.000 N 
ATOM     17  C   UNL     1       0.208  14.916  19.033  0.00  0.00    +0.000 A 
ATOM     18  C   UNL     1       0.787  16.133  18.652  0.00  0.00    +0.000 A 
ATOM     19  C   UNL     1       2.139  16.125  18.312  0.00  0.00    +0.000 A 
ATOM     20  C   UNL     1       2.863  14.939  18.346  0.00  0.00    +0.000 A 
ATOM     21 CL   UNL     1       4.529  14.969  17.908  0.00  0.00    +0.000 Cl
ATOM     22  C   UNL     1       2.271  13.725  18.737  0.00  0.00    +0.000 A 
ATOM     23  C   UNL     1       0.908  13.709  19.109  0.00  0.00    +0.000 A 
ATOM     24  C   UNL     1      -0.018  12.711  19.582  0.00  0.00    +0.000 A 
ATOM     25  H   UNL     1      -1.818  15.358  19.425  0.00  0.00    +0.000 HD
ENDBRANCH   1  24
BRANCH   7  26
ATOM     26  C   UNL     1       3.728   5.197  18.356  0.00  0.00    +0.000 C 
BRANCH  26  27
ATOM     27  C   UNL     1       4.971   4.803  17.595  0.00  0.00    +0.000 A 
ATOM     28  C   UNL     1       4.840   4.394  16.255  0.00  0.00    +0.000 A 
ATOM     29  C   UNL     1       5.962   4.127  15.471  0.00  0.00    +0.000 A 
ATOM     30  C   UNL     1       7.237   4.271  16.012  0.00  0.00    +0.000 A 
ATOM     31  C   UNL     1       7.386   4.691  17.334  0.00  0.00    +0.000 A 
ATOM     32  C   UNL     1       6.262   4.964  18.119  0.00  0.00    +0.000 A 
ENDBRANCH  26  27
ENDBRANCH   7  26
TORSDOF 3
ENDMDL
MODEL 4
REMARK VINA RESULT:      -8.2      8.528     10.776
REMARK  Name = 
REMARK  5 active torsions:
REMARK  status: ('A' for Active; 'I' for Inactive)
REMARK    1  A    between atoms: C_1  and  C_2
REMARK    2  A    between atoms: C_11  and  C_12
REMARK    3  A    between atoms: N_18  and  C_19
REMARK    4  A    between atoms: C_19  and  C_20
REMARK    5  A    between atoms: C_27  and  C_28
REMARK                            x       y       z     vdW  Elec       q    Type
REMARK                         _______ _______ _______ _____ _____    ______ ____
ROOT
ATOM      1  C   UNL     1      -1.021  11.798  20.432  0.00  0.00    +0.000 A 
ATOM      2  N   UNL     1      -0.524  10.658  21.093  0.00  0.00    +0.000 NA
ATOM      3  C   UNL     1       0.379  10.030  20.354  0.00  0.00    +0.000 A 
ATOM      4  N   UNL     1       0.957   8.831  20.658  0.00  0.00    +0.000 N 
ATOM      5  C   UNL     1       1.752   8.021  19.885  0.00  0.00    +0.000 C 
ATOM      6  N   UNL     1       2.181   8.265  18.683  0.00  0.00    +0.000 NA
ATOM      7  N   UNL     1       2.121   6.834  20.471  0.00  0.00    +0.000 N 
ATOM      8  S   UNL     1       0.785  10.892  18.916  0.00  0.00    +0.000 S 
ATOM      9  C   UNL     1      -0.394  12.072  19.229  0.00  0.00    +0.000 A 
ATOM     10  C   UNL     1      -0.566  13.143  18.214  0.00  0.00    +0.000 C 
ATOM     11  H   UNL     1       0.828   8.524  21.612  0.00  0.00    +0.000 HD
ATOM     12  H   UNL     1       1.834   9.174  18.381  0.00  0.00    +0.000 HD
ATOM     13  H   UNL     1       1.329   6.301  20.811  0.00  0.00    +0.000 HD
ENDROOT
BRANCH   1  24
ATOM     14  C   UNL     1      -1.129  13.644  23.206  0.00  0.00    +0.000 C 
ATOM     15  C   UNL     1      -2.163  13.301  22.199  0.00  0.00    +0.000 A 
ATOM     16  N   UNL     1      -3.424  13.820  22.354  0.00  0.00    +0.000 N 
ATOM     17  C   UNL     1      -4.228  13.477  21.302  0.00  0.00    +0.000 A 
ATOM     18  C   UNL     1      -5.556  13.848  21.054  0.00  0.00    +0.000 A 
ATOM     19  C   UNL     1      -6.161  13.346  19.902  0.00  0.00    +0.000 A 
ATOM     20  C   UNL     1      -5.458  12.501  19.053  0.00  0.00    +0.000 A 
ATOM     21 CL   UNL     1      -6.245  11.892  17.646  0.00  0.00    +0.000 Cl
ATOM     22  C   UNL     1      -4.123  12.141  19.310  0.00  0.00    +0.000 A 
ATOM     23  C   UNL     1      -3.478  12.654  20.457  0.00  0.00    +0.000 A 
ATOM     24  C   UNL     1      -2.158  12.552  21.028  0.00  0.00    +0.000 A 
ATOM     25  H   UNL     1      -3.717  14.410  23.123  0.00  0.00    +0.000 HD
ENDBRANCH   1  24
BRANCH   7  26
ATOM     26  C   UNL     1       3.029   5.972  19.693  0.00  0.00    +0.000 C 
BRANCH  26  27
ATOM     27  C   UNL     1       2.463   4.618  19.333  0.00  0.00    +0.000 A 
ATOM     28  C   UNL     1       1.438   4.082  20.134  0.00  0.00    +0.000 A 
ATOM     29  C   UNL     1       0.802   2.890  19.786  0.00  0.00    +0.000 A 
ATOM     30  C   UNL     1       1.177   2.217  18.626  0.00  0.00    +0.000 A 
ATOM     31  C   UNL     1       2.180   2.743  17.813  0.00  0.00    +0.000 A 
ATOM     32  C   UNL     1       2.815   3.939  18.158  0.00  0.00    +0.000 A 
ENDBRANCH  26  27
ENDBRANCH   7  26
TORSDOF 3
ENDMDL
MODEL 5
REMARK VINA RESULT:      -8.1      6.504      8.536
REMARK  Name = 
REMARK  5 active torsions:
REMARK  status: ('A' for Active; 'I' for Inactive)
REMARK    1  A    between atoms: C_1  and  C_2
REMARK    2  A    between atoms: C_11  and  C_12
REMARK    3  A    between atoms: N_18  and  C_19
REMARK    4  A    between atoms: C_19  and  C_20
REMARK    5  A    between atoms: C_27  and  C_28
REMARK                            x       y       z     vdW  Elec       q    Type
REMARK                         _______ _______ _______ _____ _____    ______ ____
ROOT
ATOM      1  C   UNL     1      -0.162  11.477  20.121  0.00  0.00    +0.000 A 
ATOM      2  N   UNL     1       0.389  10.807  19.011  0.00  0.00    +0.000 NA
ATOM      3  C   UNL     1       0.897   9.635  19.362  0.00  0.00    +0.000 A 
ATOM      4  N   UNL     1       1.608   8.803  18.546  0.00  0.00    +0.000 N 
ATOM      5  C   UNL     1       2.322   7.672  18.855  0.00  0.00    +0.000 C 
ATOM      6  N   UNL     1       2.426   7.108  20.021  0.00  0.00    +0.000 NA
ATOM      7  N   UNL     1       2.987   7.094  17.800  0.00  0.00    +0.000 N 
ATOM      8  S   UNL     1       0.570   9.227  21.006  0.00  0.00    +0.000 S 
ATOM      9  C   UNL     1      -0.153  10.736  21.291  0.00  0.00    +0.000 A 
ATOM     10  C   UNL     1      -0.622  11.012  22.673  0.00  0.00    +0.000 C 
ATOM     11  H   UNL     1       1.551   9.019  17.560  0.00  0.00    +0.000 HD
ATOM     12  H   UNL     1       1.883   7.639  20.700  0.00  0.00    +0.000 HD
ATOM     13  H   UNL     1       3.588   7.746  17.309  0.00  0.00    +0.000 HD
ENDROOT
BRANCH   1  24
ATOM     14  C   UNL     1      -3.148  12.791  20.813  0.00  0.00    +0.000 C 
ATOM     15  C   UNL     1      -1.905  13.381  20.255  0.00  0.00    +0.000 A 
ATOM     16  N   UNL     1      -1.893  14.722  19.962  0.00  0.00    +0.000 N 
ATOM     17  C   UNL     1      -0.655  15.121  19.539  0.00  0.00    +0.000 A 
ATOM     18  C   UNL     1      -0.216  16.406  19.198  0.00  0.00    +0.000 A 
ATOM     19  C   UNL     1       1.107  16.545  18.778  0.00  0.00    +0.000 A 
ATOM     20  C   UNL     1       1.936  15.433  18.697  0.00  0.00    +0.000 A 
ATOM     21 CL   UNL     1       3.561  15.644  18.164  0.00  0.00    +0.000 Cl
ATOM     22  C   UNL     1       1.485  14.148  19.049  0.00  0.00    +0.000 A 
ATOM     23  C   UNL     1       0.156  13.983  19.500  0.00  0.00    +0.000 A 
ATOM     24  C   UNL     1      -0.643  12.877  19.966  0.00  0.00    +0.000 A 
ATOM     25  H   UNL     1      -2.683  15.347  20.077  0.00  0.00    +0.000 HD
ENDBRANCH   1  24
BRANCH   7  26
ATOM     26  C   UNL     1       3.710   5.841  18.086  0.00  0.00    +0.000 C 
BRANCH  26  27
ATOM     27  C   UNL     1       5.210   5.983  18.183  0.00  0.00    +0.000 A 
ATOM     28  C   UNL     1       5.861   6.871  17.306  0.00  0.00    +0.000 A 
ATOM     29  C   UNL     1       7.227   7.126  17.424  0.00  0.00    +0.000 A 
ATOM     30  C   UNL     1       7.965   6.503  18.427  0.00  0.00    +0.000 A 
ATOM     31  C   UNL     1       7.333   5.632  19.314  0.00  0.00    +0.000 A 
ATOM     32  C   UNL     1       5.963   5.379  19.200  0.00  0.00    +0.000 A 
ENDBRANCH  26  27
ENDBRANCH   7  26
TORSDOF 3
ENDMDL
MODEL 6
REMARK VINA RESULT:      -8.1      6.440      8.292
REMARK  Name = 
REMARK  5 active torsions:
REMARK  status: ('A' for Active; 'I' for Inactive)
REMARK    1  A    between atoms: C_1  and  C_2
REMARK    2  A    between atoms: C_11  and  C_12
REMARK    3  A    between atoms: N_18  and  C_19
REMARK    4  A    between atoms: C_19  and  C_20
REMARK    5  A    between atoms: C_27  and  C_28
REMARK                            x       y       z     vdW  Elec       q    Type
REMARK                         _______ _______ _______ _____ _____    ______ ____
ROOT
ATOM      1  C   UNL     1       0.011  11.435  20.002  0.00  0.00    +0.000 A 
ATOM      2  N   UNL     1       0.585  10.668  18.970  0.00  0.00    +0.000 NA
ATOM      3  C   UNL     1       1.006   9.495  19.422  0.00  0.00    +0.000 A 
ATOM      4  N   UNL     1       1.713   8.576  18.701  0.00  0.00    +0.000 N 
ATOM      5  C   UNL     1       2.345   7.431  19.121  0.00  0.00    +0.000 C 
ATOM      6  N   UNL     1       2.351   6.939  20.323  0.00  0.00    +0.000 NA
ATOM      7  N   UNL     1       3.034   6.753  18.145  0.00  0.00    +0.000 N 
ATOM      8  S   UNL     1       0.564   9.211  21.064  0.00  0.00    +0.000 S 
ATOM      9  C   UNL     1      -0.087  10.772  21.213  0.00  0.00    +0.000 A 
ATOM     10  C   UNL     1      -0.617  11.160  22.545  0.00  0.00    +0.000 C 
ATOM     11  H   UNL     1       1.724   8.732  17.703  0.00  0.00    +0.000 HD
ATOM     12  H   UNL     1       1.801   7.541  20.935  0.00  0.00    +0.000 HD
ATOM     13  H   UNL     1       3.697   7.340  17.652  0.00  0.00    +0.000 HD
ENDROOT
BRANCH   1  24
ATOM     14  C   UNL     1      -2.942  12.935  20.392  0.00  0.00    +0.000 C 
ATOM     15  C   UNL     1      -1.632  13.429  19.897  0.00  0.00    +0.000 A 
ATOM     16  N   UNL     1      -1.526  14.748  19.532  0.00  0.00    +0.000 N 
ATOM     17  C   UNL     1      -0.241  15.058  19.182  0.00  0.00    +0.000 A 
ATOM     18  C   UNL     1       0.291  16.298  18.805  0.00  0.00    +0.000 A 
ATOM     19  C   UNL     1       1.646  16.345  18.479  0.00  0.00    +0.000 A 
ATOM     20  C   UNL     1       2.418  15.190  18.524  0.00  0.00    +0.000 A 
ATOM     21 CL   UNL     1       4.087  15.288  18.103  0.00  0.00    +0.000 Cl
ATOM     22  C   UNL     1       1.873  13.953  18.910  0.00  0.00    +0.000 A 
ATOM     23  C   UNL     1       0.509  13.881  19.268  0.00  0.00    +0.000 A 
ATOM     24  C   UNL     1      -0.381  12.846  19.733  0.00  0.00    +0.000 A 
ATOM     25  H   UNL     1      -2.287  15.416  19.552  0.00  0.00    +0.000 HD
ENDBRANCH   1  24
BRANCH   7  26
ATOM     26  C   UNL     1       3.668   5.485  18.549  0.00  0.00    +0.000 C 
BRANCH  26  27
ATOM     27  C   UNL     1       4.975   5.181  17.856  0.00  0.00    +0.000 A 
ATOM     28  C   UNL     1       6.173   5.352  18.573  0.00  0.00    +0.000 A 
ATOM     29  C   UNL     1       7.400   4.980  18.023  0.00  0.00    +0.000 A 
ATOM     30  C   UNL     1       7.448   4.426  16.747  0.00  0.00    +0.000 A 
ATOM     31  C   UNL     1       6.268   4.235  16.028  0.00  0.00    +0.000 A 
ATOM     32  C   UNL     1       5.038   4.602  16.580  0.00  0.00    +0.000 A 
ENDBRANCH  26  27
ENDBRANCH   7  26
TORSDOF 3
ENDMDL
MODEL 7
REMARK VINA RESULT:      -8.0      7.179      8.842
REMARK  Name = 
REMARK  5 active torsions:
REMARK  status: ('A' for Active; 'I' for Inactive)
REMARK    1  A    between atoms: C_1  and  C_2
REMARK    2  A    between atoms: C_11  and  C_12
REMARK    3  A    between atoms: N_18  and  C_19
REMARK    4  A    between atoms: C_19  and  C_20
REMARK    5  A    between atoms: C_27  and  C_28
REMARK                            x       y       z     vdW  Elec       q    Type
REMARK                         _______ _______ _______ _____ _____    ______ ____
ROOT
ATOM      1  C   UNL     1      -0.573  11.895  20.596  0.00  0.00    +0.000 A 
ATOM      2  N   UNL     1       0.038  11.095  19.611  0.00  0.00    +0.000 NA
ATOM      3  C   UNL     1       0.460   9.947  20.119  0.00  0.00    +0.000 A 
ATOM      4  N   UNL     1       1.198   9.009  19.455  0.00  0.00    +0.000 N 
ATOM      5  C   UNL     1       1.831   7.890  19.937  0.00  0.00    +0.000 C 
ATOM      6  N   UNL     1       1.809   7.445  21.157  0.00  0.00    +0.000 NA
ATOM      7  N   UNL     1       2.555   7.183  19.008  0.00  0.00    +0.000 N 
ATOM      8  S   UNL     1      -0.024   9.721  21.759  0.00  0.00    +0.000 S 
ATOM      9  C   UNL     1      -0.698  11.278  21.829  0.00  0.00    +0.000 A 
ATOM     10  C   UNL     1      -1.269  11.711  23.129  0.00  0.00    +0.000 C 
ATOM     11  H   UNL     1       1.234   9.126  18.452  0.00  0.00    +0.000 HD
ATOM     12  H   UNL     1       1.236   8.063  21.730  0.00  0.00    +0.000 HD
ATOM     13  H   UNL     1       3.225   7.759  18.510  0.00  0.00    +0.000 HD
ENDROOT
BRANCH   1  24
ATOM     14  C   UNL     1      -3.528  13.402  20.945  0.00  0.00    +0.000 C 
ATOM     15  C   UNL     1      -2.226  13.875  20.411  0.00  0.00    +0.000 A 
ATOM     16  N   UNL     1      -2.130  15.174  19.978  0.00  0.00    +0.000 N 
ATOM     17  C   UNL     1      -0.851  15.471  19.597  0.00  0.00    +0.000 A 
ATOM     18  C   UNL     1      -0.328  16.691  19.151  0.00  0.00    +0.000 A 
ATOM     19  C   UNL     1       1.023  16.727  18.808  0.00  0.00    +0.000 A 
ATOM     20  C   UNL     1       1.800  15.579  18.900  0.00  0.00    +0.000 A 
ATOM     21 CL   UNL     1       3.463  15.661  18.456  0.00  0.00    +0.000 Cl
ATOM     22  C   UNL     1       1.265  14.361  19.356  0.00  0.00    +0.000 A 
ATOM     23  C   UNL     1      -0.095  14.302  19.733  0.00  0.00    +0.000 A 
ATOM     24  C   UNL     1      -0.975  13.289  20.261  0.00  0.00    +0.000 A 
ATOM     25  H   UNL     1      -2.893  15.840  19.973  0.00  0.00    +0.000 HD
ENDBRANCH   1  24
BRANCH   7  26
ATOM     26  C   UNL     1       3.192   5.940  19.479  0.00  0.00    +0.000 C 
BRANCH  26  27
ATOM     27  C   UNL     1       2.408   4.680  19.198  0.00  0.00    +0.000 A 
ATOM     28  C   UNL     1       2.785   3.882  18.102  0.00  0.00    +0.000 A 
ATOM     29  C   UNL     1       2.170   2.653  17.861  0.00  0.00    +0.000 A 
ATOM     30  C   UNL     1       1.170   2.199  18.717  0.00  0.00    +0.000 A 
ATOM     31  C   UNL     1       0.794   2.971  19.816  0.00  0.00    +0.000 A 
ATOM     32  C   UNL     1       1.413   4.200  20.062  0.00  0.00    +0.000 A 
ENDBRANCH  26  27
ENDBRANCH   7  26
TORSDOF 3
ENDMDL
MODEL 8
REMARK VINA RESULT:      -7.9      9.095     11.288
REMARK  Name = 
REMARK  5 active torsions:
REMARK  status: ('A' for Active; 'I' for Inactive)
REMARK    1  A    between atoms: C_1  and  C_2
REMARK    2  A    between atoms: C_11  and  C_12
REMARK    3  A    between atoms: N_18  and  C_19
REMARK    4  A    between atoms: C_19  and  C_20
REMARK    5  A    between atoms: C_27  and  C_28
REMARK                            x       y       z     vdW  Elec       q    Type
REMARK                         _______ _______ _______ _____ _____    ______ ____
ROOT
ATOM      1  C   UNL     1      -1.369  12.419  21.561  0.00  0.00    +0.000 A 
ATOM      2  N   UNL     1      -0.945  11.171  22.057  0.00  0.00    +0.000 NA
ATOM      3  C   UNL     1      -0.065  10.605  21.244  0.00  0.00    +0.000 A 
ATOM      4  N   UNL     1       0.443   9.345  21.378  0.00  0.00    +0.000 N 
ATOM      5  C   UNL     1       1.206   8.611  20.504  0.00  0.00    +0.000 C 
ATOM      6  N   UNL     1       1.667   8.999  19.353  0.00  0.00    +0.000 NA
ATOM      7  N   UNL     1       1.501   7.334  20.917  0.00  0.00    +0.000 N 
ATOM      8  S   UNL     1       0.410  11.639  19.947  0.00  0.00    +0.000 S 
ATOM      9  C   UNL     1      -0.709  12.827  20.415  0.00  0.00    +0.000 A 
ATOM     10  C   UNL     1      -0.806  14.039  19.563  0.00  0.00    +0.000 C 
ATOM     11  H   UNL     1       0.282   8.913  22.277  0.00  0.00    +0.000 HD
ATOM     12  H   UNL     1       1.374   9.960  19.181  0.00  0.00    +0.000 HD
ATOM     13  H   UNL     1       0.676   6.802  21.170  0.00  0.00    +0.000 HD
ENDROOT
BRANCH   1  24
ATOM     14  C   UNL     1      -1.243  14.575  24.102  0.00  0.00    +0.000 C 
ATOM     15  C   UNL     1      -2.378  14.026  23.318  0.00  0.00    +0.000 A 
ATOM     16  N   UNL     1      -3.648  14.452  23.619  0.00  0.00    +0.000 N 
ATOM     17  C   UNL     1      -4.562  13.918  22.754  0.00  0.00    +0.000 A 
ATOM     18  C   UNL     1      -5.943  14.143  22.686  0.00  0.00    +0.000 A 
ATOM     19  C   UNL     1      -6.661  13.455  21.709  0.00  0.00    +0.000 A 
ATOM     20  C   UNL     1      -6.012  12.574  20.852  0.00  0.00    +0.000 A 
ATOM     21 CL   UNL     1      -6.937  11.735  19.665  0.00  0.00    +0.000 Cl
ATOM     22  C   UNL     1      -4.624  12.362  20.926  0.00  0.00    +0.000 A 
ATOM     23  C   UNL     1      -3.868  13.064  21.892  0.00  0.00    +0.000 A 
ATOM     24  C   UNL     1      -2.474  13.142  22.250  0.00  0.00    +0.000 A 
ATOM     25  H   UNL     1      -3.878  15.105  24.358  0.00  0.00    +0.000 HD
ENDBRANCH   1  24
BRANCH   7  26
ATOM     26  C   UNL     1       2.374   6.542  20.032  0.00  0.00    +0.000 C 
BRANCH  26  27
ATOM     27  C   UNL     1       1.858   5.160  19.705  0.00  0.00    +0.000 A 
ATOM     28  C   UNL     1       1.930   4.713  18.373  0.00  0.00    +0.000 A 
ATOM     29  C   UNL     1       1.574   3.408  18.032  0.00  0.00    +0.000 A 
ATOM     30  C   UNL     1       1.145   2.526  19.020  0.00  0.00    +0.000 A 
ATOM     31  C   UNL     1       1.083   2.948  20.348  0.00  0.00    +0.000 A 
ATOM     32  C   UNL     1       1.444   4.254  20.691  0.00  0.00    +0.000 A 
ENDBRANCH  26  27
ENDBRANCH   7  26
TORSDOF 3
ENDMDL
MODEL 9
REMARK VINA RESULT:      -7.9      8.792     10.745
REMARK  Name = 
REMARK  5 active torsions:
REMARK  status: ('A' for Active; 'I' for Inactive)
REMARK    1  A    between atoms: C_1  and  C_2
REMARK    2  A    between atoms: C_11  and  C_12
REMARK    3  A    between atoms: N_18  and  C_19
REMARK    4  A    between atoms: C_19  and  C_20
REMARK    5  A    between atoms: C_27  and  C_28
REMARK                            x       y       z     vdW  Elec       q    Type
REMARK                         _______ _______ _______ _____ _____    ______ ____
ROOT
ATOM      1  C   UNL     1      -1.448  12.346  21.010  0.00  0.00    +0.000 A 
ATOM      2  N   UNL     1      -1.070  11.117  21.585  0.00  0.00    +0.000 NA
ATOM      3  C   UNL     1      -0.095  10.544  20.894  0.00  0.00    +0.000 A 
ATOM      4  N   UNL     1       0.408   9.295  21.119  0.00  0.00    +0.000 N 
ATOM      5  C   UNL     1       1.276   8.550  20.359  0.00  0.00    +0.000 C 
ATOM      6  N   UNL     1       1.862   8.915  19.259  0.00  0.00    +0.000 NA
ATOM      7  N   UNL     1       1.535   7.288  20.838  0.00  0.00    +0.000 N 
ATOM      8  S   UNL     1       0.515  11.551  19.633  0.00  0.00    +0.000 S 
ATOM      9  C   UNL     1      -0.664  12.734  19.936  0.00  0.00    +0.000 A 
ATOM     10  C   UNL     1      -0.676  13.922  19.046  0.00  0.00    +0.000 C 
ATOM     11  H   UNL     1       0.149   8.884  22.005  0.00  0.00    +0.000 HD
ATOM     12  H   UNL     1       1.580   9.867  19.029  0.00  0.00    +0.000 HD
ATOM     13  H   UNL     1       0.693   6.751  21.009  0.00  0.00    +0.000 HD
ENDROOT
BRANCH   1  24
ATOM     14  C   UNL     1      -4.581  12.442  19.872  0.00  0.00    +0.000 C 
ATOM     15  C   UNL     1      -3.923  13.095  21.031  0.00  0.00    +0.000 A 
ATOM     16  N   UNL     1      -4.684  13.888  21.853  0.00  0.00    +0.000 N 
ATOM     17  C   UNL     1      -3.949  14.342  22.913  0.00  0.00    +0.000 A 
ATOM     18  C   UNL     1      -4.364  15.126  23.998  0.00  0.00    +0.000 A 
ATOM     19  C   UNL     1      -3.404  15.469  24.949  0.00  0.00    +0.000 A 
ATOM     20  C   UNL     1      -2.088  15.048  24.800  0.00  0.00    +0.000 A 
ATOM     21 CL   UNL     1      -0.929  15.503  25.992  0.00  0.00    +0.000 Cl
ATOM     22  C   UNL     1      -1.685  14.256  23.710  0.00  0.00    +0.000 A 
ATOM     23  C   UNL     1      -2.642  13.874  22.744  0.00  0.00    +0.000 A 
ATOM     24  C   UNL     1      -2.633  13.071  21.546  0.00  0.00    +0.000 A 
ATOM     25  H   UNL     1      -5.669  14.083  21.719  0.00  0.00    +0.000 HD
ENDBRANCH   1  24
BRANCH   7  26
ATOM     26  C   UNL     1       2.513   6.487  20.081  0.00  0.00    +0.000 C 
BRANCH  26  27
ATOM     27  C   UNL     1       2.038   5.106  19.695  0.00  0.00    +0.000 A 
ATOM     28  C   UNL     1       1.506   4.273  20.696  0.00  0.00    +0.000 A 
ATOM     29  C   UNL     1       0.950   3.033  20.380  0.00  0.00    +0.000 A 
ATOM     30  C   UNL     1       0.910   2.608  19.055  0.00  0.00    +0.000 A 
ATOM     31  C   UNL     1       1.419   3.429  18.048  0.00  0.00    +0.000 A 
ATOM     32  C   UNL     1       1.972   4.673  18.363  0.00  0.00    +0.000 A 
ENDBRANCH  26  27
ENDBRANCH   7  26
TORSDOF 3
ENDMDL
