MODEL 1
REMARK VINA RESULT:      -7.3      0.000      0.000
REMARK  Name = 
REMARK  16 active torsions:
REMARK  status: ('A' for Active; 'I' for Inactive)
REMARK    1  A    between atoms: C_2  and  N_3
REMARK    2  A    between atoms: C_2  and  C_14
REMARK    3  A    between atoms: C_4  and  C_6
REMARK    4  A    between atoms: C_6  and  C_7
REMARK    5  A    between atoms: C_7  and  C_8
REMARK    6  A    between atoms: C_8  and  C_9
REMARK    7  A    between atoms: C_9  and  N_10
REMARK    8  A    between atoms: C_9  and  C_11
REMARK    9  A    between atoms: C_11  and  O_13
REMARK   10  A    between atoms: N_16  and  C_17
REMARK   11  A    between atoms: C_17  and  C_18
REMARK   12  A    between atoms: C_17  and  C_27
REMARK   13  A    between atoms: C_18  and  O_19
REMARK   14  A    between atoms: O_19  and  C_20
REMARK   15  A    between atoms: C_20  and  C_21
REMARK   16  A    between atoms: C_27  and  O_29
REMARK                            x       y       z     vdW  Elec       q    Type
REMARK                         _______ _______ _______ _____ _____    ______ ____
ROOT
ATOM      1  C   UNK A   1       5.456   4.666  17.805  0.00  0.00    +0.000 C 
ATOM      2  O   UNK A   1       5.489   4.159  18.925  0.00  0.00    +0.000 OA
ATOM      3  N   UNK A   2       6.208   5.765  17.439  0.00  0.00    +0.000 N 
ATOM      4  H   UNK A   2       5.851   6.321  16.670  0.00  0.00    +0.000 HD
ENDROOT
BRANCH   1   6
ATOM      5  C   UNK A   1       5.125   3.678  15.578  0.00  0.00    +0.000 C 
ATOM      6  C   UNK A   1       4.557   4.081  16.725  0.00  0.00    +0.000 C 
BRANCH   6   7
ATOM      7  N   UNK A   1       3.221   3.909  17.067  0.00  0.00    +0.000 N 
ATOM      8  C   UNK A   1       2.603   2.818  17.663  0.00  0.00    +0.000 C 
ATOM      9  O   UNK A   1       3.151   1.766  17.982  0.00  0.00    +0.000 OA
ATOM     10  H   UNK A   1       2.645   4.728  16.872  0.00  0.00    +0.000 HD
BRANCH   8  11
ATOM     11  C   UNK A   1       1.102   3.058  17.921  0.00  0.00    +0.000 C 
BRANCH  11  12
ATOM     12  C   UNK A   1       0.685   2.854  19.394  0.00  0.00    +0.000 C 
BRANCH  12  13
ATOM     13  C   UNK A   1       0.811   4.132  20.248  0.00  0.00    +0.000 C 
BRANCH  13  14
ATOM     14  C   UNK A   1       2.094   4.232  21.104  0.00  0.00    +0.000 C 
BRANCH  14  15
ATOM     15  N   UNK A   1       3.140   5.017  20.412  0.00  0.00    +0.000 NA
ATOM     16  H   UNK A   1       3.743   4.365  19.901  0.00  0.00    +0.000 HD
ATOM     17  H   UNK A   1       3.774   5.391  21.126  0.00  0.00    +0.000 HD
ENDBRANCH  14  15
BRANCH  14  18
ATOM     18  C   UNK A   1       2.655   2.859  21.529  0.00  0.00    +0.000 C 
ATOM     19  O   UNK A   1       3.768   2.448  21.224  0.00  0.00    +0.000 OA
BRANCH  18  20
ATOM     20  O   UNK A   1       1.827   2.150  22.328  0.00  0.00    +0.000 OA
ATOM     21  H   UNK A   1       2.154   1.263  22.566  0.00  0.00    +0.000 HD
ENDBRANCH  18  20
ENDBRANCH  14  18
ENDBRANCH  13  14
ENDBRANCH  12  13
ENDBRANCH  11  12
ENDBRANCH   8  11
ENDBRANCH   6   7
ENDBRANCH   1   6
BRANCH   3  22
ATOM     22  C   UNK A   2       7.090   6.482  18.395  0.00  0.00    +0.000 C 
BRANCH  22  23
ATOM     23  C   UNK A   2       7.996   5.494  19.154  0.00  0.00    +0.000 C 
ATOM     24  O   UNK A   2       8.648   4.609  18.620  0.00  0.00    +0.000 OA
BRANCH  23  25
ATOM     25  O   UNK A   2       7.998   5.665  20.500  0.00  0.00    +0.000 OA
ATOM     26  H   UNK A   2       7.183   5.289  20.889  0.00  0.00    +0.000 HD
ENDBRANCH  23  25
ENDBRANCH  22  23
BRANCH  22  27
ATOM     27  C   UNK A   2       7.980   7.519  17.670  0.00  0.00    +0.000 C 
BRANCH  27  28
ATOM     28  O   UNK A   2       8.626   8.367  18.641  0.00  0.00    +0.000 OA
BRANCH  28  29
ATOM     29  C   UNK A   2       8.402   9.766  18.392  0.00  0.00    +0.000 C 
BRANCH  29  30
ATOM     30  C   UNK A   2       9.537  10.651  18.880  0.00  0.00    +0.000 A 
ATOM     31  C   UNK A   2       9.658  11.068  20.214  0.00  0.00    +0.000 A 
ATOM     32  C   UNK A   2      10.716  11.894  20.619  0.00  0.00    +0.000 A 
ATOM     33  C   UNK A   2      11.674  12.318  19.699  0.00  0.00    +0.000 A 
ATOM     34  C   UNK A   2      11.576  11.907  18.371  0.00  0.00    +0.000 A 
ATOM     35  C   UNK A   2      10.518  11.080  17.967  0.00  0.00    +0.000 A 
ENDBRANCH  29  30
ENDBRANCH  28  29
ENDBRANCH  27  28
ENDBRANCH  22  27
ENDBRANCH   3  22
TORSDOF 16
ENDMDL
MODEL 2
REMARK VINA RESULT:      -7.3      1.961      2.348
REMARK  Name = 
REMARK  16 active torsions:
REMARK  status: ('A' for Active; 'I' for Inactive)
REMARK    1  A    between atoms: C_2  and  N_3
REMARK    2  A    between atoms: C_2  and  C_14
REMARK    3  A    between atoms: C_4  and  C_6
REMARK    4  A    between atoms: C_6  and  C_7
REMARK    5  A    between atoms: C_7  and  C_8
REMARK    6  A    between atoms: C_8  and  C_9
REMARK    7  A    between atoms: C_9  and  N_10
REMARK    8  A    between atoms: C_9  and  C_11
REMARK    9  A    between atoms: C_11  and  O_13
REMARK   10  A    between atoms: N_16  and  C_17
REMARK   11  A    between atoms: C_17  and  C_18
REMARK   12  A    between atoms: C_17  and  C_27
REMARK   13  A    between atoms: C_18  and  O_19
REMARK   14  A    between atoms: O_19  and  C_20
REMARK   15  A    between atoms: C_20  and  C_21
REMARK   16  A    between atoms: C_27  and  O_29
REMARK                            x       y       z     vdW  Elec       q    Type
REMARK                         _______ _______ _______ _____ _____    ______ ____
ROOT
ATOM      1  C   UNK A   1       4.813   6.530  17.276  0.00  0.00    +0.000 C 
ATOM      2  O   UNK A   1       5.023   6.752  16.084  0.00  0.00    +0.000 OA
ATOM      3  N   UNK A   2       5.812   6.403  18.220  0.00  0.00    +0.000 N 
ATOM      4  H   UNK A   2       5.585   5.866  19.049  0.00  0.00    +0.000 HD
ENDROOT
BRANCH   1   6
ATOM      5  C   UNK A   1       2.735   7.496  18.168  0.00  0.00    +0.000 C 
ATOM      6  C   UNK A   1       3.387   6.386  17.788  0.00  0.00    +0.000 C 
BRANCH   6   7
ATOM      7  N   UNK A   1       2.834   5.112  17.713  0.00  0.00    +0.000 N 
ATOM      8  C   UNK A   1       3.459   3.901  17.447  0.00  0.00    +0.000 C 
ATOM      9  O   UNK A   1       4.652   3.746  17.200  0.00  0.00    +0.000 OA
ATOM     10  H   UNK A   1       1.836   5.091  17.920  0.00  0.00    +0.000 HD
BRANCH   8  11
ATOM     11  C   UNK A   1       2.485   2.708  17.510  0.00  0.00    +0.000 C 
BRANCH  11  12
ATOM     12  C   UNK A   1       2.666   1.826  18.765  0.00  0.00    +0.000 C 
BRANCH  12  13
ATOM     13  C   UNK A   1       1.586   2.063  19.841  0.00  0.00    +0.000 C 
BRANCH  13  14
ATOM     14  C   UNK A   1       2.012   2.973  21.015  0.00  0.00    +0.000 C 
BRANCH  14  15
ATOM     15  N   UNK A   1       1.387   2.537  22.284  0.00  0.00    +0.000 NA
ATOM     16  H   UNK A   1       2.107   2.545  23.013  0.00  0.00    +0.000 HD
ATOM     17  H   UNK A   1       1.170   1.539  22.199  0.00  0.00    +0.000 HD
ENDBRANCH  14  15
BRANCH  14  18
ATOM     18  C   UNK A   1       1.721   4.468  20.767  0.00  0.00    +0.000 C 
ATOM     19  O   UNK A   1       0.715   4.888  20.209  0.00  0.00    +0.000 OA
BRANCH  18  20
ATOM     20  O   UNK A   1       2.656   5.301  21.276  0.00  0.00    +0.000 OA
ATOM     21  H   UNK A   1       2.757   5.255  22.244  0.00  0.00    +0.000 HD
ENDBRANCH  18  20
ENDBRANCH  14  18
ENDBRANCH  13  14
ENDBRANCH  12  13
ENDBRANCH  11  12
ENDBRANCH   8  11
ENDBRANCH   6   7
ENDBRANCH   1   6
BRANCH   3  22
ATOM     22  C   UNK A   2       7.254   6.462  17.868  0.00  0.00    +0.000 C 
BRANCH  22  23
ATOM     23  C   UNK A   2       7.602   5.408  16.800  0.00  0.00    +0.000 C 
ATOM     24  O   UNK A   2       7.952   4.264  17.050  0.00  0.00    +0.000 OA
BRANCH  23  25
ATOM     25  O   UNK A   2       7.518   5.863  15.524  0.00  0.00    +0.000 OA
ATOM     26  H   UNK A   2       7.348   5.120  14.912  0.00  0.00    +0.000 HD
ENDBRANCH  23  25
ENDBRANCH  22  23
BRANCH  22  27
ATOM     27  C   UNK A   2       7.647   7.860  17.336  0.00  0.00    +0.000 C 
BRANCH  27  28
ATOM     28  O   UNK A   2       8.397   8.570  18.342  0.00  0.00    +0.000 OA
BRANCH  28  29
ATOM     29  C   UNK A   2       8.286   9.998  18.212  0.00  0.00    +0.000 C 
BRANCH  29  30
ATOM     30  C   UNK A   2       9.501  10.744  18.739  0.00  0.00    +0.000 A 
ATOM     31  C   UNK A   2       9.679  11.045  20.098  0.00  0.00    +0.000 A 
ATOM     32  C   UNK A   2      10.811  11.745  20.539  0.00  0.00    +0.000 A 
ATOM     33  C   UNK A   2      11.786  12.156  19.632  0.00  0.00    +0.000 A 
ATOM     34  C   UNK A   2      11.631  11.859  18.280  0.00  0.00    +0.000 A 
ATOM     35  C   UNK A   2      10.500  11.158  17.838  0.00  0.00    +0.000 A 
ENDBRANCH  29  30
ENDBRANCH  28  29
ENDBRANCH  27  28
ENDBRANCH  22  27
ENDBRANCH   3  22
TORSDOF 16
ENDMDL
MODEL 3
REMARK VINA RESULT:      -7.0      4.994      5.456
REMARK  Name = 
REMARK  16 active torsions:
REMARK  status: ('A' for Active; 'I' for Inactive)
REMARK    1  A    between atoms: C_2  and  N_3
REMARK    2  A    between atoms: C_2  and  C_14
REMARK    3  A    between atoms: C_4  and  C_6
REMARK    4  A    between atoms: C_6  and  C_7
REMARK    5  A    between atoms: C_7  and  C_8
REMARK    6  A    between atoms: C_8  and  C_9
REMARK    7  A    between atoms: C_9  and  N_10
REMARK    8  A    between atoms: C_9  and  C_11
REMARK    9  A    between atoms: C_11  and  O_13
REMARK   10  A    between atoms: N_16  and  C_17
REMARK   11  A    between atoms: C_17  and  C_18
REMARK   12  A    between atoms: C_17  and  C_27
REMARK   13  A    between atoms: C_18  and  O_19
REMARK   14  A    between atoms: O_19  and  C_20
REMARK   15  A    between atoms: C_20  and  C_21
REMARK   16  A    between atoms: C_27  and  O_29
REMARK                            x       y       z     vdW  Elec       q    Type
REMARK                         _______ _______ _______ _____ _____    ______ ____
ROOT
ATOM      1  C   UNK A   1       4.445   5.774  18.629  0.00  0.00    +0.000 C 
ATOM      2  O   UNK A   1       4.851   5.103  19.576  0.00  0.00    +0.000 OA
ATOM      3  N   UNK A   2       5.275   6.432  17.743  0.00  0.00    +0.000 N 
ATOM      4  H   UNK A   2       4.878   7.230  17.259  0.00  0.00    +0.000 HD
ENDROOT
BRANCH   1   6
ATOM      5  C   UNK A   1       2.308   4.879  17.803  0.00  0.00    +0.000 C 
ATOM      6  C   UNK A   1       2.951   5.911  18.372  0.00  0.00    +0.000 C 
BRANCH   6   7
ATOM      7  N   UNK A   1       2.349   7.067  18.858  0.00  0.00    +0.000 N 
ATOM      8  C   UNK A   1       2.169   8.291  18.228  0.00  0.00    +0.000 C 
ATOM      9  O   UNK A   1       2.547   8.580  17.096  0.00  0.00    +0.000 OA
ATOM     10  H   UNK A   1       1.966   6.959  19.797  0.00  0.00    +0.000 HD
BRANCH   8  11
ATOM     11  C   UNK A   1       1.400   9.298  19.107  0.00  0.00    +0.000 C 
BRANCH  11  12
ATOM     12  C   UNK A   1       0.375  10.147  18.323  0.00  0.00    +0.000 C 
BRANCH  12  13
ATOM     13  C   UNK A   1      -0.725  10.756  19.217  0.00  0.00    +0.000 C 
BRANCH  13  14
ATOM     14  C   UNK A   1      -1.829  11.537  18.467  0.00  0.00    +0.000 C 
BRANCH  14  15
ATOM     15  N   UNK A   1      -1.246  12.551  17.561  0.00  0.00    +0.000 NA
ATOM     16  H   UNK A   1      -2.013  13.031  17.083  0.00  0.00    +0.000 HD
ATOM     17  H   UNK A   1      -0.782  12.054  16.793  0.00  0.00    +0.000 HD
ENDBRANCH  14  15
BRANCH  14  18
ATOM     18  C   UNK A   1      -2.859  12.196  19.408  0.00  0.00    +0.000 C 
ATOM     19  O   UNK A   1      -2.628  12.502  20.571  0.00  0.00    +0.000 OA
BRANCH  18  20
ATOM     20  O   UNK A   1      -4.046  12.465  18.820  0.00  0.00    +0.000 OA
ATOM     21  H   UNK A   1      -4.380  11.757  18.240  0.00  0.00    +0.000 HD
ENDBRANCH  18  20
ENDBRANCH  14  18
ENDBRANCH  13  14
ENDBRANCH  12  13
ENDBRANCH  11  12
ENDBRANCH   8  11
ENDBRANCH   6   7
ENDBRANCH   1   6
BRANCH   3  22
ATOM     22  C   UNK A   2       6.753   6.441  17.892  0.00  0.00    +0.000 C 
BRANCH  22  23
ATOM     23  C   UNK A   2       7.374   5.169  17.284  0.00  0.00    +0.000 C 
ATOM     24  O   UNK A   2       7.604   5.017  16.094  0.00  0.00    +0.000 OA
BRANCH  23  25
ATOM     25  O   UNK A   2       7.629   4.191  18.189  0.00  0.00    +0.000 OA
ATOM     26  H   UNK A   2       6.803   3.920  18.636  0.00  0.00    +0.000 HD
ENDBRANCH  23  25
ENDBRANCH  22  23
BRANCH  22  27
ATOM     27  C   UNK A   2       7.380   7.678  17.207  0.00  0.00    +0.000 C 
BRANCH  27  28
ATOM     28  O   UNK A   2       8.062   8.484  18.189  0.00  0.00    +0.000 OA
BRANCH  28  29
ATOM     29  C   UNK A   2       8.243   9.845  17.761  0.00  0.00    +0.000 C 
BRANCH  29  30
ATOM     30  C   UNK A   2       9.306  10.586  18.553  0.00  0.00    +0.000 A 
ATOM     31  C   UNK A   2       9.283  10.686  19.953  0.00  0.00    +0.000 A 
ATOM     32  C   UNK A   2      10.281  11.389  20.643  0.00  0.00    +0.000 A 
ATOM     33  C   UNK A   2      11.321  12.005  19.948  0.00  0.00    +0.000 A 
ATOM     34  C   UNK A   2      11.366  11.909  18.559  0.00  0.00    +0.000 A 
ATOM     35  C   UNK A   2      10.369  11.205  17.869  0.00  0.00    +0.000 A 
ENDBRANCH  29  30
ENDBRANCH  28  29
ENDBRANCH  27  28
ENDBRANCH  22  27
ENDBRANCH   3  22
TORSDOF 16
ENDMDL
MODEL 4
REMARK VINA RESULT:      -6.9      3.241      5.856
REMARK  Name = 
REMARK  16 active torsions:
REMARK  status: ('A' for Active; 'I' for Inactive)
REMARK    1  A    between atoms: C_2  and  N_3
REMARK    2  A    between atoms: C_2  and  C_14
REMARK    3  A    between atoms: C_4  and  C_6
REMARK    4  A    between atoms: C_6  and  C_7
REMARK    5  A    between atoms: C_7  and  C_8
REMARK    6  A    between atoms: C_8  and  C_9
REMARK    7  A    between atoms: C_9  and  N_10
REMARK    8  A    between atoms: C_9  and  C_11
REMARK    9  A    between atoms: C_11  and  O_13
REMARK   10  A    between atoms: N_16  and  C_17
REMARK   11  A    between atoms: C_17  and  C_18
REMARK   12  A    between atoms: C_17  and  C_27
REMARK   13  A    between atoms: C_18  and  O_19
REMARK   14  A    between atoms: O_19  and  C_20
REMARK   15  A    between atoms: C_20  and  C_21
REMARK   16  A    between atoms: C_27  and  O_29
REMARK                            x       y       z     vdW  Elec       q    Type
REMARK                         _______ _______ _______ _____ _____    ______ ____
ROOT
ATOM      1  C   UNK A   1       4.505   5.896  17.673  0.00  0.00    +0.000 C 
ATOM      2  O   UNK A   1       4.507   4.908  16.941  0.00  0.00    +0.000 OA
ATOM      3  N   UNK A   2       5.651   6.549  18.082  0.00  0.00    +0.000 N 
ATOM      4  H   UNK A   2       5.586   7.079  18.944  0.00  0.00    +0.000 HD
ENDROOT
BRANCH   1   6
ATOM      5  C   UNK A   1       2.760   7.628  17.646  0.00  0.00    +0.000 C 
ATOM      6  C   UNK A   1       3.190   6.473  18.178  0.00  0.00    +0.000 C 
BRANCH   6   7
ATOM      7  N   UNK A   1       2.481   5.687  19.079  0.00  0.00    +0.000 N 
ATOM      8  C   UNK A   1       1.579   4.663  18.826  0.00  0.00    +0.000 C 
ATOM      9  O   UNK A   1       1.221   4.277  17.717  0.00  0.00    +0.000 OA
ATOM     10  H   UNK A   1       2.701   5.891  20.054  0.00  0.00    +0.000 HD
BRANCH   8  11
ATOM     11  C   UNK A   1       1.054   4.008  20.119  0.00  0.00    +0.000 C 
BRANCH  11  12
ATOM     12  C   UNK A   1       2.138   3.817  21.203  0.00  0.00    +0.000 C 
BRANCH  12  13
ATOM     13  C   UNK A   1       2.831   2.441  21.140  0.00  0.00    +0.000 C 
BRANCH  13  14
ATOM     14  C   UNK A   1       3.996   2.333  20.130  0.00  0.00    +0.000 C 
BRANCH  14  15
ATOM     15  N   UNK A   1       4.732   3.612  20.022  0.00  0.00    +0.000 NA
ATOM     16  H   UNK A   1       4.058   4.351  19.802  0.00  0.00    +0.000 HD
ATOM     17  H   UNK A   1       5.304   3.573  19.172  0.00  0.00    +0.000 HD
ENDBRANCH  14  15
BRANCH  14  18
ATOM     18  C   UNK A   1       3.552   1.857  18.731  0.00  0.00    +0.000 C 
ATOM     19  O   UNK A   1       2.492   1.287  18.505  0.00  0.00    +0.000 OA
BRANCH  18  20
ATOM     20  O   UNK A   1       4.417   2.176  17.742  0.00  0.00    +0.000 OA
ATOM     21  H   UNK A   1       4.367   3.103  17.444  0.00  0.00    +0.000 HD
ENDBRANCH  18  20
ENDBRANCH  14  18
ENDBRANCH  13  14
ENDBRANCH  12  13
ENDBRANCH  11  12
ENDBRANCH   8  11
ENDBRANCH   6   7
ENDBRANCH   1   6
BRANCH   3  22
ATOM     22  C   UNK A   2       7.011   6.075  17.721  0.00  0.00    +0.000 C 
BRANCH  22  23
ATOM     23  C   UNK A   2       7.979   6.225  18.911  0.00  0.00    +0.000 C 
ATOM     24  O   UNK A   2       8.177   5.359  19.750  0.00  0.00    +0.000 OA
BRANCH  23  25
ATOM     25  O   UNK A   2       8.593   7.433  18.977  0.00  0.00    +0.000 OA
ATOM     26  H   UNK A   2       8.210   8.043  18.317  0.00  0.00    +0.000 HD
ENDBRANCH  23  25
ENDBRANCH  22  23
BRANCH  22  27
ATOM     27  C   UNK A   2       6.992   4.593  17.279  0.00  0.00    +0.000 C 
BRANCH  27  28
ATOM     28  O   UNK A   2       7.755   4.438  16.065  0.00  0.00    +0.000 OA
BRANCH  28  29
ATOM     29  C   UNK A   2       7.296   5.299  15.008  0.00  0.00    +0.000 C 
BRANCH  29  30
ATOM     30  C   UNK A   2       6.728   4.539  13.820  0.00  0.00    +0.000 A 
ATOM     31  C   UNK A   2       7.468   4.285  12.655  0.00  0.00    +0.000 A 
ATOM     32  C   UNK A   2       6.900   3.588  11.578  0.00  0.00    +0.000 A 
ATOM     33  C   UNK A   2       5.586   3.130  11.646  0.00  0.00    +0.000 A 
ATOM     34  C   UNK A   2       4.839   3.364  12.799  0.00  0.00    +0.000 A 
ATOM     35  C   UNK A   2       5.406   4.060  13.876  0.00  0.00    +0.000 A 
ENDBRANCH  29  30
ENDBRANCH  28  29
ENDBRANCH  27  28
ENDBRANCH  22  27
ENDBRANCH   3  22
TORSDOF 16
ENDMDL
MODEL 5
REMARK VINA RESULT:      -6.8      1.987      2.761
REMARK  Name = 
REMARK  16 active torsions:
REMARK  status: ('A' for Active; 'I' for Inactive)
REMARK    1  A    between atoms: C_2  and  N_3
REMARK    2  A    between atoms: C_2  and  C_14
REMARK    3  A    between atoms: C_4  and  C_6
REMARK    4  A    between atoms: C_6  and  C_7
REMARK    5  A    between atoms: C_7  and  C_8
REMARK    6  A    between atoms: C_8  and  C_9
REMARK    7  A    between atoms: C_9  and  N_10
REMARK    8  A    between atoms: C_9  and  C_11
REMARK    9  A    between atoms: C_11  and  O_13
REMARK   10  A    between atoms: N_16  and  C_17
REMARK   11  A    between atoms: C_17  and  C_18
REMARK   12  A    between atoms: C_17  and  C_27
REMARK   13  A    between atoms: C_18  and  O_19
REMARK   14  A    between atoms: O_19  and  C_20
REMARK   15  A    between atoms: C_20  and  C_21
REMARK   16  A    between atoms: C_27  and  O_29
REMARK                            x       y       z     vdW  Elec       q    Type
REMARK                         _______ _______ _______ _____ _____    ______ ____
ROOT
ATOM      1  C   UNK A   1       4.707   6.784  17.536  0.00  0.00    +0.000 C 
ATOM      2  O   UNK A   1       4.897   6.940  16.331  0.00  0.00    +0.000 OA
ATOM      3  N   UNK A   2       5.673   6.327  18.410  0.00  0.00    +0.000 N 
ATOM      4  H   UNK A   2       5.340   5.882  19.259  0.00  0.00    +0.000 HD
ENDROOT
BRANCH   1   6
ATOM      5  C   UNK A   1       2.555   7.973  17.501  0.00  0.00    +0.000 C 
ATOM      6  C   UNK A   1       3.350   7.105  18.146  0.00  0.00    +0.000 C 
BRANCH   6   7
ATOM      7  N   UNK A   1       2.999   6.377  19.277  0.00  0.00    +0.000 N 
ATOM      8  C   UNK A   1       2.140   5.291  19.388  0.00  0.00    +0.000 C 
ATOM      9  O   UNK A   1       1.500   4.783  18.471  0.00  0.00    +0.000 OA
ATOM     10  H   UNK A   1       3.481   6.684  20.122  0.00  0.00    +0.000 HD
BRANCH   8  11
ATOM     11  C   UNK A   1       2.070   4.740  20.826  0.00  0.00    +0.000 C 
BRANCH  11  12
ATOM     12  C   UNK A   1       1.896   3.206  20.894  0.00  0.00    +0.000 C 
BRANCH  12  13
ATOM     13  C   UNK A   1       3.215   2.452  21.156  0.00  0.00    +0.000 C 
BRANCH  13  14
ATOM     14  C   UNK A   1       4.071   2.160  19.902  0.00  0.00    +0.000 C 
BRANCH  14  15
ATOM     15  N   UNK A   1       5.094   3.209  19.696  0.00  0.00    +0.000 NA
ATOM     16  H   UNK A   1       4.631   4.035  19.305  0.00  0.00    +0.000 HD
ATOM     17  H   UNK A   1       5.699   2.908  18.925  0.00  0.00    +0.000 HD
ENDBRANCH  14  15
BRANCH  14  18
ATOM     18  C   UNK A   1       3.234   1.977  18.619  0.00  0.00    +0.000 C 
ATOM     19  O   UNK A   1       3.542   2.439  17.527  0.00  0.00    +0.000 OA
BRANCH  18  20
ATOM     20  O   UNK A   1       2.138   1.203  18.783  0.00  0.00    +0.000 OA
ATOM     21  H   UNK A   1       1.385   1.652  19.209  0.00  0.00    +0.000 HD
ENDBRANCH  18  20
ENDBRANCH  14  18
ENDBRANCH  13  14
ENDBRANCH  12  13
ENDBRANCH  11  12
ENDBRANCH   8  11
ENDBRANCH   6   7
ENDBRANCH   1   6
BRANCH   3  22
ATOM     22  C   UNK A   2       7.028   5.918  17.961  0.00  0.00    +0.000 C 
BRANCH  22  23
ATOM     23  C   UNK A   2       6.948   4.720  16.995  0.00  0.00    +0.000 C 
ATOM     24  O   UNK A   2       7.810   4.438  16.176  0.00  0.00    +0.000 OA
BRANCH  23  25
ATOM     25  O   UNK A   2       5.805   3.997  17.102  0.00  0.00    +0.000 OA
ATOM     26  H   UNK A   2       5.645   3.494  16.279  0.00  0.00    +0.000 HD
ENDBRANCH  23  25
ENDBRANCH  22  23
BRANCH  22  27
ATOM     27  C   UNK A   2       7.760   7.081  17.252  0.00  0.00    +0.000 C 
BRANCH  27  28
ATOM     28  O   UNK A   2       8.057   8.122  18.206  0.00  0.00    +0.000 OA
BRANCH  28  29
ATOM     29  C   UNK A   2       8.039   9.434  17.618  0.00  0.00    +0.000 C 
BRANCH  29  30
ATOM     30  C   UNK A   2       8.829  10.459  18.415  0.00  0.00    +0.000 A 
ATOM     31  C   UNK A   2       9.387  10.180  19.672  0.00  0.00    +0.000 A 
ATOM     32  C   UNK A   2      10.100  11.160  20.378  0.00  0.00    +0.000 A 
ATOM     33  C   UNK A   2      10.271  12.435  19.841  0.00  0.00    +0.000 A 
ATOM     34  C   UNK A   2       9.732  12.727  18.590  0.00  0.00    +0.000 A 
ATOM     35  C   UNK A   2       9.020  11.748  17.884  0.00  0.00    +0.000 A 
ENDBRANCH  29  30
ENDBRANCH  28  29
ENDBRANCH  27  28
ENDBRANCH  22  27
ENDBRANCH   3  22
TORSDOF 16
ENDMDL
MODEL 6
REMARK VINA RESULT:      -6.8      4.956      8.447
REMARK  Name = 
REMARK  16 active torsions:
REMARK  status: ('A' for Active; 'I' for Inactive)
REMARK    1  A    between atoms: C_2  and  N_3
REMARK    2  A    between atoms: C_2  and  C_14
REMARK    3  A    between atoms: C_4  and  C_6
REMARK    4  A    between atoms: C_6  and  C_7
REMARK    5  A    between atoms: C_7  and  C_8
REMARK    6  A    between atoms: C_8  and  C_9
REMARK    7  A    between atoms: C_9  and  N_10
REMARK    8  A    between atoms: C_9  and  C_11
REMARK    9  A    between atoms: C_11  and  O_13
REMARK   10  A    between atoms: N_16  and  C_17
REMARK   11  A    between atoms: C_17  and  C_18
REMARK   12  A    between atoms: C_17  and  C_27
REMARK   13  A    between atoms: C_18  and  O_19
REMARK   14  A    between atoms: O_19  and  C_20
REMARK   15  A    between atoms: C_20  and  C_21
REMARK   16  A    between atoms: C_27  and  O_29
REMARK                            x       y       z     vdW  Elec       q    Type
REMARK                         _______ _______ _______ _____ _____    ______ ____
ROOT
ATOM      1  C   UNK A   1       2.692   7.307  18.972  0.00  0.00    +0.000 C 
ATOM      2  O   UNK A   1       2.681   8.068  18.006  0.00  0.00    +0.000 OA
ATOM      3  N   UNK A   2       3.554   6.235  19.092  0.00  0.00    +0.000 N 
ATOM      4  H   UNK A   2       3.251   5.477  19.694  0.00  0.00    +0.000 HD
ENDROOT
BRANCH   1   6
ATOM      5  C   UNK A   1       1.495   6.494  20.960  0.00  0.00    +0.000 C 
ATOM      6  C   UNK A   1       1.726   7.521  20.128  0.00  0.00    +0.000 C 
BRANCH   6   7
ATOM      7  N   UNK A   1       1.244   8.816  20.292  0.00  0.00    +0.000 N 
ATOM      8  C   UNK A   1       1.268   9.622  21.421  0.00  0.00    +0.000 C 
ATOM      9  O   UNK A   1       1.716   9.308  22.521  0.00  0.00    +0.000 OA
ATOM     10  H   UNK A   1       0.855   9.213  19.437  0.00  0.00    +0.000 HD
BRANCH   8  11
ATOM     11  C   UNK A   1       0.671  11.020  21.161  0.00  0.00    +0.000 C 
BRANCH  11  12
ATOM     12  C   UNK A   1      -0.842  11.000  20.850  0.00  0.00    +0.000 C 
BRANCH  12  13
ATOM     13  C   UNK A   1      -1.179  11.459  19.417  0.00  0.00    +0.000 C 
BRANCH  13  14
ATOM     14  C   UNK A   1      -1.261  10.331  18.363  0.00  0.00    +0.000 C 
BRANCH  14  15
ATOM     15  N   UNK A   1       0.064  10.061  17.763  0.00  0.00    +0.000 NA
ATOM     16  H   UNK A   1       0.362  10.899  17.256  0.00  0.00    +0.000 HD
ATOM     17  H   UNK A   1      -0.068   9.380  17.008  0.00  0.00    +0.000 HD
ENDBRANCH  14  15
BRANCH  14  18
ATOM     18  C   UNK A   1      -2.299  10.604  17.255  0.00  0.00    +0.000 C 
ATOM     19  O   UNK A   1      -2.975  11.623  17.183  0.00  0.00    +0.000 OA
BRANCH  18  20
ATOM     20  O   UNK A   1      -2.368   9.634  16.315  0.00  0.00    +0.000 OA
ATOM     21  H   UNK A   1      -2.243   8.730  16.657  0.00  0.00    +0.000 HD
ENDBRANCH  18  20
ENDBRANCH  14  18
ENDBRANCH  13  14
ENDBRANCH  12  13
ENDBRANCH  11  12
ENDBRANCH   8  11
ENDBRANCH   6   7
ENDBRANCH   1   6
BRANCH   3  22
ATOM     22  C   UNK A   2       4.516   5.861  18.025  0.00  0.00    +0.000 C 
BRANCH  22  23
ATOM     23  C   UNK A   2       5.850   5.383  18.630  0.00  0.00    +0.000 C 
ATOM     24  O   UNK A   2       6.012   5.111  19.811  0.00  0.00    +0.000 OA
BRANCH  23  25
ATOM     25  O   UNK A   2       6.869   5.310  17.738  0.00  0.00    +0.000 OA
ATOM     26  H   UNK A   2       7.702   5.079  18.195  0.00  0.00    +0.000 HD
ENDBRANCH  23  25
ENDBRANCH  22  23
BRANCH  22  27
ATOM     27  C   UNK A   2       3.948   4.740  17.123  0.00  0.00    +0.000 C 
BRANCH  27  28
ATOM     28  O   UNK A   2       4.593   3.489  17.438  0.00  0.00    +0.000 OA
BRANCH  28  29
ATOM     29  C   UNK A   2       3.655   2.420  17.648  0.00  0.00    +0.000 C 
BRANCH  29  30
ATOM     30  C   UNK A   2       2.813   2.598  18.901  0.00  0.00    +0.000 A 
ATOM     31  C   UNK A   2       1.423   2.783  18.864  0.00  0.00    +0.000 A 
ATOM     32  C   UNK A   2       0.687   2.954  20.045  0.00  0.00    +0.000 A 
ATOM     33  C   UNK A   2       1.325   2.941  21.284  0.00  0.00    +0.000 A 
ATOM     34  C   UNK A   2       2.703   2.748  21.341  0.00  0.00    +0.000 A 
ATOM     35  C   UNK A   2       3.440   2.577  20.160  0.00  0.00    +0.000 A 
ENDBRANCH  29  30
ENDBRANCH  28  29
ENDBRANCH  27  28
ENDBRANCH  22  27
ENDBRANCH   3  22
TORSDOF 16
ENDMDL
MODEL 7
REMARK VINA RESULT:      -6.7      5.889      8.166
REMARK  Name = 
REMARK  16 active torsions:
REMARK  status: ('A' for Active; 'I' for Inactive)
REMARK    1  A    between atoms: C_2  and  N_3
REMARK    2  A    between atoms: C_2  and  C_14
REMARK    3  A    between atoms: C_4  and  C_6
REMARK    4  A    between atoms: C_6  and  C_7
REMARK    5  A    between atoms: C_7  and  C_8
REMARK    6  A    between atoms: C_8  and  C_9
REMARK    7  A    between atoms: C_9  and  N_10
REMARK    8  A    between atoms: C_9  and  C_11
REMARK    9  A    between atoms: C_11  and  O_13
REMARK   10  A    between atoms: N_16  and  C_17
REMARK   11  A    between atoms: C_17  and  C_18
REMARK   12  A    between atoms: C_17  and  C_27
REMARK   13  A    between atoms: C_18  and  O_19
REMARK   14  A    between atoms: O_19  and  C_20
REMARK   15  A    between atoms: C_20  and  C_21
REMARK   16  A    between atoms: C_27  and  O_29
REMARK                            x       y       z     vdW  Elec       q    Type
REMARK                         _______ _______ _______ _____ _____    ______ ____
ROOT
ATOM      1  C   UNK A   1       1.795   7.564  20.348  0.00  0.00    +0.000 C 
ATOM      2  O   UNK A   1       2.494   7.772  19.357  0.00  0.00    +0.000 OA
ATOM      3  N   UNK A   2       1.602   6.314  20.901  0.00  0.00    +0.000 N 
ATOM      4  H   UNK A   2       0.754   6.185  21.442  0.00  0.00    +0.000 HD
ENDROOT
BRANCH   1   6
ATOM      5  C   UNK A   1       1.509   9.074  22.267  0.00  0.00    +0.000 C 
ATOM      6  C   UNK A   1       1.089   8.719  21.043  0.00  0.00    +0.000 C 
BRANCH   6   7
ATOM      7  N   UNK A   1       0.128   9.390  20.294  0.00  0.00    +0.000 N 
ATOM      8  C   UNK A   1      -0.044  10.755  20.113  0.00  0.00    +0.000 C 
ATOM      9  O   UNK A   1       0.637  11.641  20.624  0.00  0.00    +0.000 OA
ATOM     10  H   UNK A   1      -0.502   8.765  19.792  0.00  0.00    +0.000 HD
BRANCH   8  11
ATOM     11  C   UNK A   1      -1.207  11.081  19.155  0.00  0.00    +0.000 C 
BRANCH  11  12
ATOM     12  C   UNK A   1      -1.348  10.080  17.987  0.00  0.00    +0.000 C 
BRANCH  12  13
ATOM     13  C   UNK A   1      -2.812   9.733  17.651  0.00  0.00    +0.000 C 
BRANCH  13  14
ATOM     14  C   UNK A   1      -3.510  10.696  16.664  0.00  0.00    +0.000 C 
BRANCH  14  15
ATOM     15  N   UNK A   1      -2.525  11.542  15.954  0.00  0.00    +0.000 NA
ATOM     16  H   UNK A   1      -1.929  11.994  16.654  0.00  0.00    +0.000 HD
ATOM     17  H   UNK A   1      -3.031  12.336  15.547  0.00  0.00    +0.000 HD
ENDBRANCH  14  15
BRANCH  14  18
ATOM     18  C   UNK A   1      -4.587  11.579  17.328  0.00  0.00    +0.000 C 
ATOM     19  O   UNK A   1      -5.319  12.345  16.714  0.00  0.00    +0.000 OA
BRANCH  18  20
ATOM     20  O   UNK A   1      -4.701  11.397  18.662  0.00  0.00    +0.000 OA
ATOM     21  H   UNK A   1      -5.188  10.594  18.921  0.00  0.00    +0.000 HD
ENDBRANCH  18  20
ENDBRANCH  14  18
ENDBRANCH  13  14
ENDBRANCH  12  13
ENDBRANCH  11  12
ENDBRANCH   8  11
ENDBRANCH   6   7
ENDBRANCH   1   6
BRANCH   3  22
ATOM     22  C   UNK A   2       2.178   5.081  20.306  0.00  0.00    +0.000 C 
BRANCH  22  23
ATOM     23  C   UNK A   2       1.670   3.827  21.043  0.00  0.00    +0.000 C 
ATOM     24  O   UNK A   2       2.174   3.376  22.061  0.00  0.00    +0.000 OA
BRANCH  23  25
ATOM     25  O   UNK A   2       0.610   3.225  20.447  0.00  0.00    +0.000 OA
ATOM     26  H   UNK A   2      -0.060   3.892  20.196  0.00  0.00    +0.000 HD
ENDBRANCH  23  25
ENDBRANCH  22  23
BRANCH  22  27
ATOM     27  C   UNK A   2       1.817   4.958  18.807  0.00  0.00    +0.000 C 
BRANCH  27  28
ATOM     28  O   UNK A   2       3.024   4.907  18.020  0.00  0.00    +0.000 OA
BRANCH  28  29
ATOM     29  C   UNK A   2       4.188   4.600  18.807  0.00  0.00    +0.000 C 
BRANCH  29  30
ATOM     30  C   UNK A   2       5.390   5.462  18.462  0.00  0.00    +0.000 A 
ATOM     31  C   UNK A   2       5.379   6.404  17.422  0.00  0.00    +0.000 A 
ATOM     32  C   UNK A   2       6.515   7.172  17.131  0.00  0.00    +0.000 A 
ATOM     33  C   UNK A   2       7.684   7.014  17.874  0.00  0.00    +0.000 A 
ATOM     34  C   UNK A   2       7.712   6.090  18.916  0.00  0.00    +0.000 A 
ATOM     35  C   UNK A   2       6.575   5.323  19.208  0.00  0.00    +0.000 A 
ENDBRANCH  29  30
ENDBRANCH  28  29
ENDBRANCH  27  28
ENDBRANCH  22  27
ENDBRANCH   3  22
TORSDOF 16
ENDMDL
MODEL 8
REMARK VINA RESULT:      -6.7      4.965      8.393
REMARK  Name = 
REMARK  16 active torsions:
REMARK  status: ('A' for Active; 'I' for Inactive)
REMARK    1  A    between atoms: C_2  and  N_3
REMARK    2  A    between atoms: C_2  and  C_14
REMARK    3  A    between atoms: C_4  and  C_6
REMARK    4  A    between atoms: C_6  and  C_7
REMARK    5  A    between atoms: C_7  and  C_8
REMARK    6  A    between atoms: C_8  and  C_9
REMARK    7  A    between atoms: C_9  and  N_10
REMARK    8  A    between atoms: C_9  and  C_11
REMARK    9  A    between atoms: C_11  and  O_13
REMARK   10  A    between atoms: N_16  and  C_17
REMARK   11  A    between atoms: C_17  and  C_18
REMARK   12  A    between atoms: C_17  and  C_27
REMARK   13  A    between atoms: C_18  and  O_19
REMARK   14  A    between atoms: O_19  and  C_20
REMARK   15  A    between atoms: C_20  and  C_21
REMARK   16  A    between atoms: C_27  and  O_29
REMARK                            x       y       z     vdW  Elec       q    Type
REMARK                         _______ _______ _______ _____ _____    ______ ____
ROOT
ATOM      1  C   UNK A   1       3.184   7.183  18.386  0.00  0.00    +0.000 C 
ATOM      2  O   UNK A   1       3.354   8.176  17.680  0.00  0.00    +0.000 OA
ATOM      3  N   UNK A   2       3.861   5.993  18.211  0.00  0.00    +0.000 N 
ATOM      4  H   UNK A   2       3.407   5.158  18.564  0.00  0.00    +0.000 HD
ENDROOT
BRANCH   1   6
ATOM      5  C   UNK A   1       2.085   6.142  20.324  0.00  0.00    +0.000 C 
ATOM      6  C   UNK A   1       2.186   7.222  19.535  0.00  0.00    +0.000 C 
BRANCH   6   7
ATOM      7  N   UNK A   1       1.534   8.434  19.739  0.00  0.00    +0.000 N 
ATOM      8  C   UNK A   1       1.215   9.066  20.933  0.00  0.00    +0.000 C 
ATOM      9  O   UNK A   1       1.443   8.633  22.060  0.00  0.00    +0.000 OA
ATOM     10  H   UNK A   1       1.300   8.918  18.873  0.00  0.00    +0.000 HD
BRANCH   8  11
ATOM     11  C   UNK A   1       0.533  10.431  20.714  0.00  0.00    +0.000 C 
BRANCH  11  12
ATOM     12  C   UNK A   1       0.187  10.721  19.237  0.00  0.00    +0.000 C 
BRANCH  12  13
ATOM     13  C   UNK A   1      -1.300  10.492  18.901  0.00  0.00    +0.000 C 
BRANCH  13  14
ATOM     14  C   UNK A   1      -1.673  10.647  17.409  0.00  0.00    +0.000 C 
BRANCH  14  15
ATOM     15  N   UNK A   1      -1.758  12.073  17.024  0.00  0.00    +0.000 NA
ATOM     16  H   UNK A   1      -2.660  12.437  17.343  0.00  0.00    +0.000 HD
ATOM     17  H   UNK A   1      -1.850  12.117  16.003  0.00  0.00    +0.000 HD
ENDBRANCH  14  15
BRANCH  14  18
ATOM     18  C   UNK A   1      -2.976   9.915  17.023  0.00  0.00    +0.000 C 
ATOM     19  O   UNK A   1      -3.861   9.627  17.818  0.00  0.00    +0.000 OA
BRANCH  18  20
ATOM     20  O   UNK A   1      -3.092   9.661  15.701  0.00  0.00    +0.000 OA
ATOM     21  H   UNK A   1      -3.083   8.714  15.468  0.00  0.00    +0.000 HD
ENDBRANCH  18  20
ENDBRANCH  14  18
ENDBRANCH  13  14
ENDBRANCH  12  13
ENDBRANCH  11  12
ENDBRANCH   8  11
ENDBRANCH   6   7
ENDBRANCH   1   6
BRANCH   3  22
ATOM     22  C   UNK A   2       4.825   5.779  17.102  0.00  0.00    +0.000 C 
BRANCH  22  23
ATOM     23  C   UNK A   2       6.207   6.362  17.454  0.00  0.00    +0.000 C 
ATOM     24  O   UNK A   2       6.964   5.883  18.286  0.00  0.00    +0.000 OA
BRANCH  23  25
ATOM     25  O   UNK A   2       6.521   7.494  16.776  0.00  0.00    +0.000 OA
ATOM     26  H   UNK A   2       5.823   7.702  16.124  0.00  0.00    +0.000 HD
ENDBRANCH  23  25
ENDBRANCH  22  23
BRANCH  22  27
ATOM     27  C   UNK A   2       4.986   4.276  16.778  0.00  0.00    +0.000 C 
BRANCH  27  28
ATOM     28  O   UNK A   2       3.708   3.616  16.884  0.00  0.00    +0.000 OA
BRANCH  28  29
ATOM     29  C   UNK A   2       3.754   2.452  17.728  0.00  0.00    +0.000 C 
BRANCH  29  30
ATOM     30  C   UNK A   2       2.864   2.566  18.955  0.00  0.00    +0.000 A 
ATOM     31  C   UNK A   2       1.468   2.680  18.875  0.00  0.00    +0.000 A 
ATOM     32  C   UNK A   2       0.686   2.793  20.034  0.00  0.00    +0.000 A 
ATOM     33  C   UNK A   2       1.284   2.792  21.293  0.00  0.00    +0.000 A 
ATOM     34  C   UNK A   2       2.668   2.671  21.392  0.00  0.00    +0.000 A 
ATOM     35  C   UNK A   2       3.450   2.557  20.234  0.00  0.00    +0.000 A 
ENDBRANCH  29  30
ENDBRANCH  28  29
ENDBRANCH  27  28
ENDBRANCH  22  27
ENDBRANCH   3  22
TORSDOF 16
ENDMDL
MODEL 9
REMARK VINA RESULT:      -6.7      1.173      1.480
REMARK  Name = 
REMARK  16 active torsions:
REMARK  status: ('A' for Active; 'I' for Inactive)
REMARK    1  A    between atoms: C_2  and  N_3
REMARK    2  A    between atoms: C_2  and  C_14
REMARK    3  A    between atoms: C_4  and  C_6
REMARK    4  A    between atoms: C_6  and  C_7
REMARK    5  A    between atoms: C_7  and  C_8
REMARK    6  A    between atoms: C_8  and  C_9
REMARK    7  A    between atoms: C_9  and  N_10
REMARK    8  A    between atoms: C_9  and  C_11
REMARK    9  A    between atoms: C_11  and  O_13
REMARK   10  A    between atoms: N_16  and  C_17
REMARK   11  A    between atoms: C_17  and  C_18
REMARK   12  A    between atoms: C_17  and  C_27
REMARK   13  A    between atoms: C_18  and  O_19
REMARK   14  A    between atoms: O_19  and  C_20
REMARK   15  A    between atoms: C_20  and  C_21
REMARK   16  A    between atoms: C_27  and  O_29
REMARK                            x       y       z     vdW  Elec       q    Type
REMARK                         _______ _______ _______ _____ _____    ______ ____
ROOT
ATOM      1  C   UNK A   1       6.399   5.098  16.433  0.00  0.00    +0.000 C 
ATOM      2  O   UNK A   1       7.601   4.844  16.379  0.00  0.00    +0.000 OA
ATOM      3  N   UNK A   2       5.857   6.066  17.255  0.00  0.00    +0.000 N 
ATOM      4  H   UNK A   2       4.883   5.948  17.511  0.00  0.00    +0.000 HD
ENDROOT
BRANCH   1   6
ATOM      5  C   UNK A   1       5.891   3.686  14.485  0.00  0.00    +0.000 C 
ATOM      6  C   UNK A   1       5.414   4.334  15.559  0.00  0.00    +0.000 C 
BRANCH   6   7
ATOM      7  N   UNK A   1       4.103   4.280  16.017  0.00  0.00    +0.000 N 
ATOM      8  C   UNK A   1       3.586   3.606  17.115  0.00  0.00    +0.000 C 
ATOM      9  O   UNK A   1       4.222   2.894  17.888  0.00  0.00    +0.000 OA
ATOM     10  H   UNK A   1       3.460   4.853  15.471  0.00  0.00    +0.000 HD
BRANCH   8  11
ATOM     11  C   UNK A   1       2.076   3.854  17.303  0.00  0.00    +0.000 C 
BRANCH  11  12
ATOM     12  C   UNK A   1       1.471   3.112  18.514  0.00  0.00    +0.000 C 
BRANCH  12  13
ATOM     13  C   UNK A   1       0.996   4.057  19.637  0.00  0.00    +0.000 C 
BRANCH  13  14
ATOM     14  C   UNK A   1       1.990   4.248  20.805  0.00  0.00    +0.000 C 
BRANCH  14  15
ATOM     15  N   UNK A   1       3.110   5.133  20.416  0.00  0.00    +0.000 NA
ATOM     16  H   UNK A   1       2.732   5.896  19.847  0.00  0.00    +0.000 HD
ATOM     17  H   UNK A   1       3.692   4.623  19.744  0.00  0.00    +0.000 HD
ENDBRANCH  14  15
BRANCH  14  18
ATOM     18  C   UNK A   1       2.535   2.920  21.369  0.00  0.00    +0.000 C 
ATOM     19  O   UNK A   1       1.960   2.247  22.216  0.00  0.00    +0.000 OA
BRANCH  18  20
ATOM     20  O   UNK A   1       3.695   2.518  20.804  0.00  0.00    +0.000 OA
ATOM     21  H   UNK A   1       3.995   1.633  21.081  0.00  0.00    +0.000 HD
ENDBRANCH  18  20
ENDBRANCH  14  18
ENDBRANCH  13  14
ENDBRANCH  12  13
ENDBRANCH  11  12
ENDBRANCH   8  11
ENDBRANCH   6   7
ENDBRANCH   1   6
BRANCH   3  22
ATOM     22  C   UNK A   2       6.679   6.857  18.206  0.00  0.00    +0.000 C 
BRANCH  22  23
ATOM     23  C   UNK A   2       7.296   5.948  19.286  0.00  0.00    +0.000 C 
ATOM     24  O   UNK A   2       6.689   5.062  19.870  0.00  0.00    +0.000 OA
BRANCH  23  25
ATOM     25  O   UNK A   2       8.593   6.227  19.571  0.00  0.00    +0.000 OA
ATOM     26  H   UNK A   2       8.915   6.954  19.001  0.00  0.00    +0.000 HD
ENDBRANCH  23  25
ENDBRANCH  22  23
BRANCH  22  27
ATOM     27  C   UNK A   2       7.817   7.608  17.477  0.00  0.00    +0.000 C 
BRANCH  27  28
ATOM     28  O   UNK A   2       7.879   8.970  17.946  0.00  0.00    +0.000 OA
BRANCH  28  29
ATOM     29  C   UNK A   2       8.963   9.191  18.865  0.00  0.00    +0.000 C 
BRANCH  29  30
ATOM     30  C   UNK A   2       9.246  10.663  19.115  0.00  0.00    +0.000 A 
ATOM     31  C   UNK A   2       9.519  11.180  20.391  0.00  0.00    +0.000 A 
ATOM     32  C   UNK A   2       9.765  12.548  20.577  0.00  0.00    +0.000 A 
ATOM     33  C   UNK A   2       9.744  13.425  19.493  0.00  0.00    +0.000 A 
ATOM     34  C   UNK A   2       9.484  12.928  18.218  0.00  0.00    +0.000 A 
ATOM     35  C   UNK A   2       9.239  11.560  18.031  0.00  0.00    +0.000 A 
ENDBRANCH  29  30
ENDBRANCH  28  29
ENDBRANCH  27  28
ENDBRANCH  22  27
ENDBRANCH   3  22
TORSDOF 16
ENDMDL
