MODEL 1
REMARK VINA RESULT:      -6.5      0.000      0.000
REMARK  Name = 
REMARK  5 active torsions:
REMARK  status: ('A' for Active; 'I' for Inactive)
REMARK    1  A    between atoms: C_1  and  C_2
REMARK    2  A    between atoms: C_5  and  C_6
REMARK    3  A    between atoms: C_6  and  N_7
REMARK    4  A    between atoms: C_6  and  C_8
REMARK    5  A    between atoms: C_8  and  N_9
REMARK                            x       y       z     vdW  Elec       q    Type
REMARK                         _______ _______ _______ _____ _____    ______ ____
ROOT
ATOM      1  C   UNL     1       3.116   6.273  17.540  0.00  0.00    +0.000 C 
ENDROOT
BRANCH   1   6
ATOM      2  C   UNL     1       1.141   2.633  21.667  0.00  0.00    +0.000 C 
ATOM      3  C   UNL     1       1.622   3.583  20.611  0.00  0.00    +0.000 A 
ATOM      4  C   UNL     1       1.300   3.392  19.266  0.00  0.00    +0.000 A 
ATOM      5  C   UNL     1       1.781   4.269  18.290  0.00  0.00    +0.000 A 
ATOM      6  C   UNL     1       2.605   5.355  18.636  0.00  0.00    +0.000 A 
ATOM      7  C   UNL     1       2.901   5.552  19.991  0.00  0.00    +0.000 A 
ATOM      8  C   UNL     1       2.423   4.670  20.964  0.00  0.00    +0.000 A 
ENDBRANCH   1   6
BRANCH   1   9
ATOM      9  N   UNL     1       3.031   7.679  17.974  0.00  0.00    +0.000 NA
ATOM     10  H   UNL     1       3.174   7.719  18.979  0.00  0.00    +0.000 HD
ATOM     11  H   UNL     1       2.076   8.003  17.819  0.00  0.00    +0.000 HD
ENDBRANCH   1   9
BRANCH   1  12
ATOM     12  C   UNL     1       4.559   5.969  17.021  0.00  0.00    +0.000 C 
BRANCH  12  13
ATOM     13  N   UNL     1       5.038   4.575  17.197  0.00  0.00    +0.000 NA
ATOM     14  C   UNL     1       6.111   4.507  18.215  0.00  0.00    +0.000 C 
ATOM     15  C   UNL     1       7.435   5.139  17.752  0.00  0.00    +0.000 C 
ATOM     16  O   UNL     1       7.902   4.535  16.538  0.00  0.00    +0.000 OA
ATOM     17  C   UNL     1       6.912   4.612  15.503  0.00  0.00    +0.000 C 
ATOM     18  C   UNL     1       5.577   3.990  15.949  0.00  0.00    +0.000 C 
ENDBRANCH  12  13
ENDBRANCH   1  12
TORSDOF 4
ENDMDL
MODEL 2
REMARK VINA RESULT:      -6.4      0.106      1.207
REMARK  Name = 
REMARK  5 active torsions:
REMARK  status: ('A' for Active; 'I' for Inactive)
REMARK    1  A    between atoms: C_1  and  C_2
REMARK    2  A    between atoms: C_5  and  C_6
REMARK    3  A    between atoms: C_6  and  N_7
REMARK    4  A    between atoms: C_6  and  C_8
REMARK    5  A    between atoms: C_8  and  N_9
REMARK                            x       y       z     vdW  Elec       q    Type
REMARK                         _______ _______ _______ _____ _____    ______ ____
ROOT
ATOM      1  C   UNL     1       3.104   6.229  17.602  0.00  0.00    +0.000 C 
ENDROOT
BRANCH   1   6
ATOM      2  C   UNL     1       1.134   2.594  21.737  0.00  0.00    +0.000 C 
ATOM      3  C   UNL     1       1.664   3.509  20.674  0.00  0.00    +0.000 A 
ATOM      4  C   UNL     1       2.481   4.595  20.996  0.00  0.00    +0.000 A 
ATOM      5  C   UNL     1       2.942   5.457  19.998  0.00  0.00    +0.000 A 
ATOM      6  C   UNL     1       2.591   5.258  18.651  0.00  0.00    +0.000 A 
ATOM      7  C   UNL     1       1.792   4.151  18.335  0.00  0.00    +0.000 A 
ATOM      8  C   UNL     1       1.328   3.294  19.336  0.00  0.00    +0.000 A 
ENDBRANCH   1   6
BRANCH   1   9
ATOM      9  N   UNL     1       2.999   7.613  18.096  0.00  0.00    +0.000 NA
ATOM     10  H   UNL     1       3.128   8.249  17.314  0.00  0.00    +0.000 HD
ATOM     11  H   UNL     1       3.783   7.787  18.725  0.00  0.00    +0.000 HD
ENDBRANCH   1   9
BRANCH   1  12
ATOM     12  C   UNL     1       4.556   5.962  17.087  0.00  0.00    +0.000 C 
BRANCH  12  13
ATOM     13  N   UNL     1       5.020   4.553  17.137  0.00  0.00    +0.000 NA
ATOM     14  C   UNL     1       6.082   4.379  18.154  0.00  0.00    +0.000 C 
ATOM     15  C   UNL     1       7.417   5.038  17.764  0.00  0.00    +0.000 C 
ATOM     16  O   UNL     1       7.891   4.546  16.503  0.00  0.00    +0.000 OA
ATOM     17  C   UNL     1       6.912   4.729  15.471  0.00  0.00    +0.000 C 
ATOM     18  C   UNL     1       5.567   4.081  15.845  0.00  0.00    +0.000 C 
ENDBRANCH  12  13
ENDBRANCH   1  12
TORSDOF 4
ENDMDL
MODEL 3
REMARK VINA RESULT:      -6.3      2.754      5.962
REMARK  Name = 
REMARK  5 active torsions:
REMARK  status: ('A' for Active; 'I' for Inactive)
REMARK    1  A    between atoms: C_1  and  C_2
REMARK    2  A    between atoms: C_5  and  C_6
REMARK    3  A    between atoms: C_6  and  N_7
REMARK    4  A    between atoms: C_6  and  C_8
REMARK    5  A    between atoms: C_8  and  N_9
REMARK                            x       y       z     vdW  Elec       q    Type
REMARK                         _______ _______ _______ _____ _____    ______ ____
ROOT
ATOM      1  C   UNL     1       5.490   4.260  18.973  0.00  0.00    +0.000 C 
ENDROOT
BRANCH   1   6
ATOM      2  C   UNL     1       6.642   4.468  13.244  0.00  0.00    +0.000 C 
ATOM      3  C   UNL     1       6.353   4.385  14.713  0.00  0.00    +0.000 A 
ATOM      4  C   UNL     1       5.082   4.048  15.182  0.00  0.00    +0.000 A 
ATOM      5  C   UNL     1       4.821   4.004  16.554  0.00  0.00    +0.000 A 
ATOM      6  C   UNL     1       5.824   4.307  17.492  0.00  0.00    +0.000 A 
ATOM      7  C   UNL     1       7.103   4.619  17.012  0.00  0.00    +0.000 A 
ATOM      8  C   UNL     1       7.359   4.667  15.639  0.00  0.00    +0.000 A 
ENDBRANCH   1   6
BRANCH   1   9
ATOM      9  N   UNL     1       6.234   5.308  19.694  0.00  0.00    +0.000 NA
ATOM     10  H   UNL     1       6.060   6.201  19.243  0.00  0.00    +0.000 HD
ATOM     11  H   UNL     1       7.231   5.129  19.576  0.00  0.00    +0.000 HD
ENDBRANCH   1   9
BRANCH   1  12
ATOM     12  C   UNL     1       3.970   4.355  19.327  0.00  0.00    +0.000 C 
BRANCH  12  13
ATOM     13  N   UNL     1       3.416   3.244  20.140  0.00  0.00    +0.000 NA
ATOM     14  C   UNL     1       2.875   2.171  19.274  0.00  0.00    +0.000 C 
ATOM     15  C   UNL     1       1.585   2.571  18.538  0.00  0.00    +0.000 C 
ATOM     16  O   UNL     1       0.568   2.986  19.461  0.00  0.00    +0.000 OA
ATOM     17  C   UNL     1       1.029   4.055  20.298  0.00  0.00    +0.000 C 
ATOM     18  C   UNL     1       2.323   3.677  21.039  0.00  0.00    +0.000 C 
ENDBRANCH  12  13
ENDBRANCH   1  12
TORSDOF 4
ENDMDL
MODEL 4
REMARK VINA RESULT:      -6.3      1.800      2.634
REMARK  Name = 
REMARK  5 active torsions:
REMARK  status: ('A' for Active; 'I' for Inactive)
REMARK    1  A    between atoms: C_1  and  C_2
REMARK    2  A    between atoms: C_5  and  C_6
REMARK    3  A    between atoms: C_6  and  N_7
REMARK    4  A    between atoms: C_6  and  C_8
REMARK    5  A    between atoms: C_8  and  N_9
REMARK                            x       y       z     vdW  Elec       q    Type
REMARK                         _______ _______ _______ _____ _____    ______ ____
ROOT
ATOM      1  C   UNL     1       3.304   3.942  17.712  0.00  0.00    +0.000 C 
ENDROOT
BRANCH   1   6
ATOM      2  C   UNL     1       1.293   8.294  21.058  0.00  0.00    +0.000 C 
ATOM      3  C   UNL     1       1.836   7.181  20.213  0.00  0.00    +0.000 A 
ATOM      4  C   UNL     1       2.442   7.438  18.981  0.00  0.00    +0.000 A 
ATOM      5  C   UNL     1       2.916   6.387  18.191  0.00  0.00    +0.000 A 
ATOM      6  C   UNL     1       2.787   5.052  18.610  0.00  0.00    +0.000 A 
ATOM      7  C   UNL     1       2.200   4.806  19.859  0.00  0.00    +0.000 A 
ATOM      8  C   UNL     1       1.722   5.858  20.644  0.00  0.00    +0.000 A 
ENDBRANCH   1   6
BRANCH   1   9
ATOM      9  N   UNL     1       2.176   3.189  17.134  0.00  0.00    +0.000 NA
ATOM     10  H   UNL     1       2.316   3.112  16.130  0.00  0.00    +0.000 HD
ATOM     11  H   UNL     1       1.329   3.744  17.252  0.00  0.00    +0.000 HD
ENDBRANCH   1   9
BRANCH   1  12
ATOM     12  C   UNL     1       4.275   4.391  16.572  0.00  0.00    +0.000 C 
BRANCH  12  13
ATOM     13  N   UNL     1       5.637   3.802  16.602  0.00  0.00    +0.000 NA
ATOM     14  C   UNL     1       6.549   4.614  17.440  0.00  0.00    +0.000 C 
ATOM     15  C   UNL     1       6.909   5.972  16.813  0.00  0.00    +0.000 C 
ATOM     16  O   UNL     1       7.491   5.806  15.513  0.00  0.00    +0.000 OA
ATOM     17  C   UNL     1       6.627   5.058  14.646  0.00  0.00    +0.000 C 
ATOM     18  C   UNL     1       6.250   3.698  15.259  0.00  0.00    +0.000 C 
ENDBRANCH  12  13
ENDBRANCH   1  12
TORSDOF 4
ENDMDL
MODEL 5
REMARK VINA RESULT:      -6.3      2.533      5.826
REMARK  Name = 
REMARK  5 active torsions:
REMARK  status: ('A' for Active; 'I' for Inactive)
REMARK    1  A    between atoms: C_1  and  C_2
REMARK    2  A    between atoms: C_5  and  C_6
REMARK    3  A    between atoms: C_6  and  N_7
REMARK    4  A    between atoms: C_6  and  C_8
REMARK    5  A    between atoms: C_8  and  N_9
REMARK                            x       y       z     vdW  Elec       q    Type
REMARK                         _______ _______ _______ _____ _____    ______ ____
ROOT
ATOM      1  C   UNL     1       5.421   4.418  18.913  0.00  0.00    +0.000 C 
ENDROOT
BRANCH   1   6
ATOM      2  C   UNL     1       6.886   4.504  13.253  0.00  0.00    +0.000 C 
ATOM      3  C   UNL     1       6.506   4.512  14.703  0.00  0.00    +0.000 A 
ATOM      4  C   UNL     1       7.460   4.728  15.700  0.00  0.00    +0.000 A 
ATOM      5  C   UNL     1       7.096   4.703  17.048  0.00  0.00    +0.000 A 
ATOM      6  C   UNL     1       5.768   4.450  17.434  0.00  0.00    +0.000 A 
ATOM      7  C   UNL     1       4.813   4.260  16.427  0.00  0.00    +0.000 A 
ATOM      8  C   UNL     1       5.181   4.281  15.079  0.00  0.00    +0.000 A 
ENDBRANCH   1   6
BRANCH   1   9
ATOM      9  N   UNL     1       6.361   5.260  19.674  0.00  0.00    +0.000 NA
ATOM     10  H   UNL     1       5.889   5.605  20.505  0.00  0.00    +0.000 HD
ATOM     11  H   UNL     1       6.573   6.086  19.114  0.00  0.00    +0.000 HD
ENDBRANCH   1   9
BRANCH   1  12
ATOM     12  C   UNL     1       3.951   4.813  19.272  0.00  0.00    +0.000 C 
BRANCH  12  13
ATOM     13  N   UNL     1       3.240   3.907  20.208  0.00  0.00    +0.000 NA
ATOM     14  C   UNL     1       3.589   2.492  19.946  0.00  0.00    +0.000 C 
ATOM     15  C   UNL     1       3.005   1.951  18.629  0.00  0.00    +0.000 C 
ATOM     16  O   UNL     1       1.578   2.096  18.595  0.00  0.00    +0.000 OA
ATOM     17  C   UNL     1       1.188   3.460  18.804  0.00  0.00    +0.000 C 
ATOM     18  C   UNL     1       1.768   4.022  20.114  0.00  0.00    +0.000 C 
ENDBRANCH  12  13
ENDBRANCH   1  12
TORSDOF 4
ENDMDL
MODEL 6
REMARK VINA RESULT:      -6.3      2.768      6.097
REMARK  Name = 
REMARK  5 active torsions:
REMARK  status: ('A' for Active; 'I' for Inactive)
REMARK    1  A    between atoms: C_1  and  C_2
REMARK    2  A    between atoms: C_5  and  C_6
REMARK    3  A    between atoms: C_6  and  N_7
REMARK    4  A    between atoms: C_6  and  C_8
REMARK    5  A    between atoms: C_8  and  N_9
REMARK                            x       y       z     vdW  Elec       q    Type
REMARK                         _______ _______ _______ _____ _____    ______ ____
ROOT
ATOM      1  C   UNL     1       5.438   4.258  18.936  0.00  0.00    +0.000 C 
ENDROOT
BRANCH   1   6
ATOM      2  C   UNL     1       6.816   4.498  13.259  0.00  0.00    +0.000 C 
ATOM      3  C   UNL     1       6.457   4.466  14.714  0.00  0.00    +0.000 A 
ATOM      4  C   UNL     1       7.414   4.714  15.701  0.00  0.00    +0.000 A 
ATOM      5  C   UNL     1       7.071   4.651  17.054  0.00  0.00    +0.000 A 
ATOM      6  C   UNL     1       5.762   4.329  17.454  0.00  0.00    +0.000 A 
ATOM      7  C   UNL     1       4.803   4.106  16.456  0.00  0.00    +0.000 A 
ATOM      8  C   UNL     1       5.151   4.165  15.104  0.00  0.00    +0.000 A 
ENDBRANCH   1   6
BRANCH   1   9
ATOM      9  N   UNL     1       6.019   5.415  19.639  0.00  0.00    +0.000 NA
ATOM     10  H   UNL     1       5.265   6.031  19.931  0.00  0.00    +0.000 HD
ATOM     11  H   UNL     1       6.569   5.952  18.968  0.00  0.00    +0.000 HD
ENDBRANCH   1   9
BRANCH   1  12
ATOM     12  C   UNL     1       3.921   4.133  19.292  0.00  0.00    +0.000 C 
BRANCH  12  13
ATOM     13  N   UNL     1       3.480   2.821  19.830  0.00  0.00    +0.000 NA
ATOM     14  C   UNL     1       2.714   2.061  18.817  0.00  0.00    +0.000 C 
ATOM     15  C   UNL     1       1.326   2.657  18.524  0.00  0.00    +0.000 C 
ATOM     16  O   UNL     1       0.543   2.763  19.721  0.00  0.00    +0.000 OA
ATOM     17  C   UNL     1       1.225   3.528  20.724  0.00  0.00    +0.000 C 
ATOM     18  C   UNL     1       2.619   2.950  21.027  0.00  0.00    +0.000 C 
ENDBRANCH  12  13
ENDBRANCH   1  12
TORSDOF 4
ENDMDL
MODEL 7
REMARK VINA RESULT:      -6.2      2.701      5.817
REMARK  Name = 
REMARK  5 active torsions:
REMARK  status: ('A' for Active; 'I' for Inactive)
REMARK    1  A    between atoms: C_1  and  C_2
REMARK    2  A    between atoms: C_5  and  C_6
REMARK    3  A    between atoms: C_6  and  N_7
REMARK    4  A    between atoms: C_6  and  C_8
REMARK    5  A    between atoms: C_8  and  N_9
REMARK                            x       y       z     vdW  Elec       q    Type
REMARK                         _______ _______ _______ _____ _____    ______ ____
ROOT
ATOM      1  C   UNL     1       4.615   4.140  18.865  0.00  0.00    +0.000 C 
ENDROOT
BRANCH   1   6
ATOM      2  C   UNL     1       8.273   8.494  17.507  0.00  0.00    +0.000 C 
ATOM      3  C   UNL     1       7.346   7.362  17.832  0.00  0.00    +0.000 A 
ATOM      4  C   UNL     1       6.085   7.265  17.238  0.00  0.00    +0.000 A 
ATOM      5  C   UNL     1       5.221   6.220  17.574  0.00  0.00    +0.000 A 
ATOM      6  C   UNL     1       5.593   5.250  18.520  0.00  0.00    +0.000 A 
ATOM      7  C   UNL     1       6.869   5.341  19.092  0.00  0.00    +0.000 A 
ATOM      8  C   UNL     1       7.729   6.390  18.758  0.00  0.00    +0.000 A 
ENDBRANCH   1   6
BRANCH   1   9
ATOM      9  N   UNL     1       5.345   2.933  19.292  0.00  0.00    +0.000 NA
ATOM     10  H   UNL     1       5.708   2.463  18.467  0.00  0.00    +0.000 HD
ATOM     11  H   UNL     1       4.674   2.285  19.705  0.00  0.00    +0.000 HD
ENDBRANCH   1   9
BRANCH   1  12
ATOM     12  C   UNL     1       3.528   4.502  19.930  0.00  0.00    +0.000 C 
BRANCH  12  13
ATOM     13  N   UNL     1       2.191   4.869  19.402  0.00  0.00    +0.000 NA
ATOM     14  C   UNL     1       1.116   4.414  20.313  0.00  0.00    +0.000 C 
ATOM     15  C   UNL     1       0.936   2.886  20.331  0.00  0.00    +0.000 C 
ATOM     16  O   UNL     1       0.680   2.377  19.015  0.00  0.00    +0.000 OA
ATOM     17  C   UNL     1       1.716   2.757  18.099  0.00  0.00    +0.000 C 
ATOM     18  C   UNL     1       1.916   4.282  18.071  0.00  0.00    +0.000 C 
ENDBRANCH  12  13
ENDBRANCH   1  12
TORSDOF 4
ENDMDL
MODEL 8
REMARK VINA RESULT:      -6.2      1.764      2.644
REMARK  Name = 
REMARK  5 active torsions:
REMARK  status: ('A' for Active; 'I' for Inactive)
REMARK    1  A    between atoms: C_1  and  C_2
REMARK    2  A    between atoms: C_5  and  C_6
REMARK    3  A    between atoms: C_6  and  N_7
REMARK    4  A    between atoms: C_6  and  C_8
REMARK    5  A    between atoms: C_8  and  N_9
REMARK                            x       y       z     vdW  Elec       q    Type
REMARK                         _______ _______ _______ _____ _____    ______ ____
ROOT
ATOM      1  C   UNL     1       3.232   4.228  17.764  0.00  0.00    +0.000 C 
ENDROOT
BRANCH   1   6
ATOM      2  C   UNL     1       1.227   8.478  21.244  0.00  0.00    +0.000 C 
ATOM      3  C   UNL     1       1.714   7.384  20.340  0.00  0.00    +0.000 A 
ATOM      4  C   UNL     1       1.689   6.047  20.745  0.00  0.00    +0.000 A 
ATOM      5  C   UNL     1       2.173   5.043  19.903  0.00  0.00    +0.000 A 
ATOM      6  C   UNL     1       2.704   5.352  18.638  0.00  0.00    +0.000 A 
ATOM      7  C   UNL     1       2.701   6.693  18.232  0.00  0.00    +0.000 A 
ATOM      8  C   UNL     1       2.221   7.696  19.078  0.00  0.00    +0.000 A 
ENDBRANCH   1   6
BRANCH   1   9
ATOM      9  N   UNL     1       2.113   3.512  17.125  0.00  0.00    +0.000 NA
ATOM     10  H   UNL     1       2.096   2.558  17.474  0.00  0.00    +0.000 HD
ATOM     11  H   UNL     1       2.312   3.437  16.127  0.00  0.00    +0.000 HD
ENDBRANCH   1   9
BRANCH   1  12
ATOM     12  C   UNL     1       4.275   4.650  16.678  0.00  0.00    +0.000 C 
BRANCH  12  13
ATOM     13  N   UNL     1       5.578   3.939  16.710  0.00  0.00    +0.000 NA
ATOM     14  C   UNL     1       6.584   4.708  17.477  0.00  0.00    +0.000 C 
ATOM     15  C   UNL     1       7.049   5.990  16.763  0.00  0.00    +0.000 C 
ATOM     16  O   UNL     1       7.575   5.697  15.461  0.00  0.00    +0.000 OA
ATOM     17  C   UNL     1       6.621   4.986  14.661  0.00  0.00    +0.000 C 
ATOM     18  C   UNL     1       6.139   3.703  15.361  0.00  0.00    +0.000 C 
ENDBRANCH  12  13
ENDBRANCH   1  12
TORSDOF 4
ENDMDL
MODEL 9
REMARK VINA RESULT:      -6.2      2.478      5.582
REMARK  Name = 
REMARK  5 active torsions:
REMARK  status: ('A' for Active; 'I' for Inactive)
REMARK    1  A    between atoms: C_1  and  C_2
REMARK    2  A    between atoms: C_5  and  C_6
REMARK    3  A    between atoms: C_6  and  N_7
REMARK    4  A    between atoms: C_6  and  C_8
REMARK    5  A    between atoms: C_8  and  N_9
REMARK                            x       y       z     vdW  Elec       q    Type
REMARK                         _______ _______ _______ _____ _____    ______ ____
ROOT
ATOM      1  C   UNL     1       4.193   5.979  18.480  0.00  0.00    +0.000 C 
ENDROOT
BRANCH   1   6
ATOM      2  C   UNL     1       6.302   3.856  13.457  0.00  0.00    +0.000 C 
ATOM      3  C   UNL     1       5.789   4.403  14.755  0.00  0.00    +0.000 A 
ATOM      4  C   UNL     1       5.510   3.561  15.834  0.00  0.00    +0.000 A 
ATOM      5  C   UNL     1       5.004   4.083  17.028  0.00  0.00    +0.000 A 
ATOM      6  C   UNL     1       4.757   5.460  17.169  0.00  0.00    +0.000 A 
ATOM      7  C   UNL     1       5.064   6.299  16.089  0.00  0.00    +0.000 A 
ATOM      8  C   UNL     1       5.565   5.774  14.895  0.00  0.00    +0.000 A 
ENDBRANCH   1   6
BRANCH   1   9
ATOM      9  N   UNL     1       3.169   7.007  18.221  0.00  0.00    +0.000 NA
ATOM     10  H   UNL     1       3.605   7.787  17.736  0.00  0.00    +0.000 HD
ATOM     11  H   UNL     1       2.859   7.380  19.119  0.00  0.00    +0.000 HD
ENDBRANCH   1   9
BRANCH   1  12
ATOM     12  C   UNL     1       3.616   4.893  19.446  0.00  0.00    +0.000 C 
BRANCH  12  13
ATOM     13  N   UNL     1       2.137   4.790  19.506  0.00  0.00    +0.000 NA
ATOM     14  C   UNL     1       1.666   4.712  20.908  0.00  0.00    +0.000 C 
ATOM     15  C   UNL     1       2.009   3.378  21.595  0.00  0.00    +0.000 C 
ATOM     16  O   UNL     1       1.481   2.265  20.861  0.00  0.00    +0.000 OA
ATOM     17  C   UNL     1       1.941   2.271  19.503  0.00  0.00    +0.000 C 
ATOM     18  C   UNL     1       1.613   3.600  18.799  0.00  0.00    +0.000 C 
ENDBRANCH  12  13
ENDBRANCH   1  12
TORSDOF 4
ENDMDL
