MODEL 1
REMARK VINA RESULT:      -9.1      0.000      0.000
REMARK  Name = 
REMARK  4 active torsions:
REMARK  status: ('A' for Active; 'I' for Inactive)
REMARK    1  A    between atoms: C_2  and  C_16
REMARK    2  A    between atoms: N_3  and  N_4
REMARK    3  A    between atoms: C_5  and  C_6
REMARK    4  A    between atoms: C_18  and  C_19
REMARK                            x       y       z     vdW  Elec       q    Type
REMARK                         _______ _______ _______ _____ _____    ______ ____
ROOT
ATOM      1  O   UNL     1       2.319  11.483  18.186  0.00  0.00    +0.000 OA
ATOM      2  C   UNL     1       1.184  11.011  18.283  0.00  0.00    +0.000 C 
ATOM      3  N   UNL     1       0.874   9.684  18.001  0.00  0.00    +0.000 N 
ATOM      4  H   UNL     1      -0.089   9.369  18.067  0.00  0.00    +0.000 HD
ENDROOT
BRANCH   2   5
ATOM      5  C   UNL     1       0.060  11.859  18.719  0.00  0.00    +0.000 A 
ATOM      6  C   UNL     1      -1.098  11.365  19.376  0.00  0.00    +0.000 A 
ATOM      7  C   UNL     1      -1.939  12.440  19.577  0.00  0.00    +0.000 A 
ATOM      8  N   UNL     1      -1.250  13.501  19.042  0.00  0.00    +0.000 N 
ATOM      9  N   UNL     1      -0.030  13.191  18.536  0.00  0.00    +0.000 NA
ATOM     10  H   UNL     1      -1.573  14.460  18.962  0.00  0.00    +0.000 HD
BRANCH   7  11
ATOM     11  C   UNL     1      -3.284  12.496  20.165  0.00  0.00    +0.000 A 
ATOM     12  C   UNL     1      -4.403  12.257  19.354  0.00  0.00    +0.000 A 
ATOM     13  C   UNL     1      -5.699  12.290  19.876  0.00  0.00    +0.000 A 
ATOM     14  C   UNL     1      -5.917  12.562  21.231  0.00  0.00    +0.000 A 
ATOM     15  C   UNL     1      -7.216  12.593  21.767  0.00  0.00    +0.000 A 
ATOM     16  C   UNL     1      -7.421  12.864  23.120  0.00  0.00    +0.000 A 
ATOM     17  C   UNL     1      -6.331  13.105  23.951  0.00  0.00    +0.000 A 
ATOM     18  C   UNL     1      -5.034  13.074  23.430  0.00  0.00    +0.000 A 
ATOM     19  C   UNL     1      -4.805  12.804  22.069  0.00  0.00    +0.000 A 
ATOM     20  C   UNL     1      -3.502  12.766  21.524  0.00  0.00    +0.000 A 
ENDBRANCH   7  11
ENDBRANCH   2   5
BRANCH   3  21
ATOM     21  N   UNL     1       1.884   8.868  17.573  0.00  0.00    +0.000 NA
ATOM     22  C   UNL     1       2.127   7.776  18.225  0.00  0.00    +0.000 C 
BRANCH  22  23
ATOM     23  C   UNL     1       3.194   6.838  17.759  0.00  0.00    +0.000 A 
ATOM     24  C   UNL     1       4.381   7.406  17.260  0.00  0.00    +0.000 A 
ATOM     25  C   UNL     1       5.396   6.604  16.752  0.00  0.00    +0.000 A 
ATOM     26  C   UNL     1       5.240   5.223  16.734  0.00  0.00    +0.000 A 
ATOM     27  C   UNL     1       4.076   4.622  17.236  0.00  0.00    +0.000 A 
ATOM     28  C   UNL     1       3.955   3.223  17.200  0.00  0.00    +0.000 A 
ATOM     29  C   UNL     1       2.819   2.589  17.698  0.00  0.00    +0.000 A 
ATOM     30  C   UNL     1       1.793   3.347  18.243  0.00  0.00    +0.000 A 
ATOM     31  C   UNL     1       1.895   4.741  18.279  0.00  0.00    +0.000 A 
ATOM     32  C   UNL     1       3.028   5.425  17.773  0.00  0.00    +0.000 A 
ENDBRANCH  22  23
ENDBRANCH   3  21
TORSDOF 4
ENDMDL
MODEL 2
REMARK VINA RESULT:      -9.0      0.808      1.515
REMARK  Name = 
REMARK  4 active torsions:
REMARK  status: ('A' for Active; 'I' for Inactive)
REMARK    1  A    between atoms: C_2  and  C_16
REMARK    2  A    between atoms: N_3  and  N_4
REMARK    3  A    between atoms: C_5  and  C_6
REMARK    4  A    between atoms: C_18  and  C_19
REMARK                            x       y       z     vdW  Elec       q    Type
REMARK                         _______ _______ _______ _____ _____    ______ ____
ROOT
ATOM      1  O   UNL     1       2.428  11.057  17.903  0.00  0.00    +0.000 OA
ATOM      2  C   UNL     1       1.385  10.637  18.408  0.00  0.00    +0.000 C 
ATOM      3  N   UNL     1       1.012   9.296  18.405  0.00  0.00    +0.000 N 
ATOM      4  H   UNL     1       0.121   9.023  18.808  0.00  0.00    +0.000 HD
ENDROOT
BRANCH   2   5
ATOM      5  C   UNL     1       0.449  11.567  19.064  0.00  0.00    +0.000 A 
ATOM      6  C   UNL     1      -0.502  11.175  20.044  0.00  0.00    +0.000 A 
ATOM      7  C   UNL     1      -1.223  12.302  20.382  0.00  0.00    +0.000 A 
ATOM      8  N   UNL     1      -0.672  13.291  19.603  0.00  0.00    +0.000 N 
ATOM      9  N   UNL     1       0.355  12.888  18.814  0.00  0.00    +0.000 NA
ATOM     10  H   UNL     1      -0.974  14.258  19.541  0.00  0.00    +0.000 HD
BRANCH   7  11
ATOM     11  C   UNL     1      -2.356  12.464  21.303  0.00  0.00    +0.000 A 
ATOM     12  C   UNL     1      -2.177  12.207  22.670  0.00  0.00    +0.000 A 
ATOM     13  C   UNL     1      -3.227  12.361  23.581  0.00  0.00    +0.000 A 
ATOM     14  C   UNL     1      -4.490  12.779  23.152  0.00  0.00    +0.000 A 
ATOM     15  C   UNL     1      -5.551  12.941  24.060  0.00  0.00    +0.000 A 
ATOM     16  C   UNL     1      -6.807  13.360  23.621  0.00  0.00    +0.000 A 
ATOM     17  C   UNL     1      -7.015  13.624  22.269  0.00  0.00    +0.000 A 
ATOM     18  C   UNL     1      -5.968  13.470  21.357  0.00  0.00    +0.000 A 
ATOM     19  C   UNL     1      -4.695  13.047  21.779  0.00  0.00    +0.000 A 
ATOM     20  C   UNL     1      -3.622  12.887  20.872  0.00  0.00    +0.000 A 
ENDBRANCH   7  11
ENDBRANCH   2   5
BRANCH   3  21
ATOM     21  N   UNL     1       1.843   8.403  17.787  0.00  0.00    +0.000 NA
ATOM     22  C   UNL     1       2.462   7.523  18.506  0.00  0.00    +0.000 C 
BRANCH  22  23
ATOM     23  C   UNL     1       3.343   6.502  17.860  0.00  0.00    +0.000 A 
ATOM     24  C   UNL     1       4.501   6.967  17.209  0.00  0.00    +0.000 A 
ATOM     25  C   UNL     1       5.340   6.088  16.533  0.00  0.00    +0.000 A 
ATOM     26  C   UNL     1       5.033   4.733  16.495  0.00  0.00    +0.000 A 
ATOM     27  C   UNL     1       3.894   4.233  17.145  0.00  0.00    +0.000 A 
ATOM     28  C   UNL     1       3.617   2.857  17.085  0.00  0.00    +0.000 A 
ATOM     29  C   UNL     1       2.503   2.321  17.724  0.00  0.00    +0.000 A 
ATOM     30  C   UNL     1       1.654   3.155  18.438  0.00  0.00    +0.000 A 
ATOM     31  C   UNL     1       1.911   4.529  18.501  0.00  0.00    +0.000 A 
ATOM     32  C   UNL     1       3.028   5.114  17.855  0.00  0.00    +0.000 A 
ENDBRANCH  22  23
ENDBRANCH   3  21
TORSDOF 4
ENDMDL
MODEL 3
REMARK VINA RESULT:      -8.9      7.759     10.989
REMARK  Name = 
REMARK  4 active torsions:
REMARK  status: ('A' for Active; 'I' for Inactive)
REMARK    1  A    between atoms: C_2  and  C_16
REMARK    2  A    between atoms: N_3  and  N_4
REMARK    3  A    between atoms: C_5  and  C_6
REMARK    4  A    between atoms: C_18  and  C_19
REMARK                            x       y       z     vdW  Elec       q    Type
REMARK                         _______ _______ _______ _____ _____    ______ ____
ROOT
ATOM      1  O   UNL     1       8.839   7.825  19.169  0.00  0.00    +0.000 OA
ATOM      2  C   UNL     1       8.546   8.830  18.517  0.00  0.00    +0.000 C 
ATOM      3  N   UNL     1       7.771   8.800  17.361  0.00  0.00    +0.000 N 
ATOM      4  H   UNL     1       7.598   9.661  16.852  0.00  0.00    +0.000 HD
ENDROOT
BRANCH   2   5
ATOM      5  C   UNL     1       9.019  10.158  18.945  0.00  0.00    +0.000 A 
ATOM      6  C   UNL     1       9.198  11.258  18.064  0.00  0.00    +0.000 A 
ATOM      7  C   UNL     1       9.695  12.303  18.816  0.00  0.00    +0.000 A 
ATOM      8  N   UNL     1       9.782  11.782  20.085  0.00  0.00    +0.000 N 
ATOM      9  N   UNL     1       9.359  10.498  20.204  0.00  0.00    +0.000 NA
ATOM     10  H   UNL     1      10.151  12.244  20.910  0.00  0.00    +0.000 HD
BRANCH   7  11
ATOM     11  C   UNL     1      10.106  13.653  18.411  0.00  0.00    +0.000 A 
ATOM     12  C   UNL     1      11.312  13.829  17.717  0.00  0.00    +0.000 A 
ATOM     13  C   UNL     1      11.734  15.096  17.303  0.00  0.00    +0.000 A 
ATOM     14  C   UNL     1      10.959  16.229  17.570  0.00  0.00    +0.000 A 
ATOM     15  C   UNL     1      11.372  17.508  17.155  0.00  0.00    +0.000 A 
ATOM     16  C   UNL     1      10.591  18.631  17.425  0.00  0.00    +0.000 A 
ATOM     17  C   UNL     1       9.387  18.488  18.111  0.00  0.00    +0.000 A 
ATOM     18  C   UNL     1       8.965  17.223  18.527  0.00  0.00    +0.000 A 
ATOM     19  C   UNL     1       9.738  16.078  18.266  0.00  0.00    +0.000 A 
ATOM     20  C   UNL     1       9.327  14.789  18.676  0.00  0.00    +0.000 A 
ENDBRANCH   7  11
ENDBRANCH   2   5
BRANCH   3  21
ATOM     21  N   UNL     1       7.331   7.584  16.917  0.00  0.00    +0.000 NA
ATOM     22  C   UNL     1       6.228   7.105  17.395  0.00  0.00    +0.000 C 
BRANCH  22  23
ATOM     23  C   UNL     1       5.693   5.800  16.900  0.00  0.00    +0.000 A 
ATOM     24  C   UNL     1       6.471   5.097  15.961  0.00  0.00    +0.000 A 
ATOM     25  C   UNL     1       6.015   3.905  15.407  0.00  0.00    +0.000 A 
ATOM     26  C   UNL     1       4.776   3.400  15.781  0.00  0.00    +0.000 A 
ATOM     27  C   UNL     1       3.980   4.067  16.725  0.00  0.00    +0.000 A 
ATOM     28  C   UNL     1       2.734   3.526  17.078  0.00  0.00    +0.000 A 
ATOM     29  C   UNL     1       1.919   4.152  18.018  0.00  0.00    +0.000 A 
ATOM     30  C   UNL     1       2.346   5.327  18.621  0.00  0.00    +0.000 A 
ATOM     31  C   UNL     1       3.581   5.884  18.275  0.00  0.00    +0.000 A 
ATOM     32  C   UNL     1       4.433   5.283  17.315  0.00  0.00    +0.000 A 
ENDBRANCH  22  23
ENDBRANCH   3  21
TORSDOF 4
ENDMDL
MODEL 4
REMARK VINA RESULT:      -8.8      2.616     11.195
REMARK  Name = 
REMARK  4 active torsions:
REMARK  status: ('A' for Active; 'I' for Inactive)
REMARK    1  A    between atoms: C_2  and  C_16
REMARK    2  A    between atoms: N_3  and  N_4
REMARK    3  A    between atoms: C_5  and  C_6
REMARK    4  A    between atoms: C_18  and  C_19
REMARK                            x       y       z     vdW  Elec       q    Type
REMARK                         _______ _______ _______ _____ _____    ______ ____
ROOT
ATOM      1  O   UNL     1      -0.053  12.327  20.972  0.00  0.00    +0.000 OA
ATOM      2  C   UNL     1      -0.202  11.425  21.799  0.00  0.00    +0.000 C 
ATOM      3  N   UNL     1      -1.100  11.492  22.860  0.00  0.00    +0.000 N 
ATOM      4  H   UNL     1      -1.146  10.727  23.526  0.00  0.00    +0.000 HD
ENDROOT
BRANCH   2   5
ATOM      5  C   UNL     1       0.593  10.187  21.701  0.00  0.00    +0.000 A 
ATOM      6  C   UNL     1       0.597   9.335  20.564  0.00  0.00    +0.000 A 
ATOM      7  C   UNL     1       1.412   8.264  20.864  0.00  0.00    +0.000 A 
ATOM      8  N   UNL     1       1.848   8.529  22.140  0.00  0.00    +0.000 N 
ATOM      9  N   UNL     1       1.392   9.693  22.667  0.00  0.00    +0.000 NA
ATOM     10  H   UNL     1       2.435   7.938  22.719  0.00  0.00    +0.000 HD
BRANCH   7  11
ATOM     11  C   UNL     1       1.736   7.067  20.076  0.00  0.00    +0.000 A 
ATOM     12  C   UNL     1       2.408   7.205  18.854  0.00  0.00    +0.000 A 
ATOM     13  C   UNL     1       2.745   6.090  18.080  0.00  0.00    +0.000 A 
ATOM     14  C   UNL     1       2.420   4.799  18.508  0.00  0.00    +0.000 A 
ATOM     15  C   UNL     1       2.757   3.671  17.739  0.00  0.00    +0.000 A 
ATOM     16  C   UNL     1       2.429   2.388  18.176  0.00  0.00    +0.000 A 
ATOM     17  C   UNL     1       1.762   2.218  19.387  0.00  0.00    +0.000 A 
ATOM     18  C   UNL     1       1.424   3.331  20.161  0.00  0.00    +0.000 A 
ATOM     19  C   UNL     1       1.744   4.633  19.738  0.00  0.00    +0.000 A 
ATOM     20  C   UNL     1       1.412   5.772  20.508  0.00  0.00    +0.000 A 
ENDBRANCH   7  11
ENDBRANCH   2   5
BRANCH   3  21
ATOM     21  N   UNL     1      -1.841  12.632  22.999  0.00  0.00    +0.000 NA
ATOM     22  C   UNL     1      -2.975  12.722  22.382  0.00  0.00    +0.000 C 
BRANCH  22  23
ATOM     23  C   UNL     1      -3.833  13.934  22.547  0.00  0.00    +0.000 A 
ATOM     24  C   UNL     1      -3.282  15.173  22.165  0.00  0.00    +0.000 A 
ATOM     25  C   UNL     1      -3.993  16.354  22.344  0.00  0.00    +0.000 A 
ATOM     26  C   UNL     1      -5.263  16.317  22.908  0.00  0.00    +0.000 A 
ATOM     27  C   UNL     1      -5.849  15.099  23.286  0.00  0.00    +0.000 A 
ATOM     28  C   UNL     1      -7.134  15.102  23.852  0.00  0.00    +0.000 A 
ATOM     29  C   UNL     1      -7.753  13.913  24.232  0.00  0.00    +0.000 A 
ATOM     30  C   UNL     1      -7.094  12.707  24.044  0.00  0.00    +0.000 A 
ATOM     31  C   UNL     1      -5.811  12.687  23.490  0.00  0.00    +0.000 A 
ATOM     32  C   UNL     1      -5.143  13.875  23.101  0.00  0.00    +0.000 A 
ENDBRANCH  22  23
ENDBRANCH   3  21
TORSDOF 4
ENDMDL
MODEL 5
REMARK VINA RESULT:      -8.6      2.192     11.370
REMARK  Name = 
REMARK  4 active torsions:
REMARK  status: ('A' for Active; 'I' for Inactive)
REMARK    1  A    between atoms: C_2  and  C_16
REMARK    2  A    between atoms: N_3  and  N_4
REMARK    3  A    between atoms: C_5  and  C_6
REMARK    4  A    between atoms: C_18  and  C_19
REMARK                            x       y       z     vdW  Elec       q    Type
REMARK                         _______ _______ _______ _____ _____    ______ ____
ROOT
ATOM      1  O   UNL     1      -0.662  11.248  19.934  0.00  0.00    +0.000 OA
ATOM      2  C   UNL     1      -0.281  10.687  20.964  0.00  0.00    +0.000 C 
ATOM      3  N   UNL     1      -0.658  11.084  22.243  0.00  0.00    +0.000 N 
ATOM      4  H   UNL     1      -0.280  10.600  23.050  0.00  0.00    +0.000 HD
ENDROOT
BRANCH   2   5
ATOM      5  C   UNL     1       0.623   9.525  20.888  0.00  0.00    +0.000 A 
ATOM      6  C   UNL     1       1.068   8.946  19.669  0.00  0.00    +0.000 A 
ATOM      7  C   UNL     1       1.851   7.859  20.000  0.00  0.00    +0.000 A 
ATOM      8  N   UNL     1       1.834   7.848  21.374  0.00  0.00    +0.000 N 
ATOM      9  N   UNL     1       1.123   8.853  21.943  0.00  0.00    +0.000 NA
ATOM     10  H   UNL     1       2.265   7.160  21.984  0.00  0.00    +0.000 HD
BRANCH   7  11
ATOM     11  C   UNL     1       2.523   6.876  19.140  0.00  0.00    +0.000 A 
ATOM     12  C   UNL     1       2.265   5.509  19.322  0.00  0.00    +0.000 A 
ATOM     13  C   UNL     1       2.875   4.542  18.517  0.00  0.00    +0.000 A 
ATOM     14  C   UNL     1       3.762   4.913  17.501  0.00  0.00    +0.000 A 
ATOM     15  C   UNL     1       4.378   3.949  16.684  0.00  0.00    +0.000 A 
ATOM     16  C   UNL     1       5.259   4.331  15.673  0.00  0.00    +0.000 A 
ATOM     17  C   UNL     1       5.534   5.681  15.468  0.00  0.00    +0.000 A 
ATOM     18  C   UNL     1       4.927   6.649  16.272  0.00  0.00    +0.000 A 
ATOM     19  C   UNL     1       4.036   6.285  17.297  0.00  0.00    +0.000 A 
ATOM     20  C   UNL     1       3.410   7.249  18.120  0.00  0.00    +0.000 A 
ENDBRANCH   7  11
ENDBRANCH   2   5
BRANCH   3  21
ATOM     21  N   UNL     1      -1.479  12.172  22.359  0.00  0.00    +0.000 NA
ATOM     22  C   UNL     1      -2.468  12.124  23.194  0.00  0.00    +0.000 C 
BRANCH  22  23
ATOM     23  C   UNL     1      -3.358  13.310  23.380  0.00  0.00    +0.000 A 
ATOM     24  C   UNL     1      -2.982  14.255  24.353  0.00  0.00    +0.000 A 
ATOM     25  C   UNL     1      -3.787  15.355  24.628  0.00  0.00    +0.000 A 
ATOM     26  C   UNL     1      -4.981  15.525  23.937  0.00  0.00    +0.000 A 
ATOM     27  C   UNL     1      -5.381  14.611  22.951  0.00  0.00    +0.000 A 
ATOM     28  C   UNL     1      -6.594  14.817  22.275  0.00  0.00    +0.000 A 
ATOM     29  C   UNL     1      -7.021  13.938  21.282  0.00  0.00    +0.000 A 
ATOM     30  C   UNL     1      -6.234  12.843  20.952  0.00  0.00    +0.000 A 
ATOM     31  C   UNL     1      -5.028  12.619  21.622  0.00  0.00    +0.000 A 
ATOM     32  C   UNL     1      -4.564  13.484  22.644  0.00  0.00    +0.000 A 
ENDBRANCH  22  23
ENDBRANCH   3  21
TORSDOF 4
ENDMDL
MODEL 6
REMARK VINA RESULT:      -8.6      2.828     11.722
REMARK  Name = 
REMARK  4 active torsions:
REMARK  status: ('A' for Active; 'I' for Inactive)
REMARK    1  A    between atoms: C_2  and  C_16
REMARK    2  A    between atoms: N_3  and  N_4
REMARK    3  A    between atoms: C_5  and  C_6
REMARK    4  A    between atoms: C_18  and  C_19
REMARK                            x       y       z     vdW  Elec       q    Type
REMARK                         _______ _______ _______ _____ _____    ______ ____
ROOT
ATOM      1  O   UNL     1      -1.099  11.544  20.403  0.00  0.00    +0.000 OA
ATOM      2  C   UNL     1      -0.784  10.993  21.460  0.00  0.00    +0.000 C 
ATOM      3  N   UNL     1      -1.345  11.312  22.693  0.00  0.00    +0.000 N 
ATOM      4  H   UNL     1      -1.013  10.844  23.530  0.00  0.00    +0.000 HD
ENDROOT
BRANCH   2   5
ATOM      5  C   UNL     1       0.238   9.930  21.469  0.00  0.00    +0.000 A 
ATOM      6  C   UNL     1       0.485   9.058  20.375  0.00  0.00    +0.000 A 
ATOM      7  C   UNL     1       1.467   8.176  20.775  0.00  0.00    +0.000 A 
ATOM      8  N   UNL     1       1.752   8.562  22.062  0.00  0.00    +0.000 N 
ATOM      9  N   UNL     1       1.046   9.633  22.505  0.00  0.00    +0.000 NA
ATOM     10  H   UNL     1       2.398   8.115  22.705  0.00  0.00    +0.000 HD
BRANCH   7  11
ATOM     11  C   UNL     1       2.068   7.039  20.066  0.00  0.00    +0.000 A 
ATOM     12  C   UNL     1       1.816   5.734  20.513  0.00  0.00    +0.000 A 
ATOM     13  C   UNL     1       2.359   4.624  19.859  0.00  0.00    +0.000 A 
ATOM     14  C   UNL     1       3.172   4.786  18.732  0.00  0.00    +0.000 A 
ATOM     15  C   UNL     1       3.721   3.677  18.064  0.00  0.00    +0.000 A 
ATOM     16  C   UNL     1       4.529   3.850  16.941  0.00  0.00    +0.000 A 
ATOM     17  C   UNL     1       4.797   5.134  16.472  0.00  0.00    +0.000 A 
ATOM     18  C   UNL     1       4.256   6.244  17.125  0.00  0.00    +0.000 A 
ATOM     19  C   UNL     1       3.439   6.091  18.260  0.00  0.00    +0.000 A 
ATOM     20  C   UNL     1       2.881   7.202  18.934  0.00  0.00    +0.000 A 
ENDBRANCH   7  11
ENDBRANCH   2   5
BRANCH   3  21
ATOM     21  N   UNL     1      -2.281  12.308  22.731  0.00  0.00    +0.000 NA
ATOM     22  C   UNL     1      -3.127  12.335  23.710  0.00  0.00    +0.000 C 
BRANCH  22  23
ATOM     23  C   UNL     1      -4.135  13.434  23.808  0.00  0.00    +0.000 A 
ATOM     24  C   UNL     1      -5.429  13.170  23.320  0.00  0.00    +0.000 A 
ATOM     25  C   UNL     1      -6.406  14.159  23.320  0.00  0.00    +0.000 A 
ATOM     26  C   UNL     1      -6.106  15.426  23.806  0.00  0.00    +0.000 A 
ATOM     27  C   UNL     1      -4.831  15.720  24.314  0.00  0.00    +0.000 A 
ATOM     28  C   UNL     1      -4.565  17.012  24.796  0.00  0.00    +0.000 A 
ATOM     29  C   UNL     1      -3.316  17.341  25.316  0.00  0.00    +0.000 A 
ATOM     30  C   UNL     1      -2.319  16.377  25.365  0.00  0.00    +0.000 A 
ATOM     31  C   UNL     1      -2.564  15.088  24.882  0.00  0.00    +0.000 A 
ATOM     32  C   UNL     1      -3.818  14.718  24.335  0.00  0.00    +0.000 A 
ENDBRANCH  22  23
ENDBRANCH   3  21
TORSDOF 4
ENDMDL
MODEL 7
REMARK VINA RESULT:      -8.5      2.683      3.731
REMARK  Name = 
REMARK  4 active torsions:
REMARK  status: ('A' for Active; 'I' for Inactive)
REMARK    1  A    between atoms: C_2  and  C_16
REMARK    2  A    between atoms: N_3  and  N_4
REMARK    3  A    between atoms: C_5  and  C_6
REMARK    4  A    between atoms: C_18  and  C_19
REMARK                            x       y       z     vdW  Elec       q    Type
REMARK                         _______ _______ _______ _____ _____    ______ ____
ROOT
ATOM      1  O   UNL     1       1.313   9.111  19.590  0.00  0.00    +0.000 OA
ATOM      2  C   UNL     1       1.058   8.605  20.685  0.00  0.00    +0.000 C 
ATOM      3  N   UNL     1       1.481   7.335  21.065  0.00  0.00    +0.000 N 
ATOM      4  H   UNL     1       1.204   6.964  21.968  0.00  0.00    +0.000 HD
ENDROOT
BRANCH   2   5
ATOM      5  C   UNL     1       0.264   9.347  21.680  0.00  0.00    +0.000 A 
ATOM      6  C   UNL     1      -0.365  10.595  21.422  0.00  0.00    +0.000 A 
ATOM      7  C   UNL     1      -0.964  10.997  22.598  0.00  0.00    +0.000 A 
ATOM      8  N   UNL     1      -0.670   9.985  23.479  0.00  0.00    +0.000 N 
ATOM      9  N   UNL     1       0.049   8.962  22.953  0.00  0.00    +0.000 NA
ATOM     10  H   UNL     1      -0.906   9.948  24.466  0.00  0.00    +0.000 HD
BRANCH   7  11
ATOM     11  C   UNL     1      -1.705  12.225  22.914  0.00  0.00    +0.000 A 
ATOM     12  C   UNL     1      -1.015  13.440  23.023  0.00  0.00    +0.000 A 
ATOM     13  C   UNL     1      -1.684  14.633  23.311  0.00  0.00    +0.000 A 
ATOM     14  C   UNL     1      -3.070  14.648  23.498  0.00  0.00    +0.000 A 
ATOM     15  C   UNL     1      -3.754  15.842  23.784  0.00  0.00    +0.000 A 
ATOM     16  C   UNL     1      -5.136  15.845  23.967  0.00  0.00    +0.000 A 
ATOM     17  C   UNL     1      -5.851  14.654  23.865  0.00  0.00    +0.000 A 
ATOM     18  C   UNL     1      -5.183  13.460  23.579  0.00  0.00    +0.000 A 
ATOM     19  C   UNL     1      -3.789  13.435  23.392  0.00  0.00    +0.000 A 
ATOM     20  C   UNL     1      -3.096  12.239  23.099  0.00  0.00    +0.000 A 
ENDBRANCH   7  11
ENDBRANCH   2   5
BRANCH   3  21
ATOM     21  N   UNL     1       2.202   6.603  20.162  0.00  0.00    +0.000 NA
ATOM     22  C   UNL     1       1.887   5.363  19.966  0.00  0.00    +0.000 C 
BRANCH  22  23
ATOM     23  C   UNL     1       2.624   4.546  18.954  0.00  0.00    +0.000 A 
ATOM     24  C   UNL     1       2.460   3.149  19.008  0.00  0.00    +0.000 A 
ATOM     25  C   UNL     1       3.158   2.316  18.140  0.00  0.00    +0.000 A 
ATOM     26  C   UNL     1       4.031   2.866  17.209  0.00  0.00    +0.000 A 
ATOM     27  C   UNL     1       4.207   4.254  17.118  0.00  0.00    +0.000 A 
ATOM     28  C   UNL     1       5.098   4.772  16.163  0.00  0.00    +0.000 A 
ATOM     29  C   UNL     1       5.294   6.145  16.035  0.00  0.00    +0.000 A 
ATOM     30  C   UNL     1       4.596   7.017  16.858  0.00  0.00    +0.000 A 
ATOM     31  C   UNL     1       3.712   6.517  17.820  0.00  0.00    +0.000 A 
ATOM     32  C   UNL     1       3.493   5.127  17.988  0.00  0.00    +0.000 A 
ENDBRANCH  22  23
ENDBRANCH   3  21
TORSDOF 4
ENDMDL
MODEL 8
REMARK VINA RESULT:      -8.5      3.204     11.571
REMARK  Name = 
REMARK  4 active torsions:
REMARK  status: ('A' for Active; 'I' for Inactive)
REMARK    1  A    between atoms: C_2  and  C_16
REMARK    2  A    between atoms: N_3  and  N_4
REMARK    3  A    between atoms: C_5  and  C_6
REMARK    4  A    between atoms: C_18  and  C_19
REMARK                            x       y       z     vdW  Elec       q    Type
REMARK                         _______ _______ _______ _____ _____    ______ ____
ROOT
ATOM      1  O   UNL     1       0.098  12.738  21.906  0.00  0.00    +0.000 OA
ATOM      2  C   UNL     1      -0.417  11.643  22.142  0.00  0.00    +0.000 C 
ATOM      3  N   UNL     1      -1.741  11.484  22.539  0.00  0.00    +0.000 N 
ATOM      4  H   UNL     1      -2.091  10.555  22.752  0.00  0.00    +0.000 HD
ENDROOT
BRANCH   2   5
ATOM      5  C   UNL     1       0.373  10.406  22.011  0.00  0.00    +0.000 A 
ATOM      6  C   UNL     1       0.529   9.689  20.794  0.00  0.00    +0.000 A 
ATOM      7  C   UNL     1       1.285   8.571  21.076  0.00  0.00    +0.000 A 
ATOM      8  N   UNL     1       1.540   8.677  22.422  0.00  0.00    +0.000 N 
ATOM      9  N   UNL     1       1.025   9.785  23.013  0.00  0.00    +0.000 NA
ATOM     10  H   UNL     1       2.035   8.009  23.004  0.00  0.00    +0.000 HD
BRANCH   7  11
ATOM     11  C   UNL     1       1.705   7.464  20.207  0.00  0.00    +0.000 A 
ATOM     12  C   UNL     1       2.261   7.745  18.950  0.00  0.00    +0.000 A 
ATOM     13  C   UNL     1       2.684   6.721  18.098  0.00  0.00    +0.000 A 
ATOM     14  C   UNL     1       2.566   5.380  18.478  0.00  0.00    +0.000 A 
ATOM     15  C   UNL     1       2.992   4.343  17.630  0.00  0.00    +0.000 A 
ATOM     16  C   UNL     1       2.871   3.010  18.020  0.00  0.00    +0.000 A 
ATOM     17  C   UNL     1       2.324   2.698  19.262  0.00  0.00    +0.000 A 
ATOM     18  C   UNL     1       1.899   3.720  20.115  0.00  0.00    +0.000 A 
ATOM     19  C   UNL     1       2.011   5.071  19.741  0.00  0.00    +0.000 A 
ATOM     20  C   UNL     1       1.589   6.120  20.590  0.00  0.00    +0.000 A 
ENDBRANCH   7  11
ENDBRANCH   2   5
BRANCH   3  21
ATOM     21  N   UNL     1      -2.503  12.609  22.693  0.00  0.00    +0.000 NA
ATOM     22  C   UNL     1      -3.084  12.820  23.830  0.00  0.00    +0.000 C 
BRANCH  22  23
ATOM     23  C   UNL     1      -3.887  14.062  24.049  0.00  0.00    +0.000 A 
ATOM     24  C   UNL     1      -5.229  14.048  23.624  0.00  0.00    +0.000 A 
ATOM     25  C   UNL     1      -6.025  15.182  23.737  0.00  0.00    +0.000 A 
ATOM     26  C   UNL     1      -5.492  16.347  24.275  0.00  0.00    +0.000 A 
ATOM     27  C   UNL     1      -4.163  16.393  24.723  0.00  0.00    +0.000 A 
ATOM     28  C   UNL     1      -3.661  17.589  25.261  0.00  0.00    +0.000 A 
ATOM     29  C   UNL     1      -2.350  17.672  25.726  0.00  0.00    +0.000 A 
ATOM     30  C   UNL     1      -1.528  16.557  25.662  0.00  0.00    +0.000 A 
ATOM     31  C   UNL     1      -2.010  15.360  25.121  0.00  0.00    +0.000 A 
ATOM     32  C   UNL     1      -3.333  15.239  24.628  0.00  0.00    +0.000 A 
ENDBRANCH  22  23
ENDBRANCH   3  21
TORSDOF 4
ENDMDL
MODEL 9
REMARK VINA RESULT:      -8.5      2.940     11.698
REMARK  Name = 
REMARK  4 active torsions:
REMARK  status: ('A' for Active; 'I' for Inactive)
REMARK    1  A    between atoms: C_2  and  C_16
REMARK    2  A    between atoms: N_3  and  N_4
REMARK    3  A    between atoms: C_5  and  C_6
REMARK    4  A    between atoms: C_18  and  C_19
REMARK                            x       y       z     vdW  Elec       q    Type
REMARK                         _______ _______ _______ _____ _____    ______ ____
ROOT
ATOM      1  O   UNL     1       1.556   6.421  20.836  0.00  0.00    +0.000 OA
ATOM      2  C   UNL     1       2.197   6.888  19.893  0.00  0.00    +0.000 C 
ATOM      3  N   UNL     1       2.027   8.182  19.410  0.00  0.00    +0.000 N 
ATOM      4  H   UNL     1       2.564   8.492  18.606  0.00  0.00    +0.000 HD
ENDROOT
BRANCH   2   5
ATOM      5  C   UNL     1       3.213   6.070  19.206  0.00  0.00    +0.000 A 
ATOM      6  C   UNL     1       3.684   6.330  17.891  0.00  0.00    +0.000 A 
ATOM      7  C   UNL     1       4.581   5.330  17.578  0.00  0.00    +0.000 A 
ATOM      8  N   UNL     1       4.601   4.542  18.702  0.00  0.00    +0.000 N 
ATOM      9  N   UNL     1       3.805   4.972  19.714  0.00  0.00    +0.000 NA
ATOM     10  H   UNL     1       5.115   3.676  18.832  0.00  0.00    +0.000 HD
BRANCH   7  11
ATOM     11  C   UNL     1       5.328   5.079  16.338  0.00  0.00    +0.000 A 
ATOM     12  C   UNL     1       6.656   5.515  16.230  0.00  0.00    +0.000 A 
ATOM     13  C   UNL     1       7.405   5.285  15.073  0.00  0.00    +0.000 A 
ATOM     14  C   UNL     1       6.847   4.607  13.984  0.00  0.00    +0.000 A 
ATOM     15  C   UNL     1       7.592   4.367  12.816  0.00  0.00    +0.000 A 
ATOM     16  C   UNL     1       7.026   3.689  11.737  0.00  0.00    +0.000 A 
ATOM     17  C   UNL     1       5.709   3.242  11.814  0.00  0.00    +0.000 A 
ATOM     18  C   UNL     1       4.959   3.472  12.970  0.00  0.00    +0.000 A 
ATOM     19  C   UNL     1       5.510   4.155  14.068  0.00  0.00    +0.000 A 
ATOM     20  C   UNL     1       4.768   4.396  15.247  0.00  0.00    +0.000 A 
ENDBRANCH   7  11
ENDBRANCH   2   5
BRANCH   3  21
ATOM     21  N   UNL     1       1.079   8.968  20.006  0.00  0.00    +0.000 NA
ATOM     22  C   UNL     1       0.837  10.140  19.513  0.00  0.00    +0.000 C 
BRANCH  22  23
ATOM     23  C   UNL     1      -0.224  11.007  20.110  0.00  0.00    +0.000 A 
ATOM     24  C   UNL     1       0.032  11.559  21.380  0.00  0.00    +0.000 A 
ATOM     25  C   UNL     1      -0.928  12.327  22.030  0.00  0.00    +0.000 A 
ATOM     26  C   UNL     1      -2.157  12.554  21.422  0.00  0.00    +0.000 A 
ATOM     27  C   UNL     1      -2.441  12.032  20.151  0.00  0.00    +0.000 A 
ATOM     28  C   UNL     1      -3.694  12.282  19.570  0.00  0.00    +0.000 A 
ATOM     29  C   UNL     1      -4.010  11.789  18.306  0.00  0.00    +0.000 A 
ATOM     30  C   UNL     1      -3.072  11.044  17.606  0.00  0.00    +0.000 A 
ATOM     31  C   UNL     1      -1.822  10.778  18.175  0.00  0.00    +0.000 A 
ATOM     32  C   UNL     1      -1.467  11.252  19.462  0.00  0.00    +0.000 A 
ENDBRANCH  22  23
ENDBRANCH   3  21
TORSDOF 4
ENDMDL
