MODEL 1
REMARK VINA RESULT:      -7.7      0.000      0.000
REMARK  Name = 
REMARK  12 active torsions:
REMARK  status: ('A' for Active; 'I' for Inactive)
REMARK    1  A    between atoms: C_1  and  O_2
REMARK    2  A    between atoms: O_2  and  C_3
REMARK    3  A    between atoms: C_3  and  C_5
REMARK    4  A    between atoms: C_5  and  C_6
REMARK    5  A    between atoms: C_5  and  N_7
REMARK    6  A    between atoms: N_7  and  C_8
REMARK    7  A    between atoms: N_7  and  S_15
REMARK    8  A    between atoms: C_11  and  C_12
REMARK    9  A    between atoms: S_15  and  C_18
REMARK   10  A    between atoms: C_19  and  C_20
REMARK   11  A    between atoms: C_22  and  O_23
REMARK   12  A    between atoms: C_25  and  O_26
REMARK                            x       y       z     vdW  Elec       q    Type
REMARK                         _______ _______ _______ _____ _____    ______ ____
ROOT
ATOM      1  N   UNL     1       4.428   4.967  17.851  0.00  0.00    +0.000 N 
ENDROOT
BRANCH   1   2
ATOM      2  C   UNL     1       3.686   6.137  18.253  0.00  0.00    +0.000 A 
ATOM      3  C   UNL     1       3.057   6.121  19.501  0.00  0.00    +0.000 A 
ATOM      4  C   UNL     1       2.199   7.165  19.866  0.00  0.00    +0.000 A 
ATOM      5  C   UNL     1       1.969   8.234  18.993  0.00  0.00    +0.000 A 
ATOM      6  C   UNL     1       0.987   9.322  19.318  0.00  0.00    +0.000 C 
ATOM      7  C   UNL     1       2.626   8.258  17.761  0.00  0.00    +0.000 A 
ATOM      8  C   UNL     1       3.454   7.202  17.381  0.00  0.00    +0.000 A 
ENDBRANCH   1   2
BRANCH   1   9
ATOM      9  S   UNL     1       3.417   3.607  17.563  0.00  0.00    +0.000 S 
ATOM     10  O   UNL     1       2.314   4.000  16.708  0.00  0.00    +0.000 OA
ATOM     11  O   UNL     1       4.301   2.524  17.178  0.00  0.00    +0.000 OA
BRANCH   9  12
ATOM     12  C   UNL     1       2.661   3.112  19.061  0.00  0.00    +0.000 A 
ATOM     13  C   UNL     1       3.420   2.740  20.165  0.00  0.00    +0.000 A 
ATOM     14  C   UNL     1       4.882   2.399  20.126  0.00  0.00    +0.000 C 
ATOM     15  N   UNL     1       2.847   2.514  21.381  0.00  0.00    +0.000 NA
ATOM     16  C   UNL     1       1.521   2.613  21.435  0.00  0.00    +0.000 A 
ATOM     17  N   UNL     1       0.696   2.837  20.421  0.00  0.00    +0.000 NA
ATOM     18  C   UNL     1       1.307   3.063  19.251  0.00  0.00    +0.000 A 
BRANCH  16  19
ATOM     19  O   UNL     1       0.983   2.491  22.674  0.00  0.00    +0.000 OA
ATOM     20  H   UNL     1       0.218   1.935  22.458  0.00  0.00    +0.000 HD
ENDBRANCH  16  19
BRANCH  18  21
ATOM     21  O   UNL     1       0.401   3.163  18.258  0.00  0.00    +0.000 OA
ATOM     22  H   UNL     1       0.832   2.630  17.562  0.00  0.00    +0.000 HD
ENDBRANCH  18  21
ENDBRANCH   9  12
ENDBRANCH   1   9
BRANCH   1  23
ATOM     23  C   UNL     1       5.613   5.134  16.937  0.00  0.00    +0.000 C 
ATOM     24  C   UNL     1       5.350   4.453  15.585  0.00  0.00    +0.000 C 
BRANCH  23  25
ATOM     25  C   UNL     1       6.967   4.621  17.404  0.00  0.00    +0.000 C 
ATOM     26  O   UNL     1       7.900   4.328  16.665  0.00  0.00    +0.000 OA
BRANCH  25  28
ATOM     27  C   UNL     1       7.824   5.736  19.282  0.00  0.00    +0.000 C 
ATOM     28  O   UNL     1       7.061   4.640  18.765  0.00  0.00    +0.000 OA
ENDBRANCH  25  28
ENDBRANCH  23  25
ENDBRANCH   1  23
TORSDOF 8
ENDMDL
MODEL 2
REMARK VINA RESULT:      -7.6      1.668      5.346
REMARK  Name = 
REMARK  12 active torsions:
REMARK  status: ('A' for Active; 'I' for Inactive)
REMARK    1  A    between atoms: C_1  and  O_2
REMARK    2  A    between atoms: O_2  and  C_3
REMARK    3  A    between atoms: C_3  and  C_5
REMARK    4  A    between atoms: C_5  and  C_6
REMARK    5  A    between atoms: C_5  and  N_7
REMARK    6  A    between atoms: N_7  and  C_8
REMARK    7  A    between atoms: N_7  and  S_15
REMARK    8  A    between atoms: C_11  and  C_12
REMARK    9  A    between atoms: S_15  and  C_18
REMARK   10  A    between atoms: C_19  and  C_20
REMARK   11  A    between atoms: C_22  and  O_23
REMARK   12  A    between atoms: C_25  and  O_26
REMARK                            x       y       z     vdW  Elec       q    Type
REMARK                         _______ _______ _______ _____ _____    ______ ____
ROOT
ATOM      1  N   UNL     1       3.355   4.414  18.822  0.00  0.00    +0.000 N 
ENDROOT
BRANCH   1   2
ATOM      2  C   UNL     1       2.671   5.664  19.047  0.00  0.00    +0.000 A 
ATOM      3  C   UNL     1       2.608   6.580  17.994  0.00  0.00    +0.000 A 
ATOM      4  C   UNL     1       2.096   7.864  18.213  0.00  0.00    +0.000 A 
ATOM      5  C   UNL     1       1.636   8.240  19.480  0.00  0.00    +0.000 A 
ATOM      6  C   UNL     1       1.165   9.635  19.767  0.00  0.00    +0.000 C 
ATOM      7  C   UNL     1       1.673   7.307  20.519  0.00  0.00    +0.000 A 
ATOM      8  C   UNL     1       2.215   6.039  20.312  0.00  0.00    +0.000 A 
ENDBRANCH   1   2
BRANCH   1   9
ATOM      9  S   UNL     1       5.064   4.564  18.925  0.00  0.00    +0.000 S 
ATOM     10  O   UNL     1       5.397   5.742  19.704  0.00  0.00    +0.000 OA
ATOM     11  O   UNL     1       5.560   3.259  19.313  0.00  0.00    +0.000 OA
BRANCH   9  12
ATOM     12  C   UNL     1       5.721   4.884  17.336  0.00  0.00    +0.000 A 
ATOM     13  C   UNL     1       6.897   5.607  17.172  0.00  0.00    +0.000 A 
ATOM     14  C   UNL     1       7.540   6.454  18.234  0.00  0.00    +0.000 C 
ATOM     15  N   UNL     1       7.502   5.719  15.957  0.00  0.00    +0.000 NA
ATOM     16  C   UNL     1       6.875   5.148  14.931  0.00  0.00    +0.000 A 
ATOM     17  N   UNL     1       5.692   4.547  14.954  0.00  0.00    +0.000 NA
ATOM     18  C   UNL     1       5.144   4.453  16.173  0.00  0.00    +0.000 A 
BRANCH  16  19
ATOM     19  O   UNL     1       7.547   5.179  13.753  0.00  0.00    +0.000 OA
ATOM     20  H   UNL     1       8.415   5.470  14.076  0.00  0.00    +0.000 HD
ENDBRANCH  16  19
BRANCH  18  21
ATOM     21  O   UNL     1       3.902   3.938  16.091  0.00  0.00    +0.000 OA
ATOM     22  H   UNL     1       4.028   3.079  16.537  0.00  0.00    +0.000 HD
ENDBRANCH  18  21
ENDBRANCH   9  12
ENDBRANCH   1   9
BRANCH   1  23
ATOM     23  C   UNL     1       2.754   3.145  19.366  0.00  0.00    +0.000 C 
ATOM     24  C   UNL     1       3.305   1.924  18.614  0.00  0.00    +0.000 C 
BRANCH  23  25
ATOM     25  C   UNL     1       1.240   2.994  19.349  0.00  0.00    +0.000 C 
ATOM     26  O   UNL     1       0.571   2.731  18.355  0.00  0.00    +0.000 OA
BRANCH  25  28
ATOM     27  C   UNL     1       1.624   2.650  21.638  0.00  0.00    +0.000 C 
ATOM     28  O   UNL     1       0.721   3.068  20.608  0.00  0.00    +0.000 OA
ENDBRANCH  25  28
ENDBRANCH  23  25
ENDBRANCH   1  23
TORSDOF 8
ENDMDL
MODEL 3
REMARK VINA RESULT:      -7.6      2.011      5.398
REMARK  Name = 
REMARK  12 active torsions:
REMARK  status: ('A' for Active; 'I' for Inactive)
REMARK    1  A    between atoms: C_1  and  O_2
REMARK    2  A    between atoms: O_2  and  C_3
REMARK    3  A    between atoms: C_3  and  C_5
REMARK    4  A    between atoms: C_5  and  C_6
REMARK    5  A    between atoms: C_5  and  N_7
REMARK    6  A    between atoms: N_7  and  C_8
REMARK    7  A    between atoms: N_7  and  S_15
REMARK    8  A    between atoms: C_11  and  C_12
REMARK    9  A    between atoms: S_15  and  C_18
REMARK   10  A    between atoms: C_19  and  C_20
REMARK   11  A    between atoms: C_22  and  O_23
REMARK   12  A    between atoms: C_25  and  O_26
REMARK                            x       y       z     vdW  Elec       q    Type
REMARK                         _______ _______ _______ _____ _____    ______ ____
ROOT
ATOM      1  N   UNL     1       3.260   5.027  18.574  0.00  0.00    +0.000 N 
ENDROOT
BRANCH   1   2
ATOM      2  C   UNL     1       2.843   6.401  18.714  0.00  0.00    +0.000 A 
ATOM      3  C   UNL     1       2.290   6.801  19.932  0.00  0.00    +0.000 A 
ATOM      4  C   UNL     1       1.728   8.077  20.061  0.00  0.00    +0.000 A 
ATOM      5  C   UNL     1       1.723   8.964  18.979  0.00  0.00    +0.000 A 
ATOM      6  C   UNL     1       1.051  10.303  19.059  0.00  0.00    +0.000 C 
ATOM      7  C   UNL     1       2.307   8.567  17.774  0.00  0.00    +0.000 A 
ATOM      8  C   UNL     1       2.836   7.285  17.633  0.00  0.00    +0.000 A 
ENDBRANCH   1   2
BRANCH   1   9
ATOM      9  S   UNL     1       4.926   4.800  18.930  0.00  0.00    +0.000 S 
ATOM     10  O   UNL     1       5.406   5.917  19.722  0.00  0.00    +0.000 OA
ATOM     11  O   UNL     1       5.052   3.441  19.418  0.00  0.00    +0.000 OA
BRANCH   9  12
ATOM     12  C   UNL     1       5.857   4.876  17.450  0.00  0.00    +0.000 A 
ATOM     13  C   UNL     1       5.479   4.157  16.322  0.00  0.00    +0.000 A 
ATOM     14  C   UNL     1       4.491   3.025  16.315  0.00  0.00    +0.000 C 
ATOM     15  N   UNL     1       6.098   4.337  15.121  0.00  0.00    +0.000 NA
ATOM     16  C   UNL     1       7.117   5.193  15.106  0.00  0.00    +0.000 A 
ATOM     17  N   UNL     1       7.637   5.833  16.146  0.00  0.00    +0.000 NA
ATOM     18  C   UNL     1       6.988   5.631  17.300  0.00  0.00    +0.000 A 
BRANCH  16  19
ATOM     19  O   UNL     1       7.648   5.438  13.882  0.00  0.00    +0.000 OA
ATOM     20  H   UNL     1       7.469   6.390  13.822  0.00  0.00    +0.000 HD
ENDBRANCH  16  19
BRANCH  18  21
ATOM     21  O   UNL     1       7.646   6.217  18.319  0.00  0.00    +0.000 OA
ATOM     22  H   UNL     1       8.372   5.580  18.459  0.00  0.00    +0.000 HD
ENDBRANCH  18  21
ENDBRANCH   9  12
ENDBRANCH   1   9
BRANCH   1  23
ATOM     23  C   UNL     1       2.321   3.933  19.007  0.00  0.00    +0.000 C 
ATOM     24  C   UNL     1       1.222   3.720  17.955  0.00  0.00    +0.000 C 
BRANCH  23  25
ATOM     25  C   UNL     1       1.598   4.081  20.338  0.00  0.00    +0.000 C 
ATOM     26  O   UNL     1       0.399   4.304  20.465  0.00  0.00    +0.000 OA
BRANCH  25  28
ATOM     27  C   UNL     1       2.507   2.426  21.731  0.00  0.00    +0.000 C 
ATOM     28  O   UNL     1       2.430   3.814  21.385  0.00  0.00    +0.000 OA
ENDBRANCH  25  28
ENDBRANCH  23  25
ENDBRANCH   1  23
TORSDOF 8
ENDMDL
MODEL 4
REMARK VINA RESULT:      -7.5      2.127      5.327
REMARK  Name = 
REMARK  12 active torsions:
REMARK  status: ('A' for Active; 'I' for Inactive)
REMARK    1  A    between atoms: C_1  and  O_2
REMARK    2  A    between atoms: O_2  and  C_3
REMARK    3  A    between atoms: C_3  and  C_5
REMARK    4  A    between atoms: C_5  and  C_6
REMARK    5  A    between atoms: C_5  and  N_7
REMARK    6  A    between atoms: N_7  and  C_8
REMARK    7  A    between atoms: N_7  and  S_15
REMARK    8  A    between atoms: C_11  and  C_12
REMARK    9  A    between atoms: S_15  and  C_18
REMARK   10  A    between atoms: C_19  and  C_20
REMARK   11  A    between atoms: C_22  and  O_23
REMARK   12  A    between atoms: C_25  and  O_26
REMARK                            x       y       z     vdW  Elec       q    Type
REMARK                         _______ _______ _______ _____ _____    ______ ____
ROOT
ATOM      1  N   UNL     1       3.549   4.752  17.762  0.00  0.00    +0.000 N 
ENDROOT
BRANCH   1   2
ATOM      2  C   UNL     1       3.080   5.783  18.655  0.00  0.00    +0.000 A 
ATOM      3  C   UNL     1       2.727   5.418  19.956  0.00  0.00    +0.000 A 
ATOM      4  C   UNL     1       2.120   6.350  20.805  0.00  0.00    +0.000 A 
ATOM      5  C   UNL     1       1.869   7.654  20.365  0.00  0.00    +0.000 A 
ATOM      6  C   UNL     1       1.141   8.650  21.219  0.00  0.00    +0.000 C 
ATOM      7  C   UNL     1       2.254   8.020  19.072  0.00  0.00    +0.000 A 
ATOM      8  C   UNL     1       2.827   7.083  18.214  0.00  0.00    +0.000 A 
ENDBRANCH   1   2
BRANCH   1   9
ATOM      9  S   UNL     1       5.169   4.278  18.088  0.00  0.00    +0.000 S 
ATOM     10  O   UNL     1       5.289   3.908  19.485  0.00  0.00    +0.000 OA
ATOM     11  O   UNL     1       5.532   3.341  17.042  0.00  0.00    +0.000 OA
BRANCH   9  12
ATOM     12  C   UNL     1       6.231   5.655  17.901  0.00  0.00    +0.000 A 
ATOM     13  C   UNL     1       6.069   6.556  16.855  0.00  0.00    +0.000 A 
ATOM     14  C   UNL     1       5.240   6.306  15.626  0.00  0.00    +0.000 C 
ATOM     15  N   UNL     1       6.781   7.716  16.795  0.00  0.00    +0.000 NA
ATOM     16  C   UNL     1       7.678   7.907  17.760  0.00  0.00    +0.000 A 
ATOM     17  N   UNL     1       8.001   7.059  18.729  0.00  0.00    +0.000 NA
ATOM     18  C   UNL     1       7.265   5.940  18.751  0.00  0.00    +0.000 A 
BRANCH  16  19
ATOM     19  O   UNL     1       8.298   9.113  17.742  0.00  0.00    +0.000 OA
ATOM     20  H   UNL     1       7.556   9.675  18.019  0.00  0.00    +0.000 HD
ENDBRANCH  16  19
BRANCH  18  21
ATOM     21  O   UNL     1       7.732   5.088  19.684  0.00  0.00    +0.000 OA
ATOM     22  H   UNL     1       6.928   4.941  20.218  0.00  0.00    +0.000 HD
ENDBRANCH  18  21
ENDBRANCH   9  12
ENDBRANCH   1   9
BRANCH   1  23
ATOM     23  C   UNL     1       2.597   3.663  17.341  0.00  0.00    +0.000 C 
ATOM     24  C   UNL     1       1.179   4.226  17.167  0.00  0.00    +0.000 C 
BRANCH  23  25
ATOM     25  C   UNL     1       2.451   2.441  18.236  0.00  0.00    +0.000 C 
ATOM     26  O   UNL     1       1.610   2.314  19.119  0.00  0.00    +0.000 OA
BRANCH  25  28
ATOM     27  C   UNL     1       3.996   0.823  18.942  0.00  0.00    +0.000 C 
ATOM     28  O   UNL     1       3.301   1.444  17.856  0.00  0.00    +0.000 OA
ENDBRANCH  25  28
ENDBRANCH  23  25
ENDBRANCH   1  23
TORSDOF 8
ENDMDL
MODEL 5
REMARK VINA RESULT:      -7.5      1.014      1.728
REMARK  Name = 
REMARK  12 active torsions:
REMARK  status: ('A' for Active; 'I' for Inactive)
REMARK    1  A    between atoms: C_1  and  O_2
REMARK    2  A    between atoms: O_2  and  C_3
REMARK    3  A    between atoms: C_3  and  C_5
REMARK    4  A    between atoms: C_5  and  C_6
REMARK    5  A    between atoms: C_5  and  N_7
REMARK    6  A    between atoms: N_7  and  C_8
REMARK    7  A    between atoms: N_7  and  S_15
REMARK    8  A    between atoms: C_11  and  C_12
REMARK    9  A    between atoms: S_15  and  C_18
REMARK   10  A    between atoms: C_19  and  C_20
REMARK   11  A    between atoms: C_22  and  O_23
REMARK   12  A    between atoms: C_25  and  O_26
REMARK                            x       y       z     vdW  Elec       q    Type
REMARK                         _______ _______ _______ _____ _____    ______ ____
ROOT
ATOM      1  N   UNL     1       4.700   4.467  18.070  0.00  0.00    +0.000 N 
ENDROOT
BRANCH   1   2
ATOM      2  C   UNL     1       4.039   5.743  18.194  0.00  0.00    +0.000 A 
ATOM      3  C   UNL     1       3.252   5.970  19.325  0.00  0.00    +0.000 A 
ATOM      4  C   UNL     1       2.468   7.127  19.413  0.00  0.00    +0.000 A 
ATOM      5  C   UNL     1       2.471   8.067  18.377  0.00  0.00    +0.000 A 
ATOM      6  C   UNL     1       1.576   9.271  18.400  0.00  0.00    +0.000 C 
ATOM      7  C   UNL     1       3.286   7.847  17.263  0.00  0.00    +0.000 A 
ATOM      8  C   UNL     1       4.040   6.679  17.159  0.00  0.00    +0.000 A 
ENDBRANCH   1   2
BRANCH   1   9
ATOM      9  S   UNL     1       3.601   3.175  17.786  0.00  0.00    +0.000 S 
ATOM     10  O   UNL     1       2.576   3.611  16.857  0.00  0.00    +0.000 OA
ATOM     11  O   UNL     1       4.415   2.012  17.496  0.00  0.00    +0.000 OA
BRANCH   9  12
ATOM     12  C   UNL     1       2.735   2.810  19.262  0.00  0.00    +0.000 A 
ATOM     13  C   UNL     1       3.408   2.507  20.439  0.00  0.00    +0.000 A 
ATOM     14  C   UNL     1       4.861   2.136  20.527  0.00  0.00    +0.000 C 
ATOM     15  N   UNL     1       2.750   2.385  21.626  0.00  0.00    +0.000 NA
ATOM     16  C   UNL     1       1.426   2.514  21.582  0.00  0.00    +0.000 A 
ATOM     17  N   UNL     1       0.676   2.676  20.499  0.00  0.00    +0.000 NA
ATOM     18  C   UNL     1       1.370   2.802  19.360  0.00  0.00    +0.000 A 
BRANCH  16  19
ATOM     19  O   UNL     1       0.803   2.496  22.787  0.00  0.00    +0.000 OA
ATOM     20  H   UNL     1       1.328   1.807  23.224  0.00  0.00    +0.000 HD
ENDBRANCH  16  19
BRANCH  18  21
ATOM     21  O   UNL     1       0.535   2.844  18.303  0.00  0.00    +0.000 OA
ATOM     22  H   UNL     1       1.067   2.377  17.631  0.00  0.00    +0.000 HD
ENDBRANCH  18  21
ENDBRANCH   9  12
ENDBRANCH   1   9
BRANCH   1  23
ATOM     23  C   UNL     1       6.024   4.397  17.355  0.00  0.00    +0.000 C 
ATOM     24  C   UNL     1       7.109   5.124  18.163  0.00  0.00    +0.000 C 
BRANCH  23  25
ATOM     25  C   UNL     1       6.116   4.954  15.942  0.00  0.00    +0.000 C 
ATOM     26  O   UNL     1       6.831   5.889  15.601  0.00  0.00    +0.000 OA
BRANCH  25  28
ATOM     27  C   UNL     1       6.068   3.914  13.839  0.00  0.00    +0.000 C 
ATOM     28  O   UNL     1       5.388   4.203  15.066  0.00  0.00    +0.000 OA
ENDBRANCH  25  28
ENDBRANCH  23  25
ENDBRANCH   1  23
TORSDOF 8
ENDMDL
MODEL 6
REMARK VINA RESULT:      -7.5      1.956      5.365
REMARK  Name = 
REMARK  12 active torsions:
REMARK  status: ('A' for Active; 'I' for Inactive)
REMARK    1  A    between atoms: C_1  and  O_2
REMARK    2  A    between atoms: O_2  and  C_3
REMARK    3  A    between atoms: C_3  and  C_5
REMARK    4  A    between atoms: C_5  and  C_6
REMARK    5  A    between atoms: C_5  and  N_7
REMARK    6  A    between atoms: N_7  and  C_8
REMARK    7  A    between atoms: N_7  and  S_15
REMARK    8  A    between atoms: C_11  and  C_12
REMARK    9  A    between atoms: S_15  and  C_18
REMARK   10  A    between atoms: C_19  and  C_20
REMARK   11  A    between atoms: C_22  and  O_23
REMARK   12  A    between atoms: C_25  and  O_26
REMARK                            x       y       z     vdW  Elec       q    Type
REMARK                         _______ _______ _______ _____ _____    ______ ____
ROOT
ATOM      1  N   UNL     1       3.231   4.803  18.340  0.00  0.00    +0.000 N 
ENDROOT
BRANCH   1   2
ATOM      2  C   UNL     1       2.776   6.050  18.906  0.00  0.00    +0.000 A 
ATOM      3  C   UNL     1       2.272   6.038  20.208  0.00  0.00    +0.000 A 
ATOM      4  C   UNL     1       1.676   7.188  20.739  0.00  0.00    +0.000 A 
ATOM      5  C   UNL     1       1.587   8.358  19.978  0.00  0.00    +0.000 A 
ATOM      6  C   UNL     1       0.876   9.578  20.485  0.00  0.00    +0.000 C 
ATOM      7  C   UNL     1       2.122   8.370  18.687  0.00  0.00    +0.000 A 
ATOM      8  C   UNL     1       2.685   7.216  18.144  0.00  0.00    +0.000 A 
ENDBRANCH   1   2
BRANCH   1   9
ATOM      9  S   UNL     1       4.798   4.358  18.888  0.00  0.00    +0.000 S 
ATOM     10  O   UNL     1       4.859   4.492  20.331  0.00  0.00    +0.000 OA
ATOM     11  O   UNL     1       5.103   3.092  18.250  0.00  0.00    +0.000 OA
BRANCH   9  12
ATOM     12  C   UNL     1       5.975   5.504  18.287  0.00  0.00    +0.000 A 
ATOM     13  C   UNL     1       5.869   6.048  17.013  0.00  0.00    +0.000 A 
ATOM     14  C   UNL     1       4.991   5.509  15.919  0.00  0.00    +0.000 C 
ATOM     15  N   UNL     1       6.682   7.060  16.599  0.00  0.00    +0.000 NA
ATOM     16  C   UNL     1       7.616   7.455  17.461  0.00  0.00    +0.000 A 
ATOM     17  N   UNL     1       7.885   6.922  18.646  0.00  0.00    +0.000 NA
ATOM     18  C   UNL     1       7.052   5.939  19.011  0.00  0.00    +0.000 A 
BRANCH  16  19
ATOM     19  O   UNL     1       8.342   8.533  17.072  0.00  0.00    +0.000 OA
ATOM     20  H   UNL     1       9.085   8.076  16.647  0.00  0.00    +0.000 HD
ENDBRANCH  16  19
BRANCH  18  21
ATOM     21  O   UNL     1       7.464   5.378  20.164  0.00  0.00    +0.000 OA
ATOM     22  H   UNL     1       7.319   4.432  19.971  0.00  0.00    +0.000 HD
ENDBRANCH  18  21
ENDBRANCH   9  12
ENDBRANCH   1   9
BRANCH   1  23
ATOM     23  C   UNL     1       2.239   3.685  18.147  0.00  0.00    +0.000 C 
ATOM     24  C   UNL     1       1.103   4.130  17.214  0.00  0.00    +0.000 C 
BRANCH  23  25
ATOM     25  C   UNL     1       1.561   3.097  19.375  0.00  0.00    +0.000 C 
ATOM     26  O   UNL     1       0.360   3.157  19.611  0.00  0.00    +0.000 OA
BRANCH  25  28
ATOM     27  C   UNL     1       2.266   2.542  21.544  0.00  0.00    +0.000 C 
ATOM     28  O   UNL     1       2.443   2.381  20.132  0.00  0.00    +0.000 OA
ENDBRANCH  25  28
ENDBRANCH  23  25
ENDBRANCH   1  23
TORSDOF 8
ENDMDL
MODEL 7
REMARK VINA RESULT:      -7.4      1.885      5.316
REMARK  Name = 
REMARK  12 active torsions:
REMARK  status: ('A' for Active; 'I' for Inactive)
REMARK    1  A    between atoms: C_1  and  O_2
REMARK    2  A    between atoms: O_2  and  C_3
REMARK    3  A    between atoms: C_3  and  C_5
REMARK    4  A    between atoms: C_5  and  C_6
REMARK    5  A    between atoms: C_5  and  N_7
REMARK    6  A    between atoms: N_7  and  C_8
REMARK    7  A    between atoms: N_7  and  S_15
REMARK    8  A    between atoms: C_11  and  C_12
REMARK    9  A    between atoms: S_15  and  C_18
REMARK   10  A    between atoms: C_19  and  C_20
REMARK   11  A    between atoms: C_22  and  O_23
REMARK   12  A    between atoms: C_25  and  O_26
REMARK                            x       y       z     vdW  Elec       q    Type
REMARK                         _______ _______ _______ _____ _____    ______ ____
ROOT
ATOM      1  N   UNL     1       3.593   4.630  18.739  0.00  0.00    +0.000 N 
ENDROOT
BRANCH   1   2
ATOM      2  C   UNL     1       3.112   5.985  18.853  0.00  0.00    +0.000 A 
ATOM      3  C   UNL     1       2.437   6.349  20.020  0.00  0.00    +0.000 A 
ATOM      4  C   UNL     1       1.815   7.601  20.109  0.00  0.00    +0.000 A 
ATOM      5  C   UNL     1       1.871   8.499  19.038  0.00  0.00    +0.000 A 
ATOM      6  C   UNL     1       1.142   9.810  19.068  0.00  0.00    +0.000 C 
ATOM      7  C   UNL     1       2.575   8.139  17.886  0.00  0.00    +0.000 A 
ATOM      8  C   UNL     1       3.165   6.880  17.783  0.00  0.00    +0.000 A 
ENDBRANCH   1   2
BRANCH   1   9
ATOM      9  S   UNL     1       5.306   4.525  18.835  0.00  0.00    +0.000 S 
ATOM     10  O   UNL     1       5.810   5.611  19.654  0.00  0.00    +0.000 OA
ATOM     11  O   UNL     1       5.606   3.147  19.169  0.00  0.00    +0.000 OA
BRANCH   9  12
ATOM     12  C   UNL     1       5.999   4.806  17.253  0.00  0.00    +0.000 A 
ATOM     13  C   UNL     1       6.750   5.945  16.985  0.00  0.00    +0.000 A 
ATOM     14  C   UNL     1       6.781   7.176  17.847  0.00  0.00    +0.000 C 
ATOM     15  N   UNL     1       7.428   6.093  15.813  0.00  0.00    +0.000 NA
ATOM     16  C   UNL     1       7.285   5.115  14.922  0.00  0.00    +0.000 A 
ATOM     17  N   UNL     1       6.497   4.051  15.024  0.00  0.00    +0.000 NA
ATOM     18  C   UNL     1       5.861   3.946  16.197  0.00  0.00    +0.000 A 
BRANCH  16  19
ATOM     19  O   UNL     1       8.052   5.230  13.809  0.00  0.00    +0.000 OA
ATOM     20  H   UNL     1       8.723   4.558  14.012  0.00  0.00    +0.000 HD
ENDBRANCH  16  19
BRANCH  18  21
ATOM     21  O   UNL     1       4.999   2.911  16.174  0.00  0.00    +0.000 OA
ATOM     22  H   UNL     1       5.526   2.222  16.621  0.00  0.00    +0.000 HD
ENDBRANCH  18  21
ENDBRANCH   9  12
ENDBRANCH   1   9
BRANCH   1  23
ATOM     23  C   UNL     1       2.810   3.521  19.391  0.00  0.00    +0.000 C 
ATOM     24  C   UNL     1       3.585   2.947  20.586  0.00  0.00    +0.000 C 
BRANCH  23  25
ATOM     25  C   UNL     1       2.408   2.323  18.543  0.00  0.00    +0.000 C 
ATOM     26  O   UNL     1       3.183   1.631  17.892  0.00  0.00    +0.000 OA
BRANCH  25  28
ATOM     27  C   UNL     1       0.332   3.059  19.353  0.00  0.00    +0.000 C 
ATOM     28  O   UNL     1       1.083   2.034  18.692  0.00  0.00    +0.000 OA
ENDBRANCH  25  28
ENDBRANCH  23  25
ENDBRANCH   1  23
TORSDOF 8
ENDMDL
MODEL 8
REMARK VINA RESULT:      -7.2      1.969      5.356
REMARK  Name = 
REMARK  12 active torsions:
REMARK  status: ('A' for Active; 'I' for Inactive)
REMARK    1  A    between atoms: C_1  and  O_2
REMARK    2  A    between atoms: O_2  and  C_3
REMARK    3  A    between atoms: C_3  and  C_5
REMARK    4  A    between atoms: C_5  and  C_6
REMARK    5  A    between atoms: C_5  and  N_7
REMARK    6  A    between atoms: N_7  and  C_8
REMARK    7  A    between atoms: N_7  and  S_15
REMARK    8  A    between atoms: C_11  and  C_12
REMARK    9  A    between atoms: S_15  and  C_18
REMARK   10  A    between atoms: C_19  and  C_20
REMARK   11  A    between atoms: C_22  and  O_23
REMARK   12  A    between atoms: C_25  and  O_26
REMARK                            x       y       z     vdW  Elec       q    Type
REMARK                         _______ _______ _______ _____ _____    ______ ____
ROOT
ATOM      1  N   UNL     1       3.272   4.957  18.502  0.00  0.00    +0.000 N 
ENDROOT
BRANCH   1   2
ATOM      2  C   UNL     1       2.833   6.312  18.727  0.00  0.00    +0.000 A 
ATOM      3  C   UNL     1       2.378   6.654  20.002  0.00  0.00    +0.000 A 
ATOM      4  C   UNL     1       1.796   7.908  20.226  0.00  0.00    +0.000 A 
ATOM      5  C   UNL     1       1.672   8.830  19.181  0.00  0.00    +0.000 A 
ATOM      6  C   UNL     1       0.974  10.145  19.367  0.00  0.00    +0.000 C 
ATOM      7  C   UNL     1       2.159   8.492  17.916  0.00  0.00    +0.000 A 
ATOM      8  C   UNL     1       2.707   7.231  17.683  0.00  0.00    +0.000 A 
ENDBRANCH   1   2
BRANCH   1   9
ATOM      9  S   UNL     1       4.959   4.754  18.764  0.00  0.00    +0.000 S 
ATOM     10  O   UNL     1       5.450   5.837  19.594  0.00  0.00    +0.000 OA
ATOM     11  O   UNL     1       5.139   3.373  19.168  0.00  0.00    +0.000 OA
BRANCH   9  12
ATOM     12  C   UNL     1       5.813   4.935  17.248  0.00  0.00    +0.000 A 
ATOM     13  C   UNL     1       6.509   6.100  16.946  0.00  0.00    +0.000 A 
ATOM     14  C   UNL     1       6.351   7.407  17.670  0.00  0.00    +0.000 C 
ATOM     15  N   UNL     1       7.310   6.187  15.848  0.00  0.00    +0.000 NA
ATOM     16  C   UNL     1       7.342   5.119  15.055  0.00  0.00    +0.000 A 
ATOM     17  N   UNL     1       6.624   4.010  15.181  0.00  0.00    +0.000 NA
ATOM     18  C   UNL     1       5.861   3.968  16.281  0.00  0.00    +0.000 A 
BRANCH  16  19
ATOM     19  O   UNL     1       8.226   5.187  14.028  0.00  0.00    +0.000 OA
ATOM     20  H   UNL     1       8.897   4.567  14.358  0.00  0.00    +0.000 HD
ENDBRANCH  16  19
BRANCH  18  21
ATOM     21  O   UNL     1       5.082   2.869  16.272  0.00  0.00    +0.000 OA
ATOM     22  H   UNL     1       4.366   3.146  16.875  0.00  0.00    +0.000 HD
ENDBRANCH  18  21
ENDBRANCH   9  12
ENDBRANCH   1   9
BRANCH   1  23
ATOM     23  C   UNL     1       2.380   3.821  18.927  0.00  0.00    +0.000 C 
ATOM     24  C   UNL     1       1.278   3.583  17.884  0.00  0.00    +0.000 C 
BRANCH  23  25
ATOM     25  C   UNL     1       1.668   3.921  20.268  0.00  0.00    +0.000 C 
ATOM     26  O   UNL     1       0.493   4.238  20.417  0.00  0.00    +0.000 OA
BRANCH  25  28
ATOM     27  C   UNL     1       1.973   2.339  21.974  0.00  0.00    +0.000 C 
ATOM     28  O   UNL     1       2.468   3.493  21.287  0.00  0.00    +0.000 OA
ENDBRANCH  25  28
ENDBRANCH  23  25
ENDBRANCH   1  23
TORSDOF 8
ENDMDL
MODEL 9
REMARK VINA RESULT:      -7.2      1.812      5.373
REMARK  Name = 
REMARK  12 active torsions:
REMARK  status: ('A' for Active; 'I' for Inactive)
REMARK    1  A    between atoms: C_1  and  O_2
REMARK    2  A    between atoms: O_2  and  C_3
REMARK    3  A    between atoms: C_3  and  C_5
REMARK    4  A    between atoms: C_5  and  C_6
REMARK    5  A    between atoms: C_5  and  N_7
REMARK    6  A    between atoms: N_7  and  C_8
REMARK    7  A    between atoms: N_7  and  S_15
REMARK    8  A    between atoms: C_11  and  C_12
REMARK    9  A    between atoms: S_15  and  C_18
REMARK   10  A    between atoms: C_19  and  C_20
REMARK   11  A    between atoms: C_22  and  O_23
REMARK   12  A    between atoms: C_25  and  O_26
REMARK                            x       y       z     vdW  Elec       q    Type
REMARK                         _______ _______ _______ _____ _____    ______ ____
ROOT
ATOM      1  N   UNL     1       3.431   4.393  18.650  0.00  0.00    +0.000 N 
ENDROOT
BRANCH   1   2
ATOM      2  C   UNL     1       2.720   5.573  19.076  0.00  0.00    +0.000 A 
ATOM      3  C   UNL     1       2.666   6.661  18.202  0.00  0.00    +0.000 A 
ATOM      4  C   UNL     1       2.126   7.879  18.632  0.00  0.00    +0.000 A 
ATOM      5  C   UNL     1       1.628   8.016  19.933  0.00  0.00    +0.000 A 
ATOM      6  C   UNL     1       1.124   9.331  20.451  0.00  0.00    +0.000 C 
ATOM      7  C   UNL     1       1.656   6.913  20.790  0.00  0.00    +0.000 A 
ATOM      8  C   UNL     1       2.226   5.709  20.375  0.00  0.00    +0.000 A 
ENDBRANCH   1   2
BRANCH   1   9
ATOM      9  S   UNL     1       5.136   4.554  18.804  0.00  0.00    +0.000 S 
ATOM     10  O   UNL     1       5.437   5.706  19.632  0.00  0.00    +0.000 OA
ATOM     11  O   UNL     1       5.634   3.239  19.159  0.00  0.00    +0.000 OA
BRANCH   9  12
ATOM     12  C   UNL     1       5.831   4.935  17.245  0.00  0.00    +0.000 A 
ATOM     13  C   UNL     1       6.965   5.731  17.134  0.00  0.00    +0.000 A 
ATOM     14  C   UNL     1       7.514   6.601  18.230  0.00  0.00    +0.000 C 
ATOM     15  N   UNL     1       7.607   5.897  15.944  0.00  0.00    +0.000 NA
ATOM     16  C   UNL     1       7.056   5.302  14.889  0.00  0.00    +0.000 A 
ATOM     17  N   UNL     1       5.913   4.629  14.860  0.00  0.00    +0.000 NA
ATOM     18  C   UNL     1       5.326   4.485  16.056  0.00  0.00    +0.000 A 
BRANCH  16  19
ATOM     19  O   UNL     1       7.768   5.390  13.738  0.00  0.00    +0.000 OA
ATOM     20  H   UNL     1       8.654   5.523  14.113  0.00  0.00    +0.000 HD
ENDBRANCH  16  19
BRANCH  18  21
ATOM     21  O   UNL     1       4.122   3.896  15.920  0.00  0.00    +0.000 OA
ATOM     22  H   UNL     1       4.300   3.021  16.314  0.00  0.00    +0.000 HD
ENDBRANCH  18  21
ENDBRANCH   9  12
ENDBRANCH   1   9
BRANCH   1  23
ATOM     23  C   UNL     1       2.850   3.038  18.960  0.00  0.00    +0.000 C 
ATOM     24  C   UNL     1       1.453   2.898  18.336  0.00  0.00    +0.000 C 
BRANCH  23  25
ATOM     25  C   UNL     1       2.696   2.631  20.418  0.00  0.00    +0.000 C 
ATOM     26  O   UNL     1       3.616   2.537  21.222  0.00  0.00    +0.000 OA
BRANCH  25  28
ATOM     27  C   UNL     1       1.134   2.560  22.167  0.00  0.00    +0.000 C 
ATOM     28  O   UNL     1       1.381   2.498  20.758  0.00  0.00    +0.000 OA
ENDBRANCH  25  28
ENDBRANCH  23  25
ENDBRANCH   1  23
TORSDOF 8
ENDMDL
