MODEL 1
REMARK VINA RESULT:      -7.0      0.000      0.000
REMARK  Name = 
REMARK  9 active torsions:
REMARK  status: ('A' for Active; 'I' for Inactive)
REMARK    1  A    between atoms: C_2  and  C_3
REMARK    2  A    between atoms: C_3  and  C_4
REMARK    3  A    between atoms: C_4  and  N_5
REMARK    4  A    between atoms: N_5  and  C_6
REMARK    5  A    between atoms: N_5  and  C_9
REMARK    6  A    between atoms: C_6  and  C_7
REMARK    7  A    between atoms: C_7  and  O_8
REMARK    8  A    between atoms: C_9  and  C_10
REMARK    9  A    between atoms: N_16  and  C_17
REMARK                            x       y       z     vdW  Elec       q    Type
REMARK                         _______ _______ _______ _____ _____    ______ ____
ROOT
ATOM      1  C   UNL     1       7.450   6.367  16.839  0.00  0.00    +0.000 C 
ENDROOT
BRANCH   1   2
ATOM      2  C   UNL     1       7.788   6.932  18.238  0.00  0.00    +0.000 C 
BRANCH   2   4
ATOM      3  O   UNL     1       7.466   9.140  17.458  0.00  0.00    +0.000 OA
ATOM      4  C   UNL     1       8.094   8.412  18.210  0.00  0.00    +0.000 C 
ATOM      5  N   UNL     1       9.050   8.913  19.052  0.00  0.00    +0.000 N 
ATOM      6  H   UNL     1       9.580   8.223  19.609  0.00  0.00    +0.000 HD
BRANCH   5   7
ATOM      7  C   UNL     1       9.367  10.297  19.269  0.00  0.00    +0.000 A 
ATOM      8  C   UNL     1       9.322  10.924  20.540  0.00  0.00    +0.000 A 
ATOM      9  C   UNL     1       9.683  12.262  20.688  0.00  0.00    +0.000 A 
ATOM     10  C   UNL     1      10.096  13.009  19.587  0.00  0.00    +0.000 A 
ATOM     11 BR   UNL     1      10.594  14.840  19.810  0.00  0.00    +0.000 Br
ATOM     12  C   UNL     1      10.151  12.413  18.324  0.00  0.00    +0.000 A 
ATOM     13  C   UNL     1       9.797  11.067  18.169  0.00  0.00    +0.000 A 
ENDBRANCH   5   7
ENDBRANCH   2   4
ENDBRANCH   1   2
BRANCH   1  14
ATOM     14  N   UNL     1       6.040   5.916  16.681  0.00  0.00    +0.000 NA
BRANCH  14  15
ATOM     15  C   UNL     1       5.749   5.436  15.303  0.00  0.00    +0.000 C 
BRANCH  15  16
ATOM     16  C   UNL     1       6.783   4.433  14.775  0.00  0.00    +0.000 C 
BRANCH  16  17
ATOM     17  O   UNL     1       6.165   3.459  13.979  0.00  0.00    +0.000 OA
ATOM     18  H   UNL     1       6.068   3.852  13.074  0.00  0.00    +0.000 HD
ENDBRANCH  16  17
ENDBRANCH  15  16
ENDBRANCH  14  15
BRANCH  14  19
ATOM     19  C   UNL     1       5.713   4.906  17.731  0.00  0.00    +0.000 C 
BRANCH  19  20
ATOM     20  C   UNL     1       4.242   4.519  17.778  0.00  0.00    +0.000 A 
ATOM     21  C   UNL     1       3.849   3.190  17.538  0.00  0.00    +0.000 A 
ATOM     22  C   UNL     1       2.494   2.840  17.543  0.00  0.00    +0.000 A 
ATOM     23  C   UNL     1       1.521   3.808  17.799  0.00  0.00    +0.000 A 
ATOM     24  C   UNL     1       1.901   5.126  18.060  0.00  0.00    +0.000 A 
ATOM     25  C   UNL     1       3.251   5.480  18.052  0.00  0.00    +0.000 A 
ENDBRANCH  19  20
ENDBRANCH  14  19
ENDBRANCH   1  14
TORSDOF 9
ENDMDL
MODEL 2
REMARK VINA RESULT:      -7.0      4.180      6.818
REMARK  Name = 
REMARK  9 active torsions:
REMARK  status: ('A' for Active; 'I' for Inactive)
REMARK    1  A    between atoms: C_2  and  C_3
REMARK    2  A    between atoms: C_3  and  C_4
REMARK    3  A    between atoms: C_4  and  N_5
REMARK    4  A    between atoms: N_5  and  C_6
REMARK    5  A    between atoms: N_5  and  C_9
REMARK    6  A    between atoms: C_6  and  C_7
REMARK    7  A    between atoms: C_7  and  O_8
REMARK    8  A    between atoms: C_9  and  C_10
REMARK    9  A    between atoms: N_16  and  C_17
REMARK                            x       y       z     vdW  Elec       q    Type
REMARK                         _______ _______ _______ _____ _____    ______ ____
ROOT
ATOM      1  C   UNL     1       5.227   4.394  17.591  0.00  0.00    +0.000 C 
ENDROOT
BRANCH   1   2
ATOM      2  C   UNL     1       3.774   4.002  17.233  0.00  0.00    +0.000 C 
BRANCH   2   4
ATOM      3  O   UNL     1       1.581   4.705  17.766  0.00  0.00    +0.000 OA
ATOM      4  C   UNL     1       2.762   5.013  17.720  0.00  0.00    +0.000 C 
ATOM      5  N   UNL     1       3.193   6.245  18.131  0.00  0.00    +0.000 N 
ATOM      6  H   UNL     1       4.197   6.449  18.000  0.00  0.00    +0.000 HD
BRANCH   5   7
ATOM      7  C   UNL     1       2.404   7.269  18.757  0.00  0.00    +0.000 A 
ATOM      8  C   UNL     1       2.078   7.277  20.138  0.00  0.00    +0.000 A 
ATOM      9  C   UNL     1       1.342   8.324  20.690  0.00  0.00    +0.000 A 
ATOM     10  C   UNL     1       0.914   9.384  19.895  0.00  0.00    +0.000 A 
ATOM     11 BR   UNL     1      -0.086  10.815  20.671  0.00  0.00    +0.000 Br
ATOM     12  C   UNL     1       1.225   9.401  18.532  0.00  0.00    +0.000 A 
ATOM     13  C   UNL     1       1.969   8.357  17.971  0.00  0.00    +0.000 A 
ENDBRANCH   5   7
ENDBRANCH   2   4
ENDBRANCH   1   2
BRANCH   1  14
ATOM     14  N   UNL     1       5.828   5.419  16.694  0.00  0.00    +0.000 NA
BRANCH  14  15
ATOM     15  C   UNL     1       6.040   6.722  17.382  0.00  0.00    +0.000 C 
BRANCH  15  16
ATOM     16  C   UNL     1       7.512   7.012  17.698  0.00  0.00    +0.000 C 
BRANCH  16  17
ATOM     17  O   UNL     1       7.908   8.232  17.133  0.00  0.00    +0.000 OA
ATOM     18  H   UNL     1       8.411   8.012  16.308  0.00  0.00    +0.000 HD
ENDBRANCH  16  17
ENDBRANCH  15  16
ENDBRANCH  14  15
BRANCH  14  19
ATOM     19  C   UNL     1       7.073   4.878  16.074  0.00  0.00    +0.000 C 
BRANCH  19  20
ATOM     20  C   UNL     1       6.955   4.620  14.578  0.00  0.00    +0.000 A 
ATOM     21  C   UNL     1       6.033   3.676  14.091  0.00  0.00    +0.000 A 
ATOM     22  C   UNL     1       5.950   3.410  12.719  0.00  0.00    +0.000 A 
ATOM     23  C   UNL     1       6.775   4.091  11.822  0.00  0.00    +0.000 A 
ATOM     24  C   UNL     1       7.678   5.046  12.292  0.00  0.00    +0.000 A 
ATOM     25  C   UNL     1       7.768   5.311  13.660  0.00  0.00    +0.000 A 
ENDBRANCH  19  20
ENDBRANCH  14  19
ENDBRANCH   1  14
TORSDOF 9
ENDMDL
MODEL 3
REMARK VINA RESULT:      -6.9      5.321      6.579
REMARK  Name = 
REMARK  9 active torsions:
REMARK  status: ('A' for Active; 'I' for Inactive)
REMARK    1  A    between atoms: C_2  and  C_3
REMARK    2  A    between atoms: C_3  and  C_4
REMARK    3  A    between atoms: C_4  and  N_5
REMARK    4  A    between atoms: N_5  and  C_6
REMARK    5  A    between atoms: N_5  and  C_9
REMARK    6  A    between atoms: C_6  and  C_7
REMARK    7  A    between atoms: C_7  and  O_8
REMARK    8  A    between atoms: C_9  and  C_10
REMARK    9  A    between atoms: N_16  and  C_17
REMARK                            x       y       z     vdW  Elec       q    Type
REMARK                         _______ _______ _______ _____ _____    ______ ____
ROOT
ATOM      1  C   UNL     1       4.139   5.799  18.141  0.00  0.00    +0.000 C 
ENDROOT
BRANCH   1   2
ATOM      2  C   UNL     1       3.832   7.195  17.552  0.00  0.00    +0.000 C 
BRANCH   2   4
ATOM      3  O   UNL     1       2.278   7.470  19.312  0.00  0.00    +0.000 OA
ATOM      4  C   UNL     1       2.647   7.859  18.215  0.00  0.00    +0.000 C 
ATOM      5  N   UNL     1       2.030   8.906  17.586  0.00  0.00    +0.000 N 
ATOM      6  H   UNL     1       2.361   9.131  16.634  0.00  0.00    +0.000 HD
BRANCH   5   7
ATOM      7  C   UNL     1       0.996   9.746  18.124  0.00  0.00    +0.000 A 
ATOM      8  C   UNL     1      -0.388   9.535  17.895  0.00  0.00    +0.000 A 
ATOM      9  C   UNL     1      -1.342  10.366  18.482  0.00  0.00    +0.000 A 
ATOM     10  C   UNL     1      -0.952  11.419  19.305  0.00  0.00    +0.000 A 
ATOM     11 BR   UNL     1      -2.273  12.542  20.106  0.00  0.00    +0.000 Br
ATOM     12  C   UNL     1       0.406  11.647  19.546  0.00  0.00    +0.000 A 
ATOM     13  C   UNL     1       1.369  10.813  18.967  0.00  0.00    +0.000 A 
ENDBRANCH   5   7
ENDBRANCH   2   4
ENDBRANCH   1   2
BRANCH   1  14
ATOM     14  N   UNL     1       4.101   4.689  17.150  0.00  0.00    +0.000 NA
BRANCH  14  15
ATOM     15  C   UNL     1       5.149   4.828  16.102  0.00  0.00    +0.000 C 
BRANCH  15  16
ATOM     16  C   UNL     1       6.569   4.935  16.671  0.00  0.00    +0.000 C 
BRANCH  16  17
ATOM     17  O   UNL     1       7.329   5.854  15.936  0.00  0.00    +0.000 OA
ATOM     18  H   UNL     1       7.046   6.757  16.233  0.00  0.00    +0.000 HD
ENDBRANCH  16  17
ENDBRANCH  15  16
ENDBRANCH  14  15
BRANCH  14  19
ATOM     19  C   UNL     1       4.156   3.377  17.859  0.00  0.00    +0.000 C 
BRANCH  19  20
ATOM     20  C   UNL     1       3.108   3.222  18.952  0.00  0.00    +0.000 A 
ATOM     21  C   UNL     1       1.742   3.385  18.654  0.00  0.00    +0.000 A 
ATOM     22  C   UNL     1       0.780   3.281  19.664  0.00  0.00    +0.000 A 
ATOM     23  C   UNL     1       1.168   3.002  20.977  0.00  0.00    +0.000 A 
ATOM     24  C   UNL     1       2.518   2.818  21.279  0.00  0.00    +0.000 A 
ATOM     25  C   UNL     1       3.482   2.925  20.275  0.00  0.00    +0.000 A 
ENDBRANCH  19  20
ENDBRANCH  14  19
ENDBRANCH   1  14
TORSDOF 9
ENDMDL
MODEL 4
REMARK VINA RESULT:      -6.9      1.115      1.320
REMARK  Name = 
REMARK  9 active torsions:
REMARK  status: ('A' for Active; 'I' for Inactive)
REMARK    1  A    between atoms: C_2  and  C_3
REMARK    2  A    between atoms: C_3  and  C_4
REMARK    3  A    between atoms: C_4  and  N_5
REMARK    4  A    between atoms: N_5  and  C_6
REMARK    5  A    between atoms: N_5  and  C_9
REMARK    6  A    between atoms: C_6  and  C_7
REMARK    7  A    between atoms: C_7  and  O_8
REMARK    8  A    between atoms: C_9  and  C_10
REMARK    9  A    between atoms: N_16  and  C_17
REMARK                            x       y       z     vdW  Elec       q    Type
REMARK                         _______ _______ _______ _____ _____    ______ ____
ROOT
ATOM      1  C   UNL     1       6.439   7.303  17.599  0.00  0.00    +0.000 C 
ENDROOT
BRANCH   1   2
ATOM      2  C   UNL     1       7.931   7.516  17.947  0.00  0.00    +0.000 C 
BRANCH   2   4
ATOM      3  O   UNL     1       7.712   9.825  17.496  0.00  0.00    +0.000 OA
ATOM      4  C   UNL     1       8.277   8.971  18.161  0.00  0.00    +0.000 C 
ATOM      5  N   UNL     1       9.195   9.306  19.119  0.00  0.00    +0.000 N 
ATOM      6  H   UNL     1       9.673   8.522  19.593  0.00  0.00    +0.000 HD
BRANCH   5   7
ATOM      7  C   UNL     1       9.535  10.630  19.561  0.00  0.00    +0.000 A 
ATOM      8  C   UNL     1       9.269  11.116  20.867  0.00  0.00    +0.000 A 
ATOM      9  C   UNL     1       9.663  12.399  21.244  0.00  0.00    +0.000 A 
ATOM     10  C   UNL     1      10.328  13.227  20.344  0.00  0.00    +0.000 A 
ATOM     11 BR   UNL     1      10.868  14.979  20.880  0.00  0.00    +0.000 Br
ATOM     12  C   UNL     1      10.604  12.771  19.052  0.00  0.00    +0.000 A 
ATOM     13  C   UNL     1      10.217  11.481  18.668  0.00  0.00    +0.000 A 
ENDBRANCH   5   7
ENDBRANCH   2   4
ENDBRANCH   1   2
BRANCH   1  14
ATOM     14  N   UNL     1       6.031   5.876  17.484  0.00  0.00    +0.000 NA
BRANCH  14  15
ATOM     15  C   UNL     1       7.184   4.976  17.209  0.00  0.00    +0.000 C 
BRANCH  15  16
ATOM     16  C   UNL     1       7.192   4.412  15.783  0.00  0.00    +0.000 C 
BRANCH  16  17
ATOM     17  O   UNL     1       7.543   5.406  14.860  0.00  0.00    +0.000 OA
ATOM     18  H   UNL     1       6.801   5.459  14.205  0.00  0.00    +0.000 HD
ENDBRANCH  16  17
ENDBRANCH  15  16
ENDBRANCH  14  15
BRANCH  14  19
ATOM     19  C   UNL     1       5.253   5.474  18.693  0.00  0.00    +0.000 C 
BRANCH  19  20
ATOM     20  C   UNL     1       4.296   4.316  18.454  0.00  0.00    +0.000 A 
ATOM     21  C   UNL     1       4.467   3.099  19.140  0.00  0.00    +0.000 A 
ATOM     22  C   UNL     1       3.610   2.021  18.893  0.00  0.00    +0.000 A 
ATOM     23  C   UNL     1       2.570   2.148  17.970  0.00  0.00    +0.000 A 
ATOM     24  C   UNL     1       2.378   3.357  17.299  0.00  0.00    +0.000 A 
ATOM     25  C   UNL     1       3.232   4.435  17.540  0.00  0.00    +0.000 A 
ENDBRANCH  19  20
ENDBRANCH  14  19
ENDBRANCH   1  14
TORSDOF 9
ENDMDL
MODEL 5
REMARK VINA RESULT:      -6.8      1.413      1.890
REMARK  Name = 
REMARK  9 active torsions:
REMARK  status: ('A' for Active; 'I' for Inactive)
REMARK    1  A    between atoms: C_2  and  C_3
REMARK    2  A    between atoms: C_3  and  C_4
REMARK    3  A    between atoms: C_4  and  N_5
REMARK    4  A    between atoms: N_5  and  C_6
REMARK    5  A    between atoms: N_5  and  C_9
REMARK    6  A    between atoms: C_6  and  C_7
REMARK    7  A    between atoms: C_7  and  O_8
REMARK    8  A    between atoms: C_9  and  C_10
REMARK    9  A    between atoms: N_16  and  C_17
REMARK                            x       y       z     vdW  Elec       q    Type
REMARK                         _______ _______ _______ _____ _____    ______ ____
ROOT
ATOM      1  C   UNL     1       7.526   6.728  18.208  0.00  0.00    +0.000 C 
ENDROOT
BRANCH   1   2
ATOM      2  C   UNL     1       7.580   8.069  17.441  0.00  0.00    +0.000 C 
BRANCH   2   4
ATOM      3  O   UNL     1       9.013   8.810  19.168  0.00  0.00    +0.000 OA
ATOM      4  C   UNL     1       8.407   9.114  18.153  0.00  0.00    +0.000 C 
ATOM      5  N   UNL     1       8.486  10.375  17.627  0.00  0.00    +0.000 N 
ATOM      6  H   UNL     1       7.894  10.569  16.803  0.00  0.00    +0.000 HD
BRANCH   5   7
ATOM      7  C   UNL     1       9.333  11.445  18.077  0.00  0.00    +0.000 A 
ATOM      8  C   UNL     1      10.743  11.338  18.187  0.00  0.00    +0.000 A 
ATOM      9  C   UNL     1      11.511  12.430  18.592  0.00  0.00    +0.000 A 
ATOM     10  C   UNL     1      10.905  13.646  18.895  0.00  0.00    +0.000 A 
ATOM     11 BR   UNL     1      11.974  15.133  19.440  0.00  0.00    +0.000 Br
ATOM     12  C   UNL     1       9.517  13.777  18.793  0.00  0.00    +0.000 A 
ATOM     13  C   UNL     1       8.741  12.688  18.380  0.00  0.00    +0.000 A 
ENDBRANCH   5   7
ENDBRANCH   2   4
ENDBRANCH   1   2
BRANCH   1  14
ATOM     14  N   UNL     1       6.619   5.710  17.609  0.00  0.00    +0.000 NA
BRANCH  14  15
ATOM     15  C   UNL     1       7.346   4.740  16.746  0.00  0.00    +0.000 C 
BRANCH  15  16
ATOM     16  C   UNL     1       6.873   4.747  15.287  0.00  0.00    +0.000 C 
BRANCH  16  17
ATOM     17  O   UNL     1       7.772   5.454  14.479  0.00  0.00    +0.000 OA
ATOM     18  H   UNL     1       8.449   5.849  15.086  0.00  0.00    +0.000 HD
ENDBRANCH  16  17
ENDBRANCH  15  16
ENDBRANCH  14  15
BRANCH  14  19
ATOM     19  C   UNL     1       5.821   5.050  18.685  0.00  0.00    +0.000 C 
BRANCH  19  20
ATOM     20  C   UNL     1       4.369   4.796  18.307  0.00  0.00    +0.000 A 
ATOM     21  C   UNL     1       3.424   5.837  18.374  0.00  0.00    +0.000 A 
ATOM     22  C   UNL     1       2.081   5.596  18.064  0.00  0.00    +0.000 A 
ATOM     23  C   UNL     1       1.670   4.320  17.674  0.00  0.00    +0.000 A 
ATOM     24  C   UNL     1       2.602   3.285  17.584  0.00  0.00    +0.000 A 
ATOM     25  C   UNL     1       3.942   3.520  17.896  0.00  0.00    +0.000 A 
ENDBRANCH  19  20
ENDBRANCH  14  19
ENDBRANCH   1  14
TORSDOF 9
ENDMDL
MODEL 6
REMARK VINA RESULT:      -6.8      5.486      6.438
REMARK  Name = 
REMARK  9 active torsions:
REMARK  status: ('A' for Active; 'I' for Inactive)
REMARK    1  A    between atoms: C_2  and  C_3
REMARK    2  A    between atoms: C_3  and  C_4
REMARK    3  A    between atoms: C_4  and  N_5
REMARK    4  A    between atoms: N_5  and  C_6
REMARK    5  A    between atoms: N_5  and  C_9
REMARK    6  A    between atoms: C_6  and  C_7
REMARK    7  A    between atoms: C_7  and  O_8
REMARK    8  A    between atoms: C_9  and  C_10
REMARK    9  A    between atoms: N_16  and  C_17
REMARK                            x       y       z     vdW  Elec       q    Type
REMARK                         _______ _______ _______ _____ _____    ______ ____
ROOT
ATOM      1  C   UNL     1       4.336   6.057  17.874  0.00  0.00    +0.000 C 
ENDROOT
BRANCH   1   2
ATOM      2  C   UNL     1       3.432   7.272  17.555  0.00  0.00    +0.000 C 
BRANCH   2   4
ATOM      3  O   UNL     1       2.294   6.782  19.567  0.00  0.00    +0.000 OA
ATOM      4  C   UNL     1       2.480   7.601  18.681  0.00  0.00    +0.000 C 
ATOM      5  N   UNL     1       1.869   8.825  18.703  0.00  0.00    +0.000 N 
ATOM      6  H   UNL     1       2.029   9.435  17.884  0.00  0.00    +0.000 HD
BRANCH   5   7
ATOM      7  C   UNL     1       1.059   9.365  19.759  0.00  0.00    +0.000 A 
ATOM      8  C   UNL     1       1.186   8.988  21.120  0.00  0.00    +0.000 A 
ATOM      9  C   UNL     1       0.394   9.582  22.101  0.00  0.00    +0.000 A 
ATOM     10  C   UNL     1      -0.537  10.560  21.762  0.00  0.00    +0.000 A 
ATOM     11 BR   UNL     1      -1.607  11.370  23.122  0.00  0.00    +0.000 Br
ATOM     12  C   UNL     1      -0.680  10.951  20.428  0.00  0.00    +0.000 A 
ATOM     13  C   UNL     1       0.116  10.364  19.437  0.00  0.00    +0.000 A 
ENDBRANCH   5   7
ENDBRANCH   2   4
ENDBRANCH   1   2
BRANCH   1  14
ATOM     14  N   UNL     1       4.264   4.956  16.875  0.00  0.00    +0.000 NA
BRANCH  14  15
ATOM     15  C   UNL     1       5.265   5.112  15.786  0.00  0.00    +0.000 C 
BRANCH  15  16
ATOM     16  C   UNL     1       6.255   3.944  15.695  0.00  0.00    +0.000 C 
BRANCH  16  17
ATOM     17  O   UNL     1       6.269   3.408  14.400  0.00  0.00    +0.000 OA
ATOM     18  H   UNL     1       6.429   4.165  13.781  0.00  0.00    +0.000 HD
ENDBRANCH  16  17
ENDBRANCH  15  16
ENDBRANCH  14  15
BRANCH  14  19
ATOM     19  C   UNL     1       4.359   3.638  17.570  0.00  0.00    +0.000 C 
BRANCH  19  20
ATOM     20  C   UNL     1       3.241   3.388  18.573  0.00  0.00    +0.000 A 
ATOM     21  C   UNL     1       1.902   3.329  18.144  0.00  0.00    +0.000 A 
ATOM     22  C   UNL     1       0.870   3.137  19.069  0.00  0.00    +0.000 A 
ATOM     23  C   UNL     1       1.164   2.991  20.427  0.00  0.00    +0.000 A 
ATOM     24  C   UNL     1       2.490   3.027  20.861  0.00  0.00    +0.000 A 
ATOM     25  C   UNL     1       3.522   3.222  19.942  0.00  0.00    +0.000 A 
ENDBRANCH  19  20
ENDBRANCH  14  19
ENDBRANCH   1  14
TORSDOF 9
ENDMDL
MODEL 7
REMARK VINA RESULT:      -6.7      4.761      6.414
REMARK  Name = 
REMARK  9 active torsions:
REMARK  status: ('A' for Active; 'I' for Inactive)
REMARK    1  A    between atoms: C_2  and  C_3
REMARK    2  A    between atoms: C_3  and  C_4
REMARK    3  A    between atoms: C_4  and  N_5
REMARK    4  A    between atoms: N_5  and  C_6
REMARK    5  A    between atoms: N_5  and  C_9
REMARK    6  A    between atoms: C_6  and  C_7
REMARK    7  A    between atoms: C_7  and  O_8
REMARK    8  A    between atoms: C_9  and  C_10
REMARK    9  A    between atoms: N_16  and  C_17
REMARK                            x       y       z     vdW  Elec       q    Type
REMARK                         _______ _______ _______ _____ _____    ______ ____
ROOT
ATOM      1  C   UNL     1       4.426   6.259  18.200  0.00  0.00    +0.000 C 
ENDROOT
BRANCH   1   2
ATOM      2  C   UNL     1       3.316   6.929  17.356  0.00  0.00    +0.000 C 
BRANCH   2   4
ATOM      3  O   UNL     1       2.311   9.058  17.561  0.00  0.00    +0.000 OA
ATOM      4  C   UNL     1       2.576   8.005  18.117  0.00  0.00    +0.000 C 
ATOM      5  N   UNL     1       2.191   7.764  19.408  0.00  0.00    +0.000 N 
ATOM      6  H   UNL     1       2.510   6.875  19.827  0.00  0.00    +0.000 HD
BRANCH   5   7
ATOM      7  C   UNL     1       1.359   8.600  20.229  0.00  0.00    +0.000 A 
ATOM      8  C   UNL     1       1.307   8.511  21.644  0.00  0.00    +0.000 A 
ATOM      9  C   UNL     1       0.508   9.381  22.384  0.00  0.00    +0.000 A 
ATOM     10  C   UNL     1      -0.254  10.357  21.746  0.00  0.00    +0.000 A 
ATOM     11 BR   UNL     1      -1.337  11.546  22.777  0.00  0.00    +0.000 Br
ATOM     12  C   UNL     1      -0.218  10.466  20.353  0.00  0.00    +0.000 A 
ATOM     13  C   UNL     1       0.587   9.601  19.603  0.00  0.00    +0.000 A 
ENDBRANCH   5   7
ENDBRANCH   2   4
ENDBRANCH   1   2
BRANCH   1  14
ATOM     14  N   UNL     1       4.845   4.916  17.713  0.00  0.00    +0.000 NA
BRANCH  14  15
ATOM     15  C   UNL     1       6.205   4.932  17.107  0.00  0.00    +0.000 C 
BRANCH  15  16
ATOM     16  C   UNL     1       7.093   6.066  17.632  0.00  0.00    +0.000 C 
BRANCH  16  17
ATOM     17  O   UNL     1       7.626   6.809  16.570  0.00  0.00    +0.000 OA
ATOM     18  H   UNL     1       6.902   7.407  16.251  0.00  0.00    +0.000 HD
ENDBRANCH  16  17
ENDBRANCH  15  16
ENDBRANCH  14  15
BRANCH  14  19
ATOM     19  C   UNL     1       4.708   3.916  18.812  0.00  0.00    +0.000 C 
BRANCH  19  20
ATOM     20  C   UNL     1       3.269   3.658  19.235  0.00  0.00    +0.000 A 
ATOM     21  C   UNL     1       2.831   4.023  20.522  0.00  0.00    +0.000 A 
ATOM     22  C   UNL     1       1.519   3.752  20.926  0.00  0.00    +0.000 A 
ATOM     23  C   UNL     1       0.629   3.128  20.049  0.00  0.00    +0.000 A 
ATOM     24  C   UNL     1       1.047   2.781  18.763  0.00  0.00    +0.000 A 
ATOM     25  C   UNL     1       2.356   3.045  18.357  0.00  0.00    +0.000 A 
ENDBRANCH  19  20
ENDBRANCH  14  19
ENDBRANCH   1  14
TORSDOF 9
ENDMDL
MODEL 8
REMARK VINA RESULT:      -6.7      5.586      7.419
REMARK  Name = 
REMARK  9 active torsions:
REMARK  status: ('A' for Active; 'I' for Inactive)
REMARK    1  A    between atoms: C_2  and  C_3
REMARK    2  A    between atoms: C_3  and  C_4
REMARK    3  A    between atoms: C_4  and  N_5
REMARK    4  A    between atoms: N_5  and  C_6
REMARK    5  A    between atoms: N_5  and  C_9
REMARK    6  A    between atoms: C_6  and  C_7
REMARK    7  A    between atoms: C_7  and  O_8
REMARK    8  A    between atoms: C_9  and  C_10
REMARK    9  A    between atoms: N_16  and  C_17
REMARK                            x       y       z     vdW  Elec       q    Type
REMARK                         _______ _______ _______ _____ _____    ______ ____
ROOT
ATOM      1  C   UNL     1       2.224   6.213  18.362  0.00  0.00    +0.000 C 
ENDROOT
BRANCH   1   2
ATOM      2  C   UNL     1       2.960   7.492  17.899  0.00  0.00    +0.000 C 
BRANCH   2   4
ATOM      3  O   UNL     1       2.215   9.684  17.420  0.00  0.00    +0.000 OA
ATOM      4  C   UNL     1       2.186   8.753  18.209  0.00  0.00    +0.000 C 
ATOM      5  N   UNL     1       1.443   8.814  19.357  0.00  0.00    +0.000 N 
ATOM      6  H   UNL     1       1.523   8.011  20.002  0.00  0.00    +0.000 HD
BRANCH   5   7
ATOM      7  C   UNL     1       0.535   9.859  19.741  0.00  0.00    +0.000 A 
ATOM      8  C   UNL     1       0.719  10.680  20.883  0.00  0.00    +0.000 A 
ATOM      9  C   UNL     1      -0.180  11.705  21.176  0.00  0.00    +0.000 A 
ATOM     10  C   UNL     1      -1.275  11.942  20.350  0.00  0.00    +0.000 A 
ATOM     11 BR   UNL     1      -2.492  13.356  20.763  0.00  0.00    +0.000 Br
ATOM     12  C   UNL     1      -1.478  11.148  19.218  0.00  0.00    +0.000 A 
ATOM     13  C   UNL     1      -0.576  10.121  18.913  0.00  0.00    +0.000 A 
ENDBRANCH   5   7
ENDBRANCH   2   4
ENDBRANCH   1   2
BRANCH   1  14
ATOM     14  N   UNL     1       2.966   5.407  19.371  0.00  0.00    +0.000 NA
BRANCH  14  15
ATOM     15  C   UNL     1       2.169   5.171  20.605  0.00  0.00    +0.000 C 
BRANCH  15  16
ATOM     16  C   UNL     1       1.768   3.703  20.802  0.00  0.00    +0.000 C 
BRANCH  16  17
ATOM     17  O   UNL     1       0.455   3.486  20.362  0.00  0.00    +0.000 OA
ATOM     18  H   UNL     1       0.081   2.767  20.932  0.00  0.00    +0.000 HD
ENDBRANCH  16  17
ENDBRANCH  15  16
ENDBRANCH  14  15
BRANCH  14  19
ATOM     19  C   UNL     1       3.457   4.144  18.744  0.00  0.00    +0.000 C 
BRANCH  19  20
ATOM     20  C   UNL     1       4.765   4.303  17.981  0.00  0.00    +0.000 A 
ATOM     21  C   UNL     1       4.837   3.970  16.616  0.00  0.00    +0.000 A 
ATOM     22  C   UNL     1       6.047   4.079  15.923  0.00  0.00    +0.000 A 
ATOM     23  C   UNL     1       7.193   4.533  16.580  0.00  0.00    +0.000 A 
ATOM     24  C   UNL     1       7.129   4.887  17.929  0.00  0.00    +0.000 A 
ATOM     25  C   UNL     1       5.924   4.775  18.625  0.00  0.00    +0.000 A 
ENDBRANCH  19  20
ENDBRANCH  14  19
ENDBRANCH   1  14
TORSDOF 9
ENDMDL
MODEL 9
REMARK VINA RESULT:      -6.7      1.243      1.912
REMARK  Name = 
REMARK  9 active torsions:
REMARK  status: ('A' for Active; 'I' for Inactive)
REMARK    1  A    between atoms: C_2  and  C_3
REMARK    2  A    between atoms: C_3  and  C_4
REMARK    3  A    between atoms: C_4  and  N_5
REMARK    4  A    between atoms: N_5  and  C_6
REMARK    5  A    between atoms: N_5  and  C_9
REMARK    6  A    between atoms: C_6  and  C_7
REMARK    7  A    between atoms: C_7  and  O_8
REMARK    8  A    between atoms: C_9  and  C_10
REMARK    9  A    between atoms: N_16  and  C_17
REMARK                            x       y       z     vdW  Elec       q    Type
REMARK                         _______ _______ _______ _____ _____    ______ ____
ROOT
ATOM      1  C   UNL     1       6.399   6.638  17.174  0.00  0.00    +0.000 C 
ENDROOT
BRANCH   1   2
ATOM      2  C   UNL     1       7.642   6.906  18.056  0.00  0.00    +0.000 C 
BRANCH   2   4
ATOM      3  O   UNL     1       7.611   9.104  17.185  0.00  0.00    +0.000 OA
ATOM      4  C   UNL     1       8.066   8.357  18.037  0.00  0.00    +0.000 C 
ATOM      5  N   UNL     1       8.930   8.812  18.996  0.00  0.00    +0.000 N 
ATOM      6  H   UNL     1       9.318   8.104  19.640  0.00  0.00    +0.000 HD
BRANCH   5   7
ATOM      7  C   UNL     1       9.323  10.175  19.224  0.00  0.00    +0.000 A 
ATOM      8  C   UNL     1       9.713  11.065  18.190  0.00  0.00    +0.000 A 
ATOM      9  C   UNL     1      10.044  12.388  18.477  0.00  0.00    +0.000 A 
ATOM     10  C   UNL     1       9.998  12.861  19.785  0.00  0.00    +0.000 A 
ATOM     11 BR   UNL     1      10.447  14.680  20.158  0.00  0.00    +0.000 Br
ATOM     12  C   UNL     1       9.615  12.004  20.821  0.00  0.00    +0.000 A 
ATOM     13  C   UNL     1       9.274  10.676  20.541  0.00  0.00    +0.000 A 
ENDBRANCH   5   7
ENDBRANCH   2   4
ENDBRANCH   1   2
BRANCH   1  14
ATOM     14  N   UNL     1       5.682   5.372  17.489  0.00  0.00    +0.000 NA
BRANCH  14  15
ATOM     15  C   UNL     1       6.289   4.193  16.814  0.00  0.00    +0.000 C 
BRANCH  15  16
ATOM     16  C   UNL     1       6.759   4.484  15.383  0.00  0.00    +0.000 C 
BRANCH  16  17
ATOM     17  O   UNL     1       6.309   3.491  14.504  0.00  0.00    +0.000 OA
ATOM     18  H   UNL     1       5.675   2.925  15.015  0.00  0.00    +0.000 HD
ENDBRANCH  16  17
ENDBRANCH  15  16
ENDBRANCH  14  15
BRANCH  14  19
ATOM     19  C   UNL     1       5.577   5.207  18.969  0.00  0.00    +0.000 C 
BRANCH  19  20
ATOM     20  C   UNL     1       4.192   4.797  19.447  0.00  0.00    +0.000 A 
ATOM     21  C   UNL     1       3.218   5.775  19.724  0.00  0.00    +0.000 A 
ATOM     22  C   UNL     1       1.956   5.403  20.199  0.00  0.00    +0.000 A 
ATOM     23  C   UNL     1       1.649   4.055  20.392  0.00  0.00    +0.000 A 
ATOM     24  C   UNL     1       2.600   3.075  20.101  0.00  0.00    +0.000 A 
ATOM     25  C   UNL     1       3.862   3.442  19.630  0.00  0.00    +0.000 A 
ENDBRANCH  19  20
ENDBRANCH  14  19
ENDBRANCH   1  14
TORSDOF 9
ENDMDL
