MODEL 1
REMARK VINA RESULT:      -8.8      0.000      0.000
REMARK  Name = 
REMARK  7 active torsions:
REMARK  status: ('A' for Active; 'I' for Inactive)
REMARK    1  A    between atoms: C_1  and  O_2
REMARK    2  A    between atoms: O_2  and  C_3
REMARK    3  A    between atoms: C_3  and  C_5
REMARK    4  A    between atoms: C_5  and  C_6
REMARK    5  A    between atoms: C_13  and  C_14
REMARK    6  A    between atoms: C_14  and  N_15
REMARK    7  A    between atoms: C_18  and  C_19
REMARK                            x       y       z     vdW  Elec       q    Type
REMARK                         _______ _______ _______ _____ _____    ______ ____
ROOT
ATOM      1  N   UNL     1       3.692   5.616  18.693  0.00  0.00    +0.000 NA
ATOM      2  C   UNL     1       2.552   5.977  17.822  0.00  0.00    +0.000 C 
ATOM      3  C   UNL     1       1.886   7.186  18.446  0.00  0.00    +0.000 C 
ATOM      4  C   UNL     1       1.738   7.257  19.783  0.00  0.00    +0.000 C 
ATOM      5  C   UNL     1       2.231   6.123  20.660  0.00  0.00    +0.000 C 
ATOM      6  C   UNL     1       2.980   5.012  19.856  0.00  0.00    +0.000 C 
ATOM      7  C   UNL     1       1.971   4.067  19.190  0.00  0.00    +0.000 C 
ATOM      8  C   UNL     1       1.605   4.774  17.886  0.00  0.00    +0.000 C 
ENDROOT
BRANCH   4   9
ATOM      9  C   UNL     1       1.227   8.469  20.423  0.00  0.00    +0.000 A 
ATOM     10  C   UNL     1       0.984   8.522  21.799  0.00  0.00    +0.000 A 
ATOM     11  C   UNL     1       0.473   9.688  22.376  0.00  0.00    +0.000 A 
ATOM     12  C   UNL     1       0.196  10.796  21.576  0.00  0.00    +0.000 A 
ATOM     13 CL   UNL     1      -0.445  12.227  22.284  0.00  0.00    +0.000 Cl
ATOM     14  C   UNL     1       0.430  10.752  20.204  0.00  0.00    +0.000 A 
ATOM     15  C   UNL     1       0.945   9.588  19.629  0.00  0.00    +0.000 A 
ENDBRANCH   4   9
BRANCH   1  16
ATOM     16  C   UNL     1       4.659   4.683  18.101  0.00  0.00    +0.000 C 
BRANCH  16  19
ATOM     17  C   UNL     1       6.275   5.198  16.010  0.00  0.00    +0.000 C 
ATOM     18  C   UNL     1       5.215   6.286  16.173  0.00  0.00    +0.000 C 
ATOM     19  C   UNL     1       4.892   4.892  16.631  0.00  0.00    +0.000 C 
BRANCH  17  20
ATOM     20  C   UNL     1       6.548   4.743  14.574  0.00  0.00    +0.000 A 
ATOM     21  C   UNL     1       5.747   3.757  13.972  0.00  0.00    +0.000 A 
ATOM     22  C   UNL     1       5.932   3.382  12.639  0.00  0.00    +0.000 A 
ATOM     23  C   UNL     1       6.925   3.989  11.877  0.00  0.00    +0.000 A 
ATOM     24  C   UNL     1       7.735   4.965  12.449  0.00  0.00    +0.000 A 
ATOM     25  C   UNL     1       7.548   5.333  13.783  0.00  0.00    +0.000 A 
ENDBRANCH  17  20
BRANCH  17  26
ATOM     26  C   UNL     1       7.500   5.198  16.896  0.00  0.00    +0.000 C 
ATOM     27  O   UNL     1       8.120   4.171  17.145  0.00  0.00    +0.000 OA
BRANCH  26  29
ATOM     28  C   UNL     1       7.954   6.522  18.771  0.00  0.00    +0.000 C 
ATOM     29  O   UNL     1       7.839   6.439  17.350  0.00  0.00    +0.000 OA
ENDBRANCH  26  29
ENDBRANCH  17  26
ENDBRANCH  16  19
ENDBRANCH   1  16
TORSDOF 6
ENDMDL
MODEL 2
REMARK VINA RESULT:      -7.9      0.480      1.179
REMARK  Name = 
REMARK  7 active torsions:
REMARK  status: ('A' for Active; 'I' for Inactive)
REMARK    1  A    between atoms: C_1  and  O_2
REMARK    2  A    between atoms: O_2  and  C_3
REMARK    3  A    between atoms: C_3  and  C_5
REMARK    4  A    between atoms: C_5  and  C_6
REMARK    5  A    between atoms: C_13  and  C_14
REMARK    6  A    between atoms: C_14  and  N_15
REMARK    7  A    between atoms: C_18  and  C_19
REMARK                            x       y       z     vdW  Elec       q    Type
REMARK                         _______ _______ _______ _____ _____    ______ ____
ROOT
ATOM      1  N   UNL     1       3.730   5.905  18.721  0.00  0.00    +0.000 NA
ATOM      2  C   UNL     1       2.592   6.199  17.822  0.00  0.00    +0.000 C 
ATOM      3  C   UNL     1       1.864   7.390  18.411  0.00  0.00    +0.000 C 
ATOM      4  C   UNL     1       1.689   7.480  19.743  0.00  0.00    +0.000 C 
ATOM      5  C   UNL     1       2.213   6.386  20.651  0.00  0.00    +0.000 C 
ATOM      6  C   UNL     1       3.023   5.292  19.882  0.00  0.00    +0.000 C 
ATOM      7  C   UNL     1       2.068   4.292  19.218  0.00  0.00    +0.000 C 
ATOM      8  C   UNL     1       1.696   4.958  17.894  0.00  0.00    +0.000 C 
ENDROOT
BRANCH   4   9
ATOM      9  C   UNL     1       1.114   8.681  20.350  0.00  0.00    +0.000 A 
ATOM     10  C   UNL     1       0.925   9.854  19.612  0.00  0.00    +0.000 A 
ATOM     11  C   UNL     1       0.395  10.992  20.228  0.00  0.00    +0.000 A 
ATOM     12  C   UNL     1       0.064  10.959  21.583  0.00  0.00    +0.000 A 
ATOM     13 CL   UNL     1      -0.575  12.363  22.344  0.00  0.00    +0.000 Cl
ATOM     14  C   UNL     1       0.254   9.798  22.328  0.00  0.00    +0.000 A 
ATOM     15  C   UNL     1       0.779   8.660  21.711  0.00  0.00    +0.000 A 
ENDBRANCH   4   9
BRANCH   1  16
ATOM     16  C   UNL     1       4.747   5.003  18.165  0.00  0.00    +0.000 C 
BRANCH  16  19
ATOM     17  C   UNL     1       6.116   5.436  15.887  0.00  0.00    +0.000 C 
ATOM     18  C   UNL     1       4.922   6.382  16.005  0.00  0.00    +0.000 C 
ATOM     19  C   UNL     1       4.840   5.034  16.665  0.00  0.00    +0.000 C 
BRANCH  17  20
ATOM     20  C   UNL     1       6.349   4.826  14.501  0.00  0.00    +0.000 A 
ATOM     21  C   UNL     1       5.425   3.917  13.956  0.00  0.00    +0.000 A 
ATOM     22  C   UNL     1       5.581   3.408  12.665  0.00  0.00    +0.000 A 
ATOM     23  C   UNL     1       6.667   3.801  11.888  0.00  0.00    +0.000 A 
ATOM     24  C   UNL     1       7.598   4.695  12.405  0.00  0.00    +0.000 A 
ATOM     25  C   UNL     1       7.440   5.198  13.698  0.00  0.00    +0.000 A 
ENDBRANCH  17  20
BRANCH  17  26
ATOM     26  C   UNL     1       7.388   5.725  16.650  0.00  0.00    +0.000 C 
ATOM     27  O   UNL     1       7.782   6.870  16.843  0.00  0.00    +0.000 OA
BRANCH  26  29
ATOM     28  C   UNL     1       8.186   4.575  18.525  0.00  0.00    +0.000 C 
ATOM     29  O   UNL     1       8.011   4.602  17.108  0.00  0.00    +0.000 OA
ENDBRANCH  26  29
ENDBRANCH  17  26
ENDBRANCH  16  19
ENDBRANCH   1  16
TORSDOF 6
ENDMDL
MODEL 3
REMARK VINA RESULT:      -7.6      0.614      1.529
REMARK  Name = 
REMARK  7 active torsions:
REMARK  status: ('A' for Active; 'I' for Inactive)
REMARK    1  A    between atoms: C_1  and  O_2
REMARK    2  A    between atoms: O_2  and  C_3
REMARK    3  A    between atoms: C_3  and  C_5
REMARK    4  A    between atoms: C_5  and  C_6
REMARK    5  A    between atoms: C_13  and  C_14
REMARK    6  A    between atoms: C_14  and  N_15
REMARK    7  A    between atoms: C_18  and  C_19
REMARK                            x       y       z     vdW  Elec       q    Type
REMARK                         _______ _______ _______ _____ _____    ______ ____
ROOT
ATOM      1  N   UNL     1       3.789   5.348  18.502  0.00  0.00    +0.000 NA
ATOM      2  C   UNL     1       2.422   5.365  17.936  0.00  0.00    +0.000 C 
ATOM      3  C   UNL     1       1.739   6.606  18.473  0.00  0.00    +0.000 C 
ATOM      4  C   UNL     1       1.922   6.972  19.756  0.00  0.00    +0.000 C 
ATOM      5  C   UNL     1       2.806   6.139  20.663  0.00  0.00    +0.000 C 
ATOM      6  C   UNL     1       3.506   4.959  19.914  0.00  0.00    +0.000 C 
ATOM      7  C   UNL     1       2.539   3.778  19.760  0.00  0.00    +0.000 C 
ATOM      8  C   UNL     1       1.741   4.113  18.501  0.00  0.00    +0.000 C 
ENDROOT
BRANCH   4   9
ATOM      9  C   UNL     1       1.390   8.236  20.264  0.00  0.00    +0.000 A 
ATOM     10  C   UNL     1       1.194   9.337  19.423  0.00  0.00    +0.000 A 
ATOM     11  C   UNL     1       0.704  10.539  19.944  0.00  0.00    +0.000 A 
ATOM     12  C   UNL     1       0.421  10.642  21.306  0.00  0.00    +0.000 A 
ATOM     13 CL   UNL     1      -0.168  12.125  21.950  0.00  0.00    +0.000 Cl
ATOM     14  C   UNL     1       0.618   9.554  22.153  0.00  0.00    +0.000 A 
ATOM     15  C   UNL     1       1.102   8.352  21.631  0.00  0.00    +0.000 A 
ENDBRANCH   4   9
BRANCH   1  16
ATOM     16  C   UNL     1       4.721   4.415  17.856  0.00  0.00    +0.000 C 
BRANCH  16  19
ATOM     17  C   UNL     1       6.043   5.174  15.637  0.00  0.00    +0.000 C 
ATOM     18  C   UNL     1       4.753   5.974  15.816  0.00  0.00    +0.000 C 
ATOM     19  C   UNL     1       4.815   4.576  16.366  0.00  0.00    +0.000 C 
BRANCH  17  20
ATOM     20  C   UNL     1       6.345   4.707  14.211  0.00  0.00    +0.000 A 
ATOM     21  C   UNL     1       7.434   5.240  13.499  0.00  0.00    +0.000 A 
ATOM     22  C   UNL     1       7.772   4.773  12.227  0.00  0.00    +0.000 A 
ATOM     23  C   UNL     1       7.024   3.758  11.638  0.00  0.00    +0.000 A 
ATOM     24  C   UNL     1       5.939   3.216  12.318  0.00  0.00    +0.000 A 
ATOM     25  C   UNL     1       5.604   3.689  13.588  0.00  0.00    +0.000 A 
ENDBRANCH  17  20
BRANCH  17  26
ATOM     26  C   UNL     1       7.273   5.536  16.437  0.00  0.00    +0.000 C 
ATOM     27  O   UNL     1       7.623   6.700  16.598  0.00  0.00    +0.000 OA
BRANCH  26  29
ATOM     28  C   UNL     1       8.176   4.562  18.363  0.00  0.00    +0.000 C 
ATOM     29  O   UNL     1       7.913   4.453  16.964  0.00  0.00    +0.000 OA
ENDBRANCH  26  29
ENDBRANCH  17  26
ENDBRANCH  16  19
ENDBRANCH   1  16
TORSDOF 6
ENDMDL
MODEL 4
REMARK VINA RESULT:      -7.5      0.802      1.055
REMARK  Name = 
REMARK  7 active torsions:
REMARK  status: ('A' for Active; 'I' for Inactive)
REMARK    1  A    between atoms: C_1  and  O_2
REMARK    2  A    between atoms: O_2  and  C_3
REMARK    3  A    between atoms: C_3  and  C_5
REMARK    4  A    between atoms: C_5  and  C_6
REMARK    5  A    between atoms: C_13  and  C_14
REMARK    6  A    between atoms: C_14  and  N_15
REMARK    7  A    between atoms: C_18  and  C_19
REMARK                            x       y       z     vdW  Elec       q    Type
REMARK                         _______ _______ _______ _____ _____    ______ ____
ROOT
ATOM      1  N   UNL     1       3.607   6.275  18.523  0.00  0.00    +0.000 NA
ATOM      2  C   UNL     1       2.407   6.413  17.669  0.00  0.00    +0.000 C 
ATOM      3  C   UNL     1       1.709   7.689  18.094  0.00  0.00    +0.000 C 
ATOM      4  C   UNL     1       1.624   8.005  19.401  0.00  0.00    +0.000 C 
ATOM      5  C   UNL     1       2.221   7.082  20.443  0.00  0.00    +0.000 C 
ATOM      6  C   UNL     1       2.988   5.872  19.818  0.00  0.00    +0.000 C 
ATOM      7  C   UNL     1       2.000   4.774  19.402  0.00  0.00    +0.000 C 
ATOM      8  C   UNL     1       1.531   5.204  18.013  0.00  0.00    +0.000 C 
ENDROOT
BRANCH   4   9
ATOM      9  C   UNL     1       1.080   9.293  19.832  0.00  0.00    +0.000 A 
ATOM     10  C   UNL     1       0.508   9.458  21.097  0.00  0.00    +0.000 A 
ATOM     11  C   UNL     1      -0.024  10.697  21.470  0.00  0.00    +0.000 A 
ATOM     12  C   UNL     1       0.008  11.765  20.573  0.00  0.00    +0.000 A 
ATOM     13 CL   UNL     1      -0.659  13.285  21.027  0.00  0.00    +0.000 Cl
ATOM     14  C   UNL     1       0.570  11.609  19.309  0.00  0.00    +0.000 A 
ATOM     15  C   UNL     1       1.106  10.374  18.940  0.00  0.00    +0.000 A 
ENDBRANCH   4   9
BRANCH   1  16
ATOM     16  C   UNL     1       4.593   5.290  18.060  0.00  0.00    +0.000 C 
BRANCH  16  19
ATOM     17  C   UNL     1       6.103   5.581  15.850  0.00  0.00    +0.000 C 
ATOM     18  C   UNL     1       4.941   6.572  15.861  0.00  0.00    +0.000 C 
ATOM     19  C   UNL     1       4.772   5.256  16.568  0.00  0.00    +0.000 C 
BRANCH  17  20
ATOM     20  C   UNL     1       6.391   4.906  14.505  0.00  0.00    +0.000 A 
ATOM     21  C   UNL     1       5.511   3.940  13.987  0.00  0.00    +0.000 A 
ATOM     22  C   UNL     1       5.716   3.369  12.729  0.00  0.00    +0.000 A 
ATOM     23  C   UNL     1       6.808   3.755  11.959  0.00  0.00    +0.000 A 
ATOM     24  C   UNL     1       7.697   4.707  12.450  0.00  0.00    +0.000 A 
ATOM     25  C   UNL     1       7.490   5.271  13.709  0.00  0.00    +0.000 A 
ENDBRANCH  17  20
BRANCH  17  26
ATOM     26  C   UNL     1       7.340   5.856  16.674  0.00  0.00    +0.000 C 
ATOM     27  O   UNL     1       7.778   6.991  16.826  0.00  0.00    +0.000 OA
BRANCH  26  29
ATOM     28  C   UNL     1       8.040   4.815  18.648  0.00  0.00    +0.000 C 
ATOM     29  O   UNL     1       7.879   4.734  17.232  0.00  0.00    +0.000 OA
ENDBRANCH  26  29
ENDBRANCH  17  26
ENDBRANCH  16  19
ENDBRANCH   1  16
TORSDOF 6
ENDMDL
MODEL 5
REMARK VINA RESULT:      -7.3      5.145      9.544
REMARK  Name = 
REMARK  7 active torsions:
REMARK  status: ('A' for Active; 'I' for Inactive)
REMARK    1  A    between atoms: C_1  and  O_2
REMARK    2  A    between atoms: O_2  and  C_3
REMARK    3  A    between atoms: C_3  and  C_5
REMARK    4  A    between atoms: C_5  and  C_6
REMARK    5  A    between atoms: C_13  and  C_14
REMARK    6  A    between atoms: C_14  and  N_15
REMARK    7  A    between atoms: C_18  and  C_19
REMARK                            x       y       z     vdW  Elec       q    Type
REMARK                         _______ _______ _______ _____ _____    ______ ____
ROOT
ATOM      1  N   UNL     1       1.323  10.634  20.190  0.00  0.00    +0.000 NA
ATOM      2  C   UNL     1       0.862   9.403  20.868  0.00  0.00    +0.000 C 
ATOM      3  C   UNL     1       1.608   8.247  20.235  0.00  0.00    +0.000 C 
ATOM      4  C   UNL     1       1.811   8.226  18.903  0.00  0.00    +0.000 C 
ATOM      5  C   UNL     1       1.286   9.355  18.040  0.00  0.00    +0.000 C 
ATOM      6  C   UNL     1       0.635  10.507  18.873  0.00  0.00    +0.000 C 
ATOM      7  C   UNL     1      -0.800  10.132  19.267  0.00  0.00    +0.000 C 
ATOM      8  C   UNL     1      -0.630   9.300  20.537  0.00  0.00    +0.000 C 
ENDROOT
BRANCH   4   9
ATOM      9  C   UNL     1       2.645   7.197  18.282  0.00  0.00    +0.000 A 
ATOM     10  C   UNL     1       2.368   5.835  18.444  0.00  0.00    +0.000 A 
ATOM     11  C   UNL     1       3.198   4.876  17.856  0.00  0.00    +0.000 A 
ATOM     12  C   UNL     1       4.310   5.279  17.116  0.00  0.00    +0.000 A 
ATOM     13 CL   UNL     1       5.339   4.098  16.404  0.00  0.00    +0.000 Cl
ATOM     14  C   UNL     1       4.597   6.632  16.953  0.00  0.00    +0.000 A 
ATOM     15  C   UNL     1       3.764   7.589  17.536  0.00  0.00    +0.000 A 
ENDBRANCH   4   9
BRANCH   1  16
ATOM     16  C   UNL     1       0.973  11.889  20.868  0.00  0.00    +0.000 C 
BRANCH  16  19
ATOM     17  C   UNL     1       1.483  14.479  20.337  0.00  0.00    +0.000 C 
ATOM     18  C   UNL     1      -0.019  14.195  20.325  0.00  0.00    +0.000 C 
ATOM     19  C   UNL     1       0.927  13.085  19.960  0.00  0.00    +0.000 C 
BRANCH  17  20
ATOM     20  C   UNL     1       1.999  15.387  19.218  0.00  0.00    +0.000 A 
ATOM     21  C   UNL     1       3.100  15.001  18.434  0.00  0.00    +0.000 A 
ATOM     22  C   UNL     1       3.538  15.779  17.360  0.00  0.00    +0.000 A 
ATOM     23  C   UNL     1       2.880  16.964  17.046  0.00  0.00    +0.000 A 
ATOM     24  C   UNL     1       1.790  17.372  17.808  0.00  0.00    +0.000 A 
ATOM     25  C   UNL     1       1.359  16.592  18.882  0.00  0.00    +0.000 A 
ENDBRANCH  17  20
BRANCH  17  26
ATOM     26  C   UNL     1       2.208  14.654  21.652  0.00  0.00    +0.000 C 
ATOM     27  O   UNL     1       3.362  14.273  21.812  0.00  0.00    +0.000 OA
BRANCH  26  29
ATOM     28  C   UNL     1       1.684  16.698  22.663  0.00  0.00    +0.000 C 
ATOM     29  O   UNL     1       1.462  15.289  22.601  0.00  0.00    +0.000 OA
ENDBRANCH  26  29
ENDBRANCH  17  26
ENDBRANCH  16  19
ENDBRANCH   1  16
TORSDOF 6
ENDMDL
MODEL 6
REMARK VINA RESULT:      -7.3      0.977      1.573
REMARK  Name = 
REMARK  7 active torsions:
REMARK  status: ('A' for Active; 'I' for Inactive)
REMARK    1  A    between atoms: C_1  and  O_2
REMARK    2  A    between atoms: O_2  and  C_3
REMARK    3  A    between atoms: C_3  and  C_5
REMARK    4  A    between atoms: C_5  and  C_6
REMARK    5  A    between atoms: C_13  and  C_14
REMARK    6  A    between atoms: C_14  and  N_15
REMARK    7  A    between atoms: C_18  and  C_19
REMARK                            x       y       z     vdW  Elec       q    Type
REMARK                         _______ _______ _______ _____ _____    ______ ____
ROOT
ATOM      1  N   UNL     1       3.797   4.580  18.100  0.00  0.00    +0.000 NA
ATOM      2  C   UNL     1       2.503   4.079  18.613  0.00  0.00    +0.000 C 
ATOM      3  C   UNL     1       1.715   5.287  19.075  0.00  0.00    +0.000 C 
ATOM      4  C   UNL     1       2.339   6.286  19.730  0.00  0.00    +0.000 C 
ATOM      5  C   UNL     1       3.825   6.196  20.009  0.00  0.00    +0.000 C 
ATOM      6  C   UNL     1       4.490   4.933  19.372  0.00  0.00    +0.000 C 
ATOM      7  C   UNL     1       4.243   3.701  20.253  0.00  0.00    +0.000 C 
ATOM      8  C   UNL     1       2.865   3.205  19.819  0.00  0.00    +0.000 C 
ENDROOT
BRANCH   4   9
ATOM      9  C   UNL     1       1.635   7.524  20.064  0.00  0.00    +0.000 A 
ATOM     10  C   UNL     1       1.614   8.613  19.187  0.00  0.00    +0.000 A 
ATOM     11  C   UNL     1       0.951   9.791  19.547  0.00  0.00    +0.000 A 
ATOM     12  C   UNL     1       0.320   9.882  20.788  0.00  0.00    +0.000 A 
ATOM     13 CL   UNL     1      -0.483  11.336  21.236  0.00  0.00    +0.000 Cl
ATOM     14  C   UNL     1       0.340   8.805  21.671  0.00  0.00    +0.000 A 
ATOM     15  C   UNL     1       0.997   7.628  21.308  0.00  0.00    +0.000 A 
ENDBRANCH   4   9
BRANCH   1  16
ATOM     16  C   UNL     1       4.570   3.614  17.307  0.00  0.00    +0.000 C 
BRANCH  16  19
ATOM     17  C   UNL     1       6.193   4.802  15.517  0.00  0.00    +0.000 C 
ATOM     18  C   UNL     1       4.873   5.559  15.657  0.00  0.00    +0.000 C 
ATOM     19  C   UNL     1       4.884   4.078  15.913  0.00  0.00    +0.000 C 
BRANCH  17  20
ATOM     20  C   UNL     1       6.717   4.634  14.088  0.00  0.00    +0.000 A 
ATOM     21  C   UNL     1       6.208   3.624  13.254  0.00  0.00    +0.000 A 
ATOM     22  C   UNL     1       6.618   3.503  11.924  0.00  0.00    +0.000 A 
ATOM     23  C   UNL     1       7.549   4.393  11.399  0.00  0.00    +0.000 A 
ATOM     24  C   UNL     1       8.072   5.400  12.204  0.00  0.00    +0.000 A 
ATOM     25  C   UNL     1       7.661   5.515  13.533  0.00  0.00    +0.000 A 
ENDBRANCH  17  20
BRANCH  17  26
ATOM     26  C   UNL     1       7.280   4.982  16.551  0.00  0.00    +0.000 C 
ATOM     27  O   UNL     1       8.012   4.058  16.891  0.00  0.00    +0.000 OA
BRANCH  26  29
ATOM     28  C   UNL     1       7.678   6.332  18.420  0.00  0.00    +0.000 C 
ATOM     29  O   UNL     1       7.367   6.256  17.029  0.00  0.00    +0.000 OA
ENDBRANCH  26  29
ENDBRANCH  17  26
ENDBRANCH  16  19
ENDBRANCH   1  16
TORSDOF 6
ENDMDL
MODEL 7
REMARK VINA RESULT:      -7.2      5.168      9.499
REMARK  Name = 
REMARK  7 active torsions:
REMARK  status: ('A' for Active; 'I' for Inactive)
REMARK    1  A    between atoms: C_1  and  O_2
REMARK    2  A    between atoms: O_2  and  C_3
REMARK    3  A    between atoms: C_3  and  C_5
REMARK    4  A    between atoms: C_5  and  C_6
REMARK    5  A    between atoms: C_13  and  C_14
REMARK    6  A    between atoms: C_14  and  N_15
REMARK    7  A    between atoms: C_18  and  C_19
REMARK                            x       y       z     vdW  Elec       q    Type
REMARK                         _______ _______ _______ _____ _____    ______ ____
ROOT
ATOM      1  N   UNL     1       1.440  10.621  20.032  0.00  0.00    +0.000 NA
ATOM      2  C   UNL     1       0.972   9.419  20.757  0.00  0.00    +0.000 C 
ATOM      3  C   UNL     1       1.702   8.233  20.160  0.00  0.00    +0.000 C 
ATOM      4  C   UNL     1       1.895   8.163  18.829  0.00  0.00    +0.000 C 
ATOM      5  C   UNL     1       1.376   9.267  17.930  0.00  0.00    +0.000 C 
ATOM      6  C   UNL     1       0.742  10.453  18.725  0.00  0.00    +0.000 C 
ATOM      7  C   UNL     1      -0.694  10.108  19.141  0.00  0.00    +0.000 C 
ATOM      8  C   UNL     1      -0.524   9.320  20.439  0.00  0.00    +0.000 C 
ENDROOT
BRANCH   4   9
ATOM      9  C   UNL     1       2.714   7.104  18.240  0.00  0.00    +0.000 A 
ATOM     10  C   UNL     1       3.877   7.395  17.519  0.00  0.00    +0.000 A 
ATOM     11  C   UNL     1       4.625   6.360  16.949  0.00  0.00    +0.000 A 
ATOM     12  C   UNL     1       4.205   5.038  17.092  0.00  0.00    +0.000 A 
ATOM     13 CL   UNL     1       5.118   3.766  16.378  0.00  0.00    +0.000 Cl
ATOM     14  C   UNL     1       3.045   4.738  17.803  0.00  0.00    +0.000 A 
ATOM     15  C   UNL     1       2.302   5.771  18.376  0.00  0.00    +0.000 A 
ENDBRANCH   4   9
BRANCH   1  16
ATOM     16  C   UNL     1       1.107  11.902  20.668  0.00  0.00    +0.000 C 
BRANCH  16  19
ATOM     17  C   UNL     1       1.286  14.518  20.055  0.00  0.00    +0.000 C 
ATOM     18  C   UNL     1      -0.155  14.020  19.947  0.00  0.00    +0.000 C 
ATOM     19  C   UNL     1       0.964  13.046  19.704  0.00  0.00    +0.000 C 
BRANCH  17  20
ATOM     20  C   UNL     1       1.754  15.451  18.934  0.00  0.00    +0.000 A 
ATOM     21  C   UNL     1       1.103  16.676  18.705  0.00  0.00    +0.000 A 
ATOM     22  C   UNL     1       1.562  17.574  17.739  0.00  0.00    +0.000 A 
ATOM     23  C   UNL     1       2.686  17.265  16.979  0.00  0.00    +0.000 A 
ATOM     24  C   UNL     1       3.346  16.057  17.182  0.00  0.00    +0.000 A 
ATOM     25  C   UNL     1       2.881  15.162  18.147  0.00  0.00    +0.000 A 
ENDBRANCH  17  20
BRANCH  17  26
ATOM     26  C   UNL     1       1.873  14.844  21.409  0.00  0.00    +0.000 C 
ATOM     27  O   UNL     1       1.219  14.745  22.441  0.00  0.00    +0.000 OA
BRANCH  26  29
ATOM     28  C   UNL     1       4.103  14.157  21.588  0.00  0.00    +0.000 C 
ATOM     29  O   UNL     1       3.183  15.223  21.353  0.00  0.00    +0.000 OA
ENDBRANCH  26  29
ENDBRANCH  17  26
ENDBRANCH  16  19
ENDBRANCH   1  16
TORSDOF 6
ENDMDL
MODEL 8
REMARK VINA RESULT:      -7.2      6.286     12.214
REMARK  Name = 
REMARK  7 active torsions:
REMARK  status: ('A' for Active; 'I' for Inactive)
REMARK    1  A    between atoms: C_1  and  O_2
REMARK    2  A    between atoms: O_2  and  C_3
REMARK    3  A    between atoms: C_3  and  C_5
REMARK    4  A    between atoms: C_5  and  C_6
REMARK    5  A    between atoms: C_13  and  C_14
REMARK    6  A    between atoms: C_14  and  N_15
REMARK    7  A    between atoms: C_18  and  C_19
REMARK                            x       y       z     vdW  Elec       q    Type
REMARK                         _______ _______ _______ _____ _____    ______ ____
ROOT
ATOM      1  N   UNL     1      -0.740  11.853  21.876  0.00  0.00    +0.000 NA
ATOM      2  C   UNL     1      -1.554  11.431  20.716  0.00  0.00    +0.000 C 
ATOM      3  C   UNL     1      -0.789  10.323  20.021  0.00  0.00    +0.000 C 
ATOM      4  C   UNL     1       0.549  10.412  19.887  0.00  0.00    +0.000 C 
ATOM      5  C   UNL     1       1.285  11.622  20.425  0.00  0.00    +0.000 C 
ATOM      6  C   UNL     1       0.352  12.610  21.197  0.00  0.00    +0.000 C 
ATOM      7  C   UNL     1      -0.410  13.504  20.210  0.00  0.00    +0.000 C 
ATOM      8  C   UNL     1      -1.621  12.663  19.806  0.00  0.00    +0.000 C 
ENDROOT
BRANCH   4   9
ATOM      9  C   UNL     1       1.329   9.298  19.346  0.00  0.00    +0.000 A 
ATOM     10  C   UNL     1       1.804   9.309  18.031  0.00  0.00    +0.000 A 
ATOM     11  C   UNL     1       2.527   8.218  17.538  0.00  0.00    +0.000 A 
ATOM     12  C   UNL     1       2.765   7.115  18.357  0.00  0.00    +0.000 A 
ATOM     13 CL   UNL     1       3.642   5.767  17.745  0.00  0.00    +0.000 Cl
ATOM     14  C   UNL     1       2.291   7.092  19.666  0.00  0.00    +0.000 A 
ATOM     15  C   UNL     1       1.574   8.183  20.159  0.00  0.00    +0.000 A 
ENDBRANCH   4   9
BRANCH   1  16
ATOM     16  C   UNL     1      -1.443  12.681  22.865  0.00  0.00    +0.000 C 
BRANCH  16  19
ATOM     17  C   UNL     1      -4.048  13.346  23.005  0.00  0.00    +0.000 C 
ATOM     18  C   UNL     1      -3.555  12.753  24.324  0.00  0.00    +0.000 C 
ATOM     19  C   UNL     1      -2.890  12.320  23.047  0.00  0.00    +0.000 C 
BRANCH  17  20
ATOM     20  C   UNL     1      -5.427  12.873  22.535  0.00  0.00    +0.000 A 
ATOM     21  C   UNL     1      -5.626  12.461  21.206  0.00  0.00    +0.000 A 
ATOM     22  C   UNL     1      -6.855  11.955  20.777  0.00  0.00    +0.000 A 
ATOM     23  C   UNL     1      -7.915  11.850  21.673  0.00  0.00    +0.000 A 
ATOM     24  C   UNL     1      -7.746  12.255  22.993  0.00  0.00    +0.000 A 
ATOM     25  C   UNL     1      -6.516  12.763  23.415  0.00  0.00    +0.000 A 
ENDBRANCH  17  20
BRANCH  17  26
ATOM     26  C   UNL     1      -3.746  14.788  22.666  0.00  0.00    +0.000 C 
ATOM     27  O   UNL     1      -3.572  15.160  21.511  0.00  0.00    +0.000 OA
BRANCH  26  29
ATOM     28  C   UNL     1      -4.921  16.349  23.953  0.00  0.00    +0.000 C 
ATOM     29  O   UNL     1      -3.718  15.606  23.758  0.00  0.00    +0.000 OA
ENDBRANCH  26  29
ENDBRANCH  17  26
ENDBRANCH  16  19
ENDBRANCH   1  16
TORSDOF 6
ENDMDL
MODEL 9
REMARK VINA RESULT:      -7.1      5.393     10.038
REMARK  Name = 
REMARK  7 active torsions:
REMARK  status: ('A' for Active; 'I' for Inactive)
REMARK    1  A    between atoms: C_1  and  O_2
REMARK    2  A    between atoms: O_2  and  C_3
REMARK    3  A    between atoms: C_3  and  C_5
REMARK    4  A    between atoms: C_5  and  C_6
REMARK    5  A    between atoms: C_13  and  C_14
REMARK    6  A    between atoms: C_14  and  N_15
REMARK    7  A    between atoms: C_18  and  C_19
REMARK                            x       y       z     vdW  Elec       q    Type
REMARK                         _______ _______ _______ _____ _____    ______ ____
ROOT
ATOM      1  N   UNL     1       1.276  10.865  19.889  0.00  0.00    +0.000 NA
ATOM      2  C   UNL     1       0.950   9.686  20.722  0.00  0.00    +0.000 C 
ATOM      3  C   UNL     1       1.702   8.510  20.133  0.00  0.00    +0.000 C 
ATOM      4  C   UNL     1       1.784   8.366  18.796  0.00  0.00    +0.000 C 
ATOM      5  C   UNL     1       1.118   9.377  17.884  0.00  0.00    +0.000 C 
ATOM      6  C   UNL     1       0.480  10.572  18.662  0.00  0.00    +0.000 C 
ATOM      7  C   UNL     1      -0.889  10.170  19.225  0.00  0.00    +0.000 C 
ATOM      8  C   UNL     1      -0.558   9.478  20.546  0.00  0.00    +0.000 C 
ENDROOT
BRANCH   4   9
ATOM      9  C   UNL     1       2.616   7.322  18.198  0.00  0.00    +0.000 A 
ATOM     10  C   UNL     1       2.320   5.966  18.367  0.00  0.00    +0.000 A 
ATOM     11  C   UNL     1       3.150   4.992  17.802  0.00  0.00    +0.000 A 
ATOM     12  C   UNL     1       4.278   5.375  17.078  0.00  0.00    +0.000 A 
ATOM     13 CL   UNL     1       5.307   4.176  16.395  0.00  0.00    +0.000 Cl
ATOM     14  C   UNL     1       4.585   6.723  16.909  0.00  0.00    +0.000 A 
ATOM     15  C   UNL     1       3.754   7.694  17.469  0.00  0.00    +0.000 A 
ENDBRANCH   4   9
BRANCH   1  16
ATOM     16  C   UNL     1       0.917  12.162  20.476  0.00  0.00    +0.000 C 
BRANCH  16  19
ATOM     17  C   UNL     1       0.347  14.713  19.828  0.00  0.00    +0.000 C 
ATOM     18  C   UNL     1      -0.760  13.764  19.371  0.00  0.00    +0.000 C 
ATOM     19  C   UNL     1       0.645  13.239  19.463  0.00  0.00    +0.000 C 
BRANCH  17  20
ATOM     20  C   UNL     1       0.741  15.806  18.830  0.00  0.00    +0.000 A 
ATOM     21  C   UNL     1      -0.223  16.698  18.329  0.00  0.00    +0.000 A 
ATOM     22  C   UNL     1       0.129  17.748  17.478  0.00  0.00    +0.000 A 
ATOM     23  C   UNL     1       1.459  17.929  17.111  0.00  0.00    +0.000 A 
ATOM     24  C   UNL     1       2.433  17.059  17.589  0.00  0.00    +0.000 A 
ATOM     25  C   UNL     1       2.075  16.009  18.436  0.00  0.00    +0.000 A 
ENDBRANCH  17  20
BRANCH  17  26
ATOM     26  C   UNL     1       0.423  15.146  21.274  0.00  0.00    +0.000 C 
ATOM     27  O   UNL     1       1.478  15.492  21.793  0.00  0.00    +0.000 OA
BRANCH  26  29
ATOM     28  C   UNL     1      -0.818  14.313  23.073  0.00  0.00    +0.000 C 
ATOM     29  O   UNL     1      -0.786  15.133  21.906  0.00  0.00    +0.000 OA
ENDBRANCH  26  29
ENDBRANCH  17  26
ENDBRANCH  16  19
ENDBRANCH   1  16
TORSDOF 6
ENDMDL
