MODEL 1
REMARK VINA RESULT:      -9.6      0.000      0.000
REMARK  Name = 
REMARK  7 active torsions:
REMARK  status: ('A' for Active; 'I' for Inactive)
REMARK    1  A    between atoms: C_1  and  C_2
REMARK    2  A    between atoms: C_2  and  N_3
REMARK    3  A    between atoms: C_2  and  C_27
REMARK    4  A    between atoms: C_6  and  C_7
REMARK    5  A    between atoms: C_11  and  C_12
REMARK    6  A    between atoms: C_15  and  O_16
REMARK    7  A    between atoms: O_16  and  C_17
REMARK                            x       y       z     vdW  Elec       q    Type
REMARK                         _______ _______ _______ _____ _____    ______ ____
ROOT
ATOM      1  N   UNL     1       6.155   4.311  19.084  0.00  0.00    +0.000 N 
ATOM      2  C   UNL     1       4.770   4.501  19.219  0.00  0.00    +0.000 A 
ATOM      3  C   UNL     1       4.005   3.430  19.600  0.00  0.00    +0.000 A 
ATOM      4  C   UNL     1       2.650   3.657  19.684  0.00  0.00    +0.000 A 
ATOM      5  N   UNL     1       2.065   4.864  19.508  0.00  0.00    +0.000 NA
ATOM      6  C   UNL     1       2.905   5.865  19.217  0.00  0.00    +0.000 A 
ATOM      7  N   UNL     1       4.236   5.717  19.046  0.00  0.00    +0.000 NA
ATOM      8  H   UNL     1       6.552   4.401  20.021  0.00  0.00    +0.000 HD
ENDROOT
BRANCH   6   9
ATOM      9  C   UNL     1       2.359   7.238  19.153  0.00  0.00    +0.000 A 
ATOM     10  C   UNL     1       2.467   8.029  17.994  0.00  0.00    +0.000 A 
ATOM     11  C   UNL     1       1.875   9.297  17.917  0.00  0.00    +0.000 A 
ATOM     12  C   UNL     1       1.162   9.807  18.999  0.00  0.00    +0.000 A 
ATOM     13  C   UNL     1       1.112   9.077  20.186  0.00  0.00    +0.000 A 
ATOM     14  C   UNL     1       1.676   7.799  20.249  0.00  0.00    +0.000 A 
BRANCH  12  15
ATOM     15  O   UNL     1       0.594  11.047  18.823  0.00  0.00    +0.000 OA
BRANCH  15  16
ATOM     16  C   UNL     1      -0.773  11.172  18.705  0.00  0.00    +0.000 A 
ATOM     17  C   UNL     1      -1.386  10.300  17.799  0.00  0.00    +0.000 A 
ATOM     18  C   UNL     1      -2.767  10.353  17.600  0.00  0.00    +0.000 A 
ATOM     19  C   UNL     1      -3.526  11.278  18.309  0.00  0.00    +0.000 A 
ATOM     20  F   UNL     1      -4.846  11.348  18.101  0.00  0.00    +0.000 F 
ATOM     21  C   UNL     1      -2.934  12.126  19.238  0.00  0.00    +0.000 A 
ATOM     22  C   UNL     1      -1.559  12.051  19.459  0.00  0.00    +0.000 A 
ENDBRANCH  15  16
ENDBRANCH  12  15
ENDBRANCH   6   9
BRANCH   4  23
ATOM     23  C   UNL     1       1.736   2.507  19.952  0.00  0.00    +0.000 C 
ATOM     24  N   UNL     1       1.701   1.535  18.993  0.00  0.00    +0.000 N 
ATOM     25  O   UNL     1       1.072   2.422  20.982  0.00  0.00    +0.000 OA
ATOM     26  H   UNL     1       2.307   1.600  18.185  0.00  0.00    +0.000 HD
ATOM     27  H   UNL     1       1.155   0.701  19.155  0.00  0.00    +0.000 HD
ENDBRANCH   4  23
BRANCH   1  29
ATOM     28  C   UNL     1       7.613   4.471  17.090  0.00  0.00    +0.000 C 
ATOM     29  C   UNL     1       6.838   5.250  18.155  0.00  0.00    +0.000 C 
BRANCH  29  30
ATOM     30  C   UNL     1       7.841   6.115  18.949  0.00  0.00    +0.000 C 
ATOM     31  N   UNL     1       8.333   5.549  20.094  0.00  0.00    +0.000 N 
ATOM     32  O   UNL     1       8.230   7.218  18.579  0.00  0.00    +0.000 OA
ATOM     33  H   UNL     1       7.988   4.651  20.410  0.00  0.00    +0.000 HD
ATOM     34  H   UNL     1       8.999   6.062  20.651  0.00  0.00    +0.000 HD
ENDBRANCH  29  30
ENDBRANCH   1  29
TORSDOF 6
ENDMDL
MODEL 2
REMARK VINA RESULT:      -9.6      1.341      1.727
REMARK  Name = 
REMARK  7 active torsions:
REMARK  status: ('A' for Active; 'I' for Inactive)
REMARK    1  A    between atoms: C_1  and  C_2
REMARK    2  A    between atoms: C_2  and  N_3
REMARK    3  A    between atoms: C_2  and  C_27
REMARK    4  A    between atoms: C_6  and  C_7
REMARK    5  A    between atoms: C_11  and  C_12
REMARK    6  A    between atoms: C_15  and  O_16
REMARK    7  A    between atoms: O_16  and  C_17
REMARK                            x       y       z     vdW  Elec       q    Type
REMARK                         _______ _______ _______ _____ _____    ______ ____
ROOT
ATOM      1  N   UNL     1       5.686   4.050  17.981  0.00  0.00    +0.000 N 
ATOM      2  C   UNL     1       4.543   4.379  18.728  0.00  0.00    +0.000 A 
ATOM      3  C   UNL     1       4.117   3.492  19.682  0.00  0.00    +0.000 A 
ATOM      4  C   UNL     1       2.974   3.843  20.363  0.00  0.00    +0.000 A 
ATOM      5  N   UNL     1       2.324   5.019  20.210  0.00  0.00    +0.000 NA
ATOM      6  C   UNL     1       2.863   5.854  19.311  0.00  0.00    +0.000 A 
ATOM      7  N   UNL     1       3.939   5.561  18.552  0.00  0.00    +0.000 NA
ATOM      8  H   UNL     1       6.491   4.322  18.549  0.00  0.00    +0.000 HD
ENDROOT
BRANCH   6   9
ATOM      9  C   UNL     1       2.295   7.214  19.194  0.00  0.00    +0.000 A 
ATOM     10  C   UNL     1       2.331   7.934  17.985  0.00  0.00    +0.000 A 
ATOM     11  C   UNL     1       1.718   9.188  17.863  0.00  0.00    +0.000 A 
ATOM     12  C   UNL     1       1.056   9.756  18.949  0.00  0.00    +0.000 A 
ATOM     13  C   UNL     1       1.080   9.100  20.179  0.00  0.00    +0.000 A 
ATOM     14  C   UNL     1       1.664   7.834  20.289  0.00  0.00    +0.000 A 
BRANCH  12  15
ATOM     15  O   UNL     1       0.464  10.978  18.729  0.00  0.00    +0.000 OA
BRANCH  15  16
ATOM     16  C   UNL     1      -0.900  11.062  18.550  0.00  0.00    +0.000 A 
ATOM     17  C   UNL     1      -1.558  12.016  19.332  0.00  0.00    +0.000 A 
ATOM     18  C   UNL     1      -2.942  12.173  19.230  0.00  0.00    +0.000 A 
ATOM     19  C   UNL     1      -3.658  11.374  18.346  0.00  0.00    +0.000 A 
ATOM     20  F   UNL     1      -4.988  11.505  18.265  0.00  0.00    +0.000 F 
ATOM     21  C   UNL     1      -3.012  10.447  17.537  0.00  0.00    +0.000 A 
ATOM     22  C   UNL     1      -1.626  10.312  17.616  0.00  0.00    +0.000 A 
ENDBRANCH  15  16
ENDBRANCH  12  15
ENDBRANCH   6   9
BRANCH   4  23
ATOM     23  C   UNL     1       2.366   2.866  21.314  0.00  0.00    +0.000 C 
ATOM     24  N   UNL     1       1.002   2.787  21.301  0.00  0.00    +0.000 N 
ATOM     25  O   UNL     1       3.046   2.155  22.050  0.00  0.00    +0.000 OA
ATOM     26  H   UNL     1       0.470   3.338  20.638  0.00  0.00    +0.000 HD
ATOM     27  H   UNL     1       0.542   2.093  21.871  0.00  0.00    +0.000 HD
ENDBRANCH   4  23
BRANCH   1  29
ATOM     28  C   UNL     1       5.724   3.623  15.543  0.00  0.00    +0.000 C 
ATOM     29  C   UNL     1       5.775   4.688  16.641  0.00  0.00    +0.000 C 
BRANCH  29  30
ATOM     30  C   UNL     1       7.118   5.442  16.523  0.00  0.00    +0.000 C 
ATOM     31  N   UNL     1       7.591   5.611  15.249  0.00  0.00    +0.000 N 
ATOM     32  O   UNL     1       7.720   5.913  17.482  0.00  0.00    +0.000 OA
ATOM     33  H   UNL     1       7.105   5.195  14.463  0.00  0.00    +0.000 HD
ATOM     34  H   UNL     1       8.459   6.103  15.107  0.00  0.00    +0.000 HD
ENDBRANCH  29  30
ENDBRANCH   1  29
TORSDOF 6
ENDMDL
MODEL 3
REMARK VINA RESULT:      -9.3      1.447      1.803
REMARK  Name = 
REMARK  7 active torsions:
REMARK  status: ('A' for Active; 'I' for Inactive)
REMARK    1  A    between atoms: C_1  and  C_2
REMARK    2  A    between atoms: C_2  and  N_3
REMARK    3  A    between atoms: C_2  and  C_27
REMARK    4  A    between atoms: C_6  and  C_7
REMARK    5  A    between atoms: C_11  and  C_12
REMARK    6  A    between atoms: C_15  and  O_16
REMARK    7  A    between atoms: O_16  and  C_17
REMARK                            x       y       z     vdW  Elec       q    Type
REMARK                         _______ _______ _______ _____ _____    ______ ____
ROOT
ATOM      1  N   UNL     1       5.595   4.128  18.198  0.00  0.00    +0.000 N 
ATOM      2  C   UNL     1       4.413   4.471  18.876  0.00  0.00    +0.000 A 
ATOM      3  C   UNL     1       3.921   3.589  19.803  0.00  0.00    +0.000 A 
ATOM      4  C   UNL     1       2.745   3.954  20.415  0.00  0.00    +0.000 A 
ATOM      5  N   UNL     1       2.119   5.138  20.225  0.00  0.00    +0.000 NA
ATOM      6  C   UNL     1       2.720   5.966  19.361  0.00  0.00    +0.000 A 
ATOM      7  N   UNL     1       3.835   5.660  18.666  0.00  0.00    +0.000 NA
ATOM      8  H   UNL     1       6.368   4.391  18.812  0.00  0.00    +0.000 HD
ENDROOT
BRANCH   6   9
ATOM      9  C   UNL     1       2.176   7.333  19.212  0.00  0.00    +0.000 A 
ATOM     10  C   UNL     1       1.524   7.994  20.270  0.00  0.00    +0.000 A 
ATOM     11  C   UNL     1       1.085   9.319  20.143  0.00  0.00    +0.000 A 
ATOM     12  C   UNL     1       1.283  10.014  18.952  0.00  0.00    +0.000 A 
ATOM     13  C   UNL     1       1.850   9.354  17.864  0.00  0.00    +0.000 A 
ATOM     14  C   UNL     1       2.317   8.042  18.004  0.00  0.00    +0.000 A 
BRANCH  12  15
ATOM     15  O   UNL     1       0.842  11.317  18.928  0.00  0.00    +0.000 OA
BRANCH  15  16
ATOM     16  C   UNL     1      -0.499  11.595  19.082  0.00  0.00    +0.000 A 
ATOM     17  C   UNL     1      -1.348  11.043  18.117  0.00  0.00    +0.000 A 
ATOM     18  C   UNL     1      -2.724  11.274  18.179  0.00  0.00    +0.000 A 
ATOM     19  C   UNL     1      -3.241  12.056  19.206  0.00  0.00    +0.000 A 
ATOM     20  F   UNL     1      -4.557  12.300  19.253  0.00  0.00    +0.000 F 
ATOM     21  C   UNL     1      -2.413  12.582  20.190  0.00  0.00    +0.000 A 
ATOM     22  C   UNL     1      -1.042  12.324  20.146  0.00  0.00    +0.000 A 
ENDBRANCH  15  16
ENDBRANCH  12  15
ENDBRANCH   6   9
BRANCH   4  23
ATOM     23  C   UNL     1       2.070   2.984  21.328  0.00  0.00    +0.000 C 
ATOM     24  N   UNL     1       0.735   2.792  21.116  0.00  0.00    +0.000 N 
ATOM     25  O   UNL     1       2.678   2.375  22.205  0.00  0.00    +0.000 OA
ATOM     26  H   UNL     1       0.273   3.259  20.345  0.00  0.00    +0.000 HD
ATOM     27  H   UNL     1       0.244   2.094  21.656  0.00  0.00    +0.000 HD
ENDBRANCH   4  23
BRANCH   1  29
ATOM     28  C   UNL     1       5.270   3.831  15.762  0.00  0.00    +0.000 C 
ATOM     29  C   UNL     1       5.770   4.766  16.866  0.00  0.00    +0.000 C 
BRANCH  29  30
ATOM     30  C   UNL     1       7.270   5.041  16.625  0.00  0.00    +0.000 C 
ATOM     31  N   UNL     1       7.568   6.258  16.073  0.00  0.00    +0.000 N 
ATOM     32  O   UNL     1       8.164   4.262  16.941  0.00  0.00    +0.000 OA
ATOM     33  H   UNL     1       6.826   6.885  15.788  0.00  0.00    +0.000 HD
ATOM     34  H   UNL     1       8.531   6.499  15.900  0.00  0.00    +0.000 HD
ENDBRANCH  29  30
ENDBRANCH   1  29
TORSDOF 6
ENDMDL
MODEL 4
REMARK VINA RESULT:      -9.3      3.038      3.754
REMARK  Name = 
REMARK  7 active torsions:
REMARK  status: ('A' for Active; 'I' for Inactive)
REMARK    1  A    between atoms: C_1  and  C_2
REMARK    2  A    between atoms: C_2  and  N_3
REMARK    3  A    between atoms: C_2  and  C_27
REMARK    4  A    between atoms: C_6  and  C_7
REMARK    5  A    between atoms: C_11  and  C_12
REMARK    6  A    between atoms: C_15  and  O_16
REMARK    7  A    between atoms: O_16  and  C_17
REMARK                            x       y       z     vdW  Elec       q    Type
REMARK                         _______ _______ _______ _____ _____    ______ ____
ROOT
ATOM      1  N   UNL     1       5.641   4.219  18.160  0.00  0.00    +0.000 N 
ATOM      2  C   UNL     1       4.456   4.550  18.838  0.00  0.00    +0.000 A 
ATOM      3  C   UNL     1       3.967   3.659  19.758  0.00  0.00    +0.000 A 
ATOM      4  C   UNL     1       2.786   4.013  20.369  0.00  0.00    +0.000 A 
ATOM      5  N   UNL     1       2.154   5.195  20.185  0.00  0.00    +0.000 NA
ATOM      6  C   UNL     1       2.752   6.031  19.327  0.00  0.00    +0.000 A 
ATOM      7  N   UNL     1       3.871   5.737  18.633  0.00  0.00    +0.000 NA
ATOM      8  H   UNL     1       6.411   4.482  18.778  0.00  0.00    +0.000 HD
ENDROOT
BRANCH   6   9
ATOM      9  C   UNL     1       2.200   7.396  19.185  0.00  0.00    +0.000 A 
ATOM     10  C   UNL     1       1.541   8.046  20.245  0.00  0.00    +0.000 A 
ATOM     11  C   UNL     1       1.093   9.369  20.125  0.00  0.00    +0.000 A 
ATOM     12  C   UNL     1       1.291  10.073  18.940  0.00  0.00    +0.000 A 
ATOM     13  C   UNL     1       1.866   9.423  17.849  0.00  0.00    +0.000 A 
ATOM     14  C   UNL     1       2.341   8.114  17.983  0.00  0.00    +0.000 A 
BRANCH  12  15
ATOM     15  O   UNL     1       0.841  11.373  18.923  0.00  0.00    +0.000 OA
BRANCH  15  16
ATOM     16  C   UNL     1       1.726  12.413  19.109  0.00  0.00    +0.000 A 
ATOM     17  C   UNL     1       1.846  12.880  20.422  0.00  0.00    +0.000 A 
ATOM     18  C   UNL     1       2.710  13.937  20.714  0.00  0.00    +0.000 A 
ATOM     19  C   UNL     1       3.448  14.521  19.690  0.00  0.00    +0.000 A 
ATOM     20  F   UNL     1       4.258  15.551  19.963  0.00  0.00    +0.000 F 
ATOM     21  C   UNL     1       3.364  14.044  18.387  0.00  0.00    +0.000 A 
ATOM     22  C   UNL     1       2.525  12.967  18.102  0.00  0.00    +0.000 A 
ENDBRANCH  15  16
ENDBRANCH  12  15
ENDBRANCH   6   9
BRANCH   4  23
ATOM     23  C   UNL     1       2.116   3.033  21.275  0.00  0.00    +0.000 C 
ATOM     24  N   UNL     1       0.781   2.838  21.061  0.00  0.00    +0.000 N 
ATOM     25  O   UNL     1       2.726   2.419  22.146  0.00  0.00    +0.000 OA
ATOM     26  H   UNL     1       0.317   3.309  20.293  0.00  0.00    +0.000 HD
ATOM     27  H   UNL     1       0.293   2.134  21.595  0.00  0.00    +0.000 HD
ENDBRANCH   4  23
BRANCH   1  29
ATOM     28  C   UNL     1       4.958   4.157  15.782  0.00  0.00    +0.000 C 
ATOM     29  C   UNL     1       5.816   4.865  16.833  0.00  0.00    +0.000 C 
BRANCH  29  30
ATOM     30  C   UNL     1       7.295   4.757  16.403  0.00  0.00    +0.000 C 
ATOM     31  N   UNL     1       7.608   5.343  15.205  0.00  0.00    +0.000 N 
ATOM     32  O   UNL     1       8.166   4.232  17.089  0.00  0.00    +0.000 OA
ATOM     33  H   UNL     1       6.880   5.750  14.630  0.00  0.00    +0.000 HD
ATOM     34  H   UNL     1       8.560   5.313  14.875  0.00  0.00    +0.000 HD
ENDBRANCH  29  30
ENDBRANCH   1  29
TORSDOF 6
ENDMDL
MODEL 5
REMARK VINA RESULT:      -9.3      1.042      1.048
REMARK  Name = 
REMARK  7 active torsions:
REMARK  status: ('A' for Active; 'I' for Inactive)
REMARK    1  A    between atoms: C_1  and  C_2
REMARK    2  A    between atoms: C_2  and  N_3
REMARK    3  A    between atoms: C_2  and  C_27
REMARK    4  A    between atoms: C_6  and  C_7
REMARK    5  A    between atoms: C_11  and  C_12
REMARK    6  A    between atoms: C_15  and  O_16
REMARK    7  A    between atoms: O_16  and  C_17
REMARK                            x       y       z     vdW  Elec       q    Type
REMARK                         _______ _______ _______ _____ _____    ______ ____
ROOT
ATOM      1  N   UNL     1       6.075   4.549  18.670  0.00  0.00    +0.000 N 
ATOM      2  C   UNL     1       4.747   4.757  19.080  0.00  0.00    +0.000 A 
ATOM      3  C   UNL     1       4.120   3.753  19.771  0.00  0.00    +0.000 A 
ATOM      4  C   UNL     1       2.811   3.990  20.121  0.00  0.00    +0.000 A 
ATOM      5  N   UNL     1       2.162   5.158  19.909  0.00  0.00    +0.000 NA
ATOM      6  C   UNL     1       2.885   6.106  19.298  0.00  0.00    +0.000 A 
ATOM      7  N   UNL     1       4.149   5.934  18.860  0.00  0.00    +0.000 NA
ATOM      8  H   UNL     1       6.665   4.775  19.472  0.00  0.00    +0.000 HD
ENDROOT
BRANCH   6   9
ATOM      9  C   UNL     1       2.293   7.454  19.163  0.00  0.00    +0.000 A 
ATOM     10  C   UNL     1       2.438   8.216  17.987  0.00  0.00    +0.000 A 
ATOM     11  C   UNL     1       1.806   9.458  17.839  0.00  0.00    +0.000 A 
ATOM     12  C   UNL     1       1.015   9.971  18.865  0.00  0.00    +0.000 A 
ATOM     13  C   UNL     1       0.925   9.274  20.069  0.00  0.00    +0.000 A 
ATOM     14  C   UNL     1       1.531   8.020  20.201  0.00  0.00    +0.000 A 
BRANCH  12  15
ATOM     15  O   UNL     1       0.413  11.184  18.620  0.00  0.00    +0.000 OA
BRANCH  15  16
ATOM     16  C   UNL     1      -0.961  11.283  18.602  0.00  0.00    +0.000 A 
ATOM     17  C   UNL     1      -1.616  10.466  17.675  0.00  0.00    +0.000 A 
ATOM     18  C   UNL     1      -3.009  10.499  17.572  0.00  0.00    +0.000 A 
ATOM     19  C   UNL     1      -3.736  11.350  18.397  0.00  0.00    +0.000 A 
ATOM     20  F   UNL     1      -5.068  11.402  18.283  0.00  0.00    +0.000 F 
ATOM     21  C   UNL     1      -3.100  12.141  19.347  0.00  0.00    +0.000 A 
ATOM     22  C   UNL     1      -1.711  12.083  19.471  0.00  0.00    +0.000 A 
ENDBRANCH  15  16
ENDBRANCH  12  15
ENDBRANCH   6   9
BRANCH   4  23
ATOM     23  C   UNL     1       2.016   2.891  20.746  0.00  0.00    +0.000 C 
ATOM     24  N   UNL     1       2.094   2.797  22.107  0.00  0.00    +0.000 N 
ATOM     25  O   UNL     1       1.314   2.130  20.086  0.00  0.00    +0.000 OA
ATOM     26  H   UNL     1       2.629   3.479  22.631  0.00  0.00    +0.000 HD
ATOM     27  H   UNL     1       1.521   2.119  22.588  0.00  0.00    +0.000 HD
ENDBRANCH   4  23
BRANCH   1  29
ATOM     28  C   UNL     1       7.226   4.443  16.481  0.00  0.00    +0.000 C 
ATOM     29  C   UNL     1       6.505   5.342  17.488  0.00  0.00    +0.000 C 
BRANCH  29  30
ATOM     30  C   UNL     1       7.488   6.443  17.943  0.00  0.00    +0.000 C 
ATOM     31  N   UNL     1       7.587   7.528  17.112  0.00  0.00    +0.000 N 
ATOM     32  O   UNL     1       8.115   6.402  18.996  0.00  0.00    +0.000 OA
ATOM     33  H   UNL     1       7.090   7.544  16.230  0.00  0.00    +0.000 HD
ATOM     34  H   UNL     1       8.207   8.283  17.360  0.00  0.00    +0.000 HD
ENDBRANCH  29  30
ENDBRANCH   1  29
TORSDOF 6
ENDMDL
MODEL 6
REMARK VINA RESULT:      -9.2      1.540      1.903
REMARK  Name = 
REMARK  7 active torsions:
REMARK  status: ('A' for Active; 'I' for Inactive)
REMARK    1  A    between atoms: C_1  and  C_2
REMARK    2  A    between atoms: C_2  and  N_3
REMARK    3  A    between atoms: C_2  and  C_27
REMARK    4  A    between atoms: C_6  and  C_7
REMARK    5  A    between atoms: C_11  and  C_12
REMARK    6  A    between atoms: C_15  and  O_16
REMARK    7  A    between atoms: O_16  and  C_17
REMARK                            x       y       z     vdW  Elec       q    Type
REMARK                         _______ _______ _______ _____ _____    ______ ____
ROOT
ATOM      1  N   UNL     1       5.478   4.121  18.176  0.00  0.00    +0.000 N 
ATOM      2  C   UNL     1       4.314   4.527  18.851  0.00  0.00    +0.000 A 
ATOM      3  C   UNL     1       3.775   3.673  19.778  0.00  0.00    +0.000 A 
ATOM      4  C   UNL     1       2.617   4.100  20.387  0.00  0.00    +0.000 A 
ATOM      5  N   UNL     1       2.055   5.316  20.194  0.00  0.00    +0.000 NA
ATOM      6  C   UNL     1       2.701   6.109  19.329  0.00  0.00    +0.000 A 
ATOM      7  N   UNL     1       3.800   5.744  18.637  0.00  0.00    +0.000 NA
ATOM      8  H   UNL     1       6.262   4.344  18.792  0.00  0.00    +0.000 HD
ENDROOT
BRANCH   6   9
ATOM      9  C   UNL     1       2.230   7.502  19.176  0.00  0.00    +0.000 A 
ATOM     10  C   UNL     1       2.439   8.233  17.991  0.00  0.00    +0.000 A 
ATOM     11  C   UNL     1       1.918   9.523  17.826  0.00  0.00    +0.000 A 
ATOM     12  C   UNL     1       1.177  10.118  18.846  0.00  0.00    +0.000 A 
ATOM     13  C   UNL     1       1.030   9.448  20.059  0.00  0.00    +0.000 A 
ATOM     14  C   UNL     1       1.523   8.147  20.208  0.00  0.00    +0.000 A 
BRANCH  12  15
ATOM     15  O   UNL     1       0.685  11.375  18.586  0.00  0.00    +0.000 OA
BRANCH  15  16
ATOM     16  C   UNL     1      -0.587  11.717  18.991  0.00  0.00    +0.000 A 
ATOM     17  C   UNL     1      -0.667  12.481  20.161  0.00  0.00    +0.000 A 
ATOM     18  C   UNL     1      -1.911  12.871  20.659  0.00  0.00    +0.000 A 
ATOM     19  C   UNL     1      -3.068  12.494  19.985  0.00  0.00    +0.000 A 
ATOM     20  F   UNL     1      -4.263  12.845  20.476  0.00  0.00    +0.000 F 
ATOM     21  C   UNL     1      -3.001  11.766  18.804  0.00  0.00    +0.000 A 
ATOM     22  C   UNL     1      -1.756  11.403  18.288  0.00  0.00    +0.000 A 
ENDBRANCH  15  16
ENDBRANCH  12  15
ENDBRANCH   6   9
BRANCH   4  23
ATOM     23  C   UNL     1       1.891   3.169  21.300  0.00  0.00    +0.000 C 
ATOM     24  N   UNL     1       0.609   2.859  20.943  0.00  0.00    +0.000 N 
ATOM     25  O   UNL     1       2.415   2.688  22.302  0.00  0.00    +0.000 OA
ATOM     26  H   UNL     1       0.224   3.220  20.078  0.00  0.00    +0.000 HD
ATOM     27  H   UNL     1       0.096   2.179  21.484  0.00  0.00    +0.000 HD
ENDBRANCH   4  23
BRANCH   1  29
ATOM     28  C   UNL     1       5.275   3.777  15.733  0.00  0.00    +0.000 C 
ATOM     29  C   UNL     1       5.690   4.746  16.844  0.00  0.00    +0.000 C 
BRANCH  29  30
ATOM     30  C   UNL     1       7.188   5.074  16.666  0.00  0.00    +0.000 C 
ATOM     31  N   UNL     1       7.469   6.348  16.250  0.00  0.00    +0.000 N 
ATOM     32  O   UNL     1       8.091   4.284  16.919  0.00  0.00    +0.000 OA
ATOM     33  H   UNL     1       6.720   6.987  16.015  0.00  0.00    +0.000 HD
ATOM     34  H   UNL     1       8.431   6.624  16.124  0.00  0.00    +0.000 HD
ENDBRANCH  29  30
ENDBRANCH   1  29
TORSDOF 6
ENDMDL
MODEL 7
REMARK VINA RESULT:      -9.2      2.837      3.394
REMARK  Name = 
REMARK  7 active torsions:
REMARK  status: ('A' for Active; 'I' for Inactive)
REMARK    1  A    between atoms: C_1  and  C_2
REMARK    2  A    between atoms: C_2  and  N_3
REMARK    3  A    between atoms: C_2  and  C_27
REMARK    4  A    between atoms: C_6  and  C_7
REMARK    5  A    between atoms: C_11  and  C_12
REMARK    6  A    between atoms: C_15  and  O_16
REMARK    7  A    between atoms: O_16  and  C_17
REMARK                            x       y       z     vdW  Elec       q    Type
REMARK                         _______ _______ _______ _____ _____    ______ ____
ROOT
ATOM      1  N   UNL     1       5.517   4.066  18.067  0.00  0.00    +0.000 N 
ATOM      2  C   UNL     1       4.368   4.449  18.778  0.00  0.00    +0.000 A 
ATOM      3  C   UNL     1       3.860   3.576  19.705  0.00  0.00    +0.000 A 
ATOM      4  C   UNL     1       2.715   3.983  20.350  0.00  0.00    +0.000 A 
ATOM      5  N   UNL     1       2.138   5.196  20.192  0.00  0.00    +0.000 NA
ATOM      6  C   UNL     1       2.754   6.009  19.324  0.00  0.00    +0.000 A 
ATOM      7  N   UNL     1       3.837   5.665  18.598  0.00  0.00    +0.000 NA
ATOM      8  H   UNL     1       6.315   4.286  18.665  0.00  0.00    +0.000 HD
ENDROOT
BRANCH   6   9
ATOM      9  C   UNL     1       2.267   7.400  19.206  0.00  0.00    +0.000 A 
ATOM     10  C   UNL     1       2.389   8.133  18.010  0.00  0.00    +0.000 A 
ATOM     11  C   UNL     1       1.852   9.421  17.885  0.00  0.00    +0.000 A 
ATOM     12  C   UNL     1       1.181  10.011  18.954  0.00  0.00    +0.000 A 
ATOM     13  C   UNL     1       1.121   9.339  20.173  0.00  0.00    +0.000 A 
ATOM     14  C   UNL     1       1.629   8.040  20.286  0.00  0.00    +0.000 A 
BRANCH  12  15
ATOM     15  O   UNL     1       0.666  11.267  18.731  0.00  0.00    +0.000 OA
BRANCH  15  16
ATOM     16  C   UNL     1       1.430  12.383  18.989  0.00  0.00    +0.000 A 
ATOM     17  C   UNL     1       1.215  12.993  20.229  0.00  0.00    +0.000 A 
ATOM     18  C   UNL     1       1.934  14.137  20.583  0.00  0.00    +0.000 A 
ATOM     19  C   UNL     1       2.863  14.663  19.693  0.00  0.00    +0.000 A 
ATOM     20  F   UNL     1       3.535  15.774  20.019  0.00  0.00    +0.000 F 
ATOM     21  C   UNL     1       3.113  14.047  18.472  0.00  0.00    +0.000 A 
ATOM     22  C   UNL     1       2.417  12.886  18.133  0.00  0.00    +0.000 A 
ENDBRANCH  15  16
ENDBRANCH  12  15
ENDBRANCH   6   9
BRANCH   4  23
ATOM     23  C   UNL     1       2.021   3.030  21.267  0.00  0.00    +0.000 C 
ATOM     24  N   UNL     1       0.696   2.815  21.014  0.00  0.00    +0.000 N 
ATOM     25  O   UNL     1       2.605   2.453  22.180  0.00  0.00    +0.000 OA
ATOM     26  H   UNL     1       0.256   3.254  20.214  0.00  0.00    +0.000 HD
ATOM     27  H   UNL     1       0.195   2.126  21.556  0.00  0.00    +0.000 HD
ENDBRANCH   4  23
BRANCH   1  29
ATOM     28  C   UNL     1       5.252   3.761  15.624  0.00  0.00    +0.000 C 
ATOM     29  C   UNL     1       5.688   4.714  16.739  0.00  0.00    +0.000 C 
BRANCH  29  30
ATOM     30  C   UNL     1       7.178   5.057  16.527  0.00  0.00    +0.000 C 
ATOM     31  N   UNL     1       8.067   4.307  17.250  0.00  0.00    +0.000 N 
ATOM     32  O   UNL     1       7.575   5.905  15.734  0.00  0.00    +0.000 OA
ATOM     33  H   UNL     1       7.734   3.628  17.924  0.00  0.00    +0.000 HD
ATOM     34  H   UNL     1       9.055   4.479  17.147  0.00  0.00    +0.000 HD
ENDBRANCH  29  30
ENDBRANCH   1  29
TORSDOF 6
ENDMDL
MODEL 8
REMARK VINA RESULT:      -9.1      0.797      1.487
REMARK  Name = 
REMARK  7 active torsions:
REMARK  status: ('A' for Active; 'I' for Inactive)
REMARK    1  A    between atoms: C_1  and  C_2
REMARK    2  A    between atoms: C_2  and  N_3
REMARK    3  A    between atoms: C_2  and  C_27
REMARK    4  A    between atoms: C_6  and  C_7
REMARK    5  A    between atoms: C_11  and  C_12
REMARK    6  A    between atoms: C_15  and  O_16
REMARK    7  A    between atoms: O_16  and  C_17
REMARK                            x       y       z     vdW  Elec       q    Type
REMARK                         _______ _______ _______ _____ _____    ______ ____
ROOT
ATOM      1  N   UNL     1       6.175   4.645  18.606  0.00  0.00    +0.000 N 
ATOM      2  C   UNL     1       4.854   4.787  19.064  0.00  0.00    +0.000 A 
ATOM      3  C   UNL     1       4.308   3.761  19.791  0.00  0.00    +0.000 A 
ATOM      4  C   UNL     1       3.002   3.933  20.187  0.00  0.00    +0.000 A 
ATOM      5  N   UNL     1       2.284   5.061  19.984  0.00  0.00    +0.000 NA
ATOM      6  C   UNL     1       2.931   6.037  19.335  0.00  0.00    +0.000 A 
ATOM      7  N   UNL     1       4.185   5.927  18.851  0.00  0.00    +0.000 NA
ATOM      8  H   UNL     1       6.781   4.914  19.382  0.00  0.00    +0.000 HD
ENDROOT
BRANCH   6   9
ATOM      9  C   UNL     1       2.262   7.350  19.204  0.00  0.00    +0.000 A 
ATOM     10  C   UNL     1       1.574   7.945  20.279  0.00  0.00    +0.000 A 
ATOM     11  C   UNL     1       1.013   9.224  20.168  0.00  0.00    +0.000 A 
ATOM     12  C   UNL     1       1.124   9.940  18.978  0.00  0.00    +0.000 A 
ATOM     13  C   UNL     1       1.728   9.339  17.876  0.00  0.00    +0.000 A 
ATOM     14  C   UNL     1       2.315   8.075  17.999  0.00  0.00    +0.000 A 
BRANCH  12  15
ATOM     15  O   UNL     1       0.566  11.197  18.971  0.00  0.00    +0.000 OA
BRANCH  15  16
ATOM     16  C   UNL     1      -0.802  11.346  18.888  0.00  0.00    +0.000 A 
ATOM     17  C   UNL     1      -1.383  12.169  19.858  0.00  0.00    +0.000 A 
ATOM     18  C   UNL     1      -2.764  12.377  19.865  0.00  0.00    +0.000 A 
ATOM     19  C   UNL     1      -3.554  11.757  18.903  0.00  0.00    +0.000 A 
ATOM     20  F   UNL     1      -4.881  11.935  18.924  0.00  0.00    +0.000 F 
ATOM     21  C   UNL     1      -2.986  10.965  17.913  0.00  0.00    +0.000 A 
ATOM     22  C   UNL     1      -1.602  10.784  17.887  0.00  0.00    +0.000 A 
ENDBRANCH  15  16
ENDBRANCH  12  15
ENDBRANCH   6   9
BRANCH   4  23
ATOM     23  C   UNL     1       2.292   2.803  20.857  0.00  0.00    +0.000 C 
ATOM     24  N   UNL     1       1.448   2.075  20.067  0.00  0.00    +0.000 N 
ATOM     25  O   UNL     1       2.468   2.524  22.040  0.00  0.00    +0.000 OA
ATOM     26  H   UNL     1       1.371   2.287  19.079  0.00  0.00    +0.000 HD
ATOM     27  H   UNL     1       0.997   1.256  20.449  0.00  0.00    +0.000 HD
ENDBRANCH   4  23
BRANCH   1  29
ATOM     28  C   UNL     1       7.203   4.555  16.356  0.00  0.00    +0.000 C 
ATOM     29  C   UNL     1       6.518   5.442  17.399  0.00  0.00    +0.000 C 
BRANCH  29  30
ATOM     30  C   UNL     1       7.495   6.570  17.792  0.00  0.00    +0.000 C 
ATOM     31  N   UNL     1       8.141   6.403  18.988  0.00  0.00    +0.000 N 
ATOM     32  O   UNL     1       7.737   7.539  17.081  0.00  0.00    +0.000 OA
ATOM     33  H   UNL     1       7.917   5.616  19.585  0.00  0.00    +0.000 HD
ATOM     34  H   UNL     1       8.799   7.102  19.295  0.00  0.00    +0.000 HD
ENDBRANCH  29  30
ENDBRANCH   1  29
TORSDOF 6
ENDMDL
MODEL 9
REMARK VINA RESULT:      -9.1      2.894      3.384
REMARK  Name = 
REMARK  7 active torsions:
REMARK  status: ('A' for Active; 'I' for Inactive)
REMARK    1  A    between atoms: C_1  and  C_2
REMARK    2  A    between atoms: C_2  and  N_3
REMARK    3  A    between atoms: C_2  and  C_27
REMARK    4  A    between atoms: C_6  and  C_7
REMARK    5  A    between atoms: C_11  and  C_12
REMARK    6  A    between atoms: C_15  and  O_16
REMARK    7  A    between atoms: O_16  and  C_17
REMARK                            x       y       z     vdW  Elec       q    Type
REMARK                         _______ _______ _______ _____ _____    ______ ____
ROOT
ATOM      1  N   UNL     1       5.427   4.034  17.650  0.00  0.00    +0.000 N 
ATOM      2  C   UNL     1       4.356   4.416  18.475  0.00  0.00    +0.000 A 
ATOM      3  C   UNL     1       3.948   3.543  19.449  0.00  0.00    +0.000 A 
ATOM      4  C   UNL     1       2.874   3.948  20.209  0.00  0.00    +0.000 A 
ATOM      5  N   UNL     1       2.281   5.160  20.109  0.00  0.00    +0.000 NA
ATOM      6  C   UNL     1       2.803   5.974  19.182  0.00  0.00    +0.000 A 
ATOM      7  N   UNL     1       3.808   5.631  18.349  0.00  0.00    +0.000 NA
ATOM      8  H   UNL     1       6.282   4.256  18.163  0.00  0.00    +0.000 HD
ENDROOT
BRANCH   6   9
ATOM      9  C   UNL     1       2.304   7.364  19.114  0.00  0.00    +0.000 A 
ATOM     10  C   UNL     1       2.401   8.132  17.938  0.00  0.00    +0.000 A 
ATOM     11  C   UNL     1       1.852   9.420  17.860  0.00  0.00    +0.000 A 
ATOM     12  C   UNL     1       1.195   9.972  18.957  0.00  0.00    +0.000 A 
ATOM     13  C   UNL     1       1.160   9.263  20.157  0.00  0.00    +0.000 A 
ATOM     14  C   UNL     1       1.680   7.966  20.222  0.00  0.00    +0.000 A 
BRANCH  12  15
ATOM     15  O   UNL     1       0.666  11.229  18.779  0.00  0.00    +0.000 OA
BRANCH  15  16
ATOM     16  C   UNL     1       1.382  12.341  19.168  0.00  0.00    +0.000 A 
ATOM     17  C   UNL     1       2.270  12.854  18.217  0.00  0.00    +0.000 A 
ATOM     18  C   UNL     1       3.048  13.974  18.518  0.00  0.00    +0.000 A 
ATOM     19  C   UNL     1       2.933  14.572  19.768  0.00  0.00    +0.000 A 
ATOM     20  F   UNL     1       3.696  15.631  20.067  0.00  0.00    +0.000 F 
ATOM     21  C   UNL     1       2.029  14.094  20.709  0.00  0.00    +0.000 A 
ATOM     22  C   UNL     1       1.229  12.994  20.396  0.00  0.00    +0.000 A 
ENDBRANCH  15  16
ENDBRANCH  12  15
ENDBRANCH   6   9
BRANCH   4  23
ATOM     23  C   UNL     1       2.280   2.995  21.192  0.00  0.00    +0.000 C 
ATOM     24  N   UNL     1       0.922   2.854  21.143  0.00  0.00    +0.000 N 
ATOM     25  O   UNL     1       2.967   2.355  21.985  0.00  0.00    +0.000 OA
ATOM     26  H   UNL     1       0.388   3.345  20.436  0.00  0.00    +0.000 HD
ATOM     27  H   UNL     1       0.475   2.170  21.735  0.00  0.00    +0.000 HD
ENDBRANCH   4  23
BRANCH   1  29
ATOM     28  C   UNL     1       5.861   3.664  15.241  0.00  0.00    +0.000 C 
ATOM     29  C   UNL     1       5.460   4.682  16.311  0.00  0.00    +0.000 C 
BRANCH  29  30
ATOM     30  C   UNL     1       6.508   5.815  16.318  0.00  0.00    +0.000 C 
ATOM     31  N   UNL     1       6.077   7.017  16.814  0.00  0.00    +0.000 N 
ATOM     32  O   UNL     1       7.671   5.668  15.957  0.00  0.00    +0.000 OA
ATOM     33  H   UNL     1       5.109   7.141  17.084  0.00  0.00    +0.000 HD
ATOM     34  H   UNL     1       6.719   7.793  16.852  0.00  0.00    +0.000 HD
ENDBRANCH  29  30
ENDBRANCH   1  29
TORSDOF 6
ENDMDL
