MODEL 1
REMARK VINA RESULT:      -8.3      0.000      0.000
REMARK  Name = 
REMARK  4 active torsions:
REMARK  status: ('A' for Active; 'I' for Inactive)
REMARK    1  A    between atoms: C_1  and  C_2
REMARK    2  A    between atoms: C_2  and  C_3
REMARK    3  A    between atoms: C_3  and  N_4
REMARK    4  A    between atoms: C_12  and  C_14
REMARK                            x       y       z     vdW  Elec       q    Type
REMARK                         _______ _______ _______ _____ _____    ______ ____
ROOT
ATOM      1  N   UNL     1       6.515   4.883  16.084  0.00  0.00    +0.000 N 
ATOM      2  C   UNL     1       7.429   4.783  17.126  0.00  0.00    +0.000 C 
ATOM      3  O   UNL     1       8.415   4.052  17.101  0.00  0.00    +0.000 OA
ATOM      4  C   UNL     1       7.254   5.825  18.209  0.00  0.00    +0.000 C 
ATOM      5  C   UNL     1       5.814   6.148  18.556  0.00  0.00    +0.000 C 
ATOM      6  C   UNL     1       4.947   6.334  17.304  0.00  0.00    +0.000 C 
ATOM      7  C   UNL     1       3.472   6.503  17.655  0.00  0.00    +0.000 C 
ATOM      8  N   UNL     1       2.999   5.359  18.413  0.00  0.00    +0.000 N 
ATOM      9  C   UNL     1       2.314   5.581  19.629  0.00  0.00    +0.000 C 
ATOM     10  O   UNL     1       2.219   6.712  20.109  0.00  0.00    +0.000 OA
ATOM     11  C   UNL     1       3.246   4.028  17.860  0.00  0.00    +0.000 C 
ATOM     12  C   UNL     1       4.408   3.870  16.873  0.00  0.00    +0.000 C 
ATOM     13  C   UNL     1       5.095   5.143  16.361  0.00  0.00    +0.000 C 
ENDROOT
BRANCH   9  14
ATOM     14  C   UNL     1       1.771   4.413  20.361  0.00  0.00    +0.000 A 
ATOM     15  C   UNL     1       2.360   3.806  21.504  0.00  0.00    +0.000 A 
ATOM     16  C   UNL     1       1.563   2.726  21.803  0.00  0.00    +0.000 A 
ATOM     17  N   UNL     1       0.546   2.757  20.903  0.00  0.00    +0.000 N 
ATOM     18  N   UNL     1       0.627   3.777  20.033  0.00  0.00    +0.000 NA
ATOM     19  H   UNL     1      -0.231   2.111  20.810  0.00  0.00    +0.000 HD
ENDBRANCH   9  14
BRANCH   1  20
ATOM     20  C   UNL     1       6.929   4.488  14.741  0.00  0.00    +0.000 C 
BRANCH  20  22
ATOM     21  C   UNL     1       6.089   3.459  12.558  0.00  0.00    +0.000 C 
ATOM     22  C   UNL     1       5.719   4.185  13.848  0.00  0.00    +0.000 C 
ENDBRANCH  20  22
ENDBRANCH   1  20
TORSDOF 3
ENDMDL
MODEL 2
REMARK VINA RESULT:      -7.0      1.933      6.842
REMARK  Name = 
REMARK  4 active torsions:
REMARK  status: ('A' for Active; 'I' for Inactive)
REMARK    1  A    between atoms: C_1  and  C_2
REMARK    2  A    between atoms: C_2  and  C_3
REMARK    3  A    between atoms: C_3  and  N_4
REMARK    4  A    between atoms: C_12  and  C_14
REMARK                            x       y       z     vdW  Elec       q    Type
REMARK                         _______ _______ _______ _____ _____    ______ ____
ROOT
ATOM      1  N   UNL     1       2.683   3.391  18.699  0.00  0.00    +0.000 N 
ATOM      2  C   UNL     1       1.787   4.251  18.076  0.00  0.00    +0.000 C 
ATOM      3  O   UNL     1       0.626   3.950  17.809  0.00  0.00    +0.000 OA
ATOM      4  C   UNL     1       2.271   5.680  17.962  0.00  0.00    +0.000 C 
ATOM      5  C   UNL     1       3.743   5.828  17.632  0.00  0.00    +0.000 C 
ATOM      6  C   UNL     1       4.620   4.890  18.472  0.00  0.00    +0.000 C 
ATOM      7  C   UNL     1       6.080   4.929  18.029  0.00  0.00    +0.000 C 
ATOM      8  N   UNL     1       6.191   4.576  16.626  0.00  0.00    +0.000 N 
ATOM      9  C   UNL     1       6.917   5.428  15.763  0.00  0.00    +0.000 C 
ATOM     10  O   UNL     1       7.350   6.513  16.156  0.00  0.00    +0.000 OA
ATOM     11  C   UNL     1       5.552   3.337  16.183  0.00  0.00    +0.000 C 
ATOM     12  C   UNL     1       4.392   2.793  17.023  0.00  0.00    +0.000 C 
ATOM     13  C   UNL     1       4.117   3.452  18.381  0.00  0.00    +0.000 C 
ENDROOT
BRANCH   9  14
ATOM     14  C   UNL     1       7.088   5.026  14.347  0.00  0.00    +0.000 A 
ATOM     15  C   UNL     1       6.346   4.012  13.680  0.00  0.00    +0.000 A 
ATOM     16  C   UNL     1       6.881   3.933  12.416  0.00  0.00    +0.000 A 
ATOM     17  N   UNL     1       7.840   4.894  12.359  0.00  0.00    +0.000 N 
ATOM     18  N   UNL     1       7.974   5.589  13.500  0.00  0.00    +0.000 NA
ATOM     19  H   UNL     1       8.453   5.125  11.584  0.00  0.00    +0.000 HD
ENDBRANCH   9  14
BRANCH   1  20
ATOM     20  C   UNL     1       2.163   2.273  19.481  0.00  0.00    +0.000 C 
BRANCH  20  22
ATOM     21  C   UNL     1       2.126   3.027  21.922  0.00  0.00    +0.000 C 
ATOM     22  C   UNL     1       1.312   2.761  20.660  0.00  0.00    +0.000 C 
ENDBRANCH  20  22
ENDBRANCH   1  20
TORSDOF 3
ENDMDL
MODEL 3
REMARK VINA RESULT:      -7.0      1.934      6.693
REMARK  Name = 
REMARK  4 active torsions:
REMARK  status: ('A' for Active; 'I' for Inactive)
REMARK    1  A    between atoms: C_1  and  C_2
REMARK    2  A    between atoms: C_2  and  C_3
REMARK    3  A    between atoms: C_3  and  N_4
REMARK    4  A    between atoms: C_12  and  C_14
REMARK                            x       y       z     vdW  Elec       q    Type
REMARK                         _______ _______ _______ _____ _____    ______ ____
ROOT
ATOM      1  N   UNL     1       3.845   5.337  18.850  0.00  0.00    +0.000 N 
ATOM      2  C   UNL     1       3.078   6.315  18.229  0.00  0.00    +0.000 C 
ATOM      3  O   UNL     1       1.882   6.486  18.452  0.00  0.00    +0.000 OA
ATOM      4  C   UNL     1       3.877   7.319  17.428  0.00  0.00    +0.000 C 
ATOM      5  C   UNL     1       5.042   6.733  16.654  0.00  0.00    +0.000 C 
ATOM      6  C   UNL     1       5.861   5.750  17.501  0.00  0.00    +0.000 C 
ATOM      7  C   UNL     1       6.934   5.047  16.675  0.00  0.00    +0.000 C 
ATOM      8  N   UNL     1       6.332   4.346  15.557  0.00  0.00    +0.000 N 
ATOM      9  C   UNL     1       6.848   4.560  14.259  0.00  0.00    +0.000 C 
ATOM     10  O   UNL     1       7.712   5.414  14.050  0.00  0.00    +0.000 OA
ATOM     11  C   UNL     1       5.224   3.435  15.842  0.00  0.00    +0.000 C 
ATOM     12  C   UNL     1       4.420   3.669  17.125  0.00  0.00    +0.000 C 
ATOM     13  C   UNL     1       4.956   4.695  18.133  0.00  0.00    +0.000 C 
ENDROOT
BRANCH   9  14
ATOM     14  C   UNL     1       6.276   3.787  13.131  0.00  0.00    +0.000 A 
ATOM     15  C   UNL     1       4.939   3.883  12.657  0.00  0.00    +0.000 A 
ATOM     16  C   UNL     1       4.832   2.945  11.656  0.00  0.00    +0.000 A 
ATOM     17  N   UNL     1       6.066   2.389  11.539  0.00  0.00    +0.000 N 
ATOM     18  N   UNL     1       6.968   2.891  12.398  0.00  0.00    +0.000 NA
ATOM     19  H   UNL     1       6.365   1.652  10.908  0.00  0.00    +0.000 HD
ENDBRANCH   9  14
BRANCH   1  20
ATOM     20  C   UNL     1       3.392   4.783  20.122  0.00  0.00    +0.000 C 
BRANCH  20  22
ATOM     21  C   UNL     1       1.094   3.733  20.506  0.00  0.00    +0.000 C 
ATOM     22  C   UNL     1       2.489   3.561  19.913  0.00  0.00    +0.000 C 
ENDBRANCH  20  22
ENDBRANCH   1  20
TORSDOF 3
ENDMDL
MODEL 4
REMARK VINA RESULT:      -6.7      2.040      6.722
REMARK  Name = 
REMARK  4 active torsions:
REMARK  status: ('A' for Active; 'I' for Inactive)
REMARK    1  A    between atoms: C_1  and  C_2
REMARK    2  A    between atoms: C_2  and  C_3
REMARK    3  A    between atoms: C_3  and  N_4
REMARK    4  A    between atoms: C_12  and  C_14
REMARK                            x       y       z     vdW  Elec       q    Type
REMARK                         _______ _______ _______ _____ _____    ______ ____
ROOT
ATOM      1  N   UNL     1       2.379   2.963  19.252  0.00  0.00    +0.000 N 
ATOM      2  C   UNL     1       1.300   3.288  18.439  0.00  0.00    +0.000 C 
ATOM      3  O   UNL     1       0.346   2.540  18.242  0.00  0.00    +0.000 OA
ATOM      4  C   UNL     1       1.266   4.735  17.997  0.00  0.00    +0.000 C 
ATOM      5  C   UNL     1       2.619   5.326  17.652  0.00  0.00    +0.000 C 
ATOM      6  C   UNL     1       3.687   4.971  18.694  0.00  0.00    +0.000 C 
ATOM      7  C   UNL     1       5.076   5.435  18.265  0.00  0.00    +0.000 C 
ATOM      8  N   UNL     1       5.429   4.852  16.983  0.00  0.00    +0.000 N 
ATOM      9  C   UNL     1       5.888   5.700  15.951  0.00  0.00    +0.000 C 
ATOM     10  O   UNL     1       5.879   6.925  16.082  0.00  0.00    +0.000 OA
ATOM     11  C   UNL     1       5.303   3.402  16.838  0.00  0.00    +0.000 C 
ATOM     12  C   UNL     1       4.334   2.673  17.774  0.00  0.00    +0.000 C 
ATOM     13  C   UNL     1       3.725   3.465  18.939  0.00  0.00    +0.000 C 
ENDROOT
BRANCH   9  14
ATOM     14  C   UNL     1       6.315   5.090  14.669  0.00  0.00    +0.000 A 
ATOM     15  C   UNL     1       5.553   4.172  13.896  0.00  0.00    +0.000 A 
ATOM     16  C   UNL     1       6.359   3.820  12.838  0.00  0.00    +0.000 A 
ATOM     17  N   UNL     1       7.497   4.548  12.982  0.00  0.00    +0.000 N 
ATOM     18  N   UNL     1       7.494   5.344  14.064  0.00  0.00    +0.000 NA
ATOM     19  H   UNL     1       8.323   4.545  12.393  0.00  0.00    +0.000 HD
ENDBRANCH   9  14
BRANCH   1  20
ATOM     20  C   UNL     1       2.212   1.931  20.271  0.00  0.00    +0.000 C 
BRANCH  20  22
ATOM     21  C   UNL     1       2.169   3.934  21.856  0.00  0.00    +0.000 C 
ATOM     22  C   UNL     1       1.673   2.518  21.581  0.00  0.00    +0.000 C 
ENDBRANCH  20  22
ENDBRANCH   1  20
TORSDOF 3
ENDMDL
MODEL 5
REMARK VINA RESULT:      -6.6      2.430      6.348
REMARK  Name = 
REMARK  4 active torsions:
REMARK  status: ('A' for Active; 'I' for Inactive)
REMARK    1  A    between atoms: C_1  and  C_2
REMARK    2  A    between atoms: C_2  and  C_3
REMARK    3  A    between atoms: C_3  and  N_4
REMARK    4  A    between atoms: C_12  and  C_14
REMARK                            x       y       z     vdW  Elec       q    Type
REMARK                         _______ _______ _______ _____ _____    ______ ____
ROOT
ATOM      1  N   UNL     1       2.324   3.661  19.798  0.00  0.00    +0.000 N 
ATOM      2  C   UNL     1       3.101   3.061  20.781  0.00  0.00    +0.000 C 
ATOM      3  O   UNL     1       2.755   2.959  21.956  0.00  0.00    +0.000 OA
ATOM      4  C   UNL     1       4.311   2.322  20.254  0.00  0.00    +0.000 C 
ATOM      5  C   UNL     1       5.025   3.008  19.105  0.00  0.00    +0.000 C 
ATOM      6  C   UNL     1       4.044   3.527  18.045  0.00  0.00    +0.000 C 
ATOM      7  C   UNL     1       4.752   4.351  16.972  0.00  0.00    +0.000 C 
ATOM      8  N   UNL     1       5.456   5.467  17.576  0.00  0.00    +0.000 N 
ATOM      9  C   UNL     1       6.817   5.669  17.254  0.00  0.00    +0.000 C 
ATOM     10  O   UNL     1       7.438   4.853  16.570  0.00  0.00    +0.000 OA
ATOM     11  C   UNL     1       4.705   6.337  18.480  0.00  0.00    +0.000 C 
ATOM     12  C   UNL     1       3.460   5.756  19.159  0.00  0.00    +0.000 C 
ATOM     13  C   UNL     1       2.957   4.385  18.687  0.00  0.00    +0.000 C 
ENDROOT
BRANCH   9  14
ATOM     14  C   UNL     1       7.511   6.851  17.816  0.00  0.00    +0.000 A 
ATOM     15  C   UNL     1       7.464   8.169  17.284  0.00  0.00    +0.000 A 
ATOM     16  C   UNL     1       8.301   8.920  18.077  0.00  0.00    +0.000 A 
ATOM     17  N   UNL     1       8.753   8.075  19.040  0.00  0.00    +0.000 N 
ATOM     18  N   UNL     1       8.276   6.824  18.927  0.00  0.00    +0.000 NA
ATOM     19  H   UNL     1       9.398   8.274  19.798  0.00  0.00    +0.000 HD
ENDBRANCH   9  14
BRANCH   1  20
ATOM     20  C   UNL     1       0.883   3.775  20.007  0.00  0.00    +0.000 C 
BRANCH  20  22
ATOM     21  C   UNL     1       1.003   1.672  18.561  0.00  0.00    +0.000 C 
ATOM     22  C   UNL     1       0.111   2.755  19.161  0.00  0.00    +0.000 C 
ENDBRANCH  20  22
ENDBRANCH   1  20
TORSDOF 3
ENDMDL
MODEL 6
REMARK VINA RESULT:      -6.2      1.740      6.529
REMARK  Name = 
REMARK  4 active torsions:
REMARK  status: ('A' for Active; 'I' for Inactive)
REMARK    1  A    between atoms: C_1  and  C_2
REMARK    2  A    between atoms: C_2  and  C_3
REMARK    3  A    between atoms: C_3  and  N_4
REMARK    4  A    between atoms: C_12  and  C_14
REMARK                            x       y       z     vdW  Elec       q    Type
REMARK                         _______ _______ _______ _____ _____    ______ ____
ROOT
ATOM      1  N   UNL     1       3.133   4.395  19.493  0.00  0.00    +0.000 N 
ATOM      2  C   UNL     1       2.342   5.408  18.965  0.00  0.00    +0.000 C 
ATOM      3  O   UNL     1       1.114   5.369  18.937  0.00  0.00    +0.000 OA
ATOM      4  C   UNL     1       3.093   6.681  18.640  0.00  0.00    +0.000 C 
ATOM      5  C   UNL     1       4.470   6.471  18.042  0.00  0.00    +0.000 C 
ATOM      6  C   UNL     1       5.268   5.398  18.793  0.00  0.00    +0.000 C 
ATOM      7  C   UNL     1       6.588   5.080  18.096  0.00  0.00    +0.000 C 
ATOM      8  N   UNL     1       6.347   4.646  16.732  0.00  0.00    +0.000 N 
ATOM      9  C   UNL     1       7.060   5.268  15.682  0.00  0.00    +0.000 C 
ATOM     10  O   UNL     1       7.784   6.242  15.894  0.00  0.00    +0.000 OA
ATOM     11  C   UNL     1       5.382   3.568  16.522  0.00  0.00    +0.000 C 
ATOM     12  C   UNL     1       4.316   3.344  17.600  0.00  0.00    +0.000 C 
ATOM     13  C   UNL     1       4.457   4.111  18.921  0.00  0.00    +0.000 C 
ENDROOT
BRANCH   9  14
ATOM     14  C   UNL     1       6.862   4.772  14.300  0.00  0.00    +0.000 A 
ATOM     15  C   UNL     1       5.874   3.835  13.891  0.00  0.00    +0.000 A 
ATOM     16  C   UNL     1       6.102   3.616  12.552  0.00  0.00    +0.000 A 
ATOM     17  N   UNL     1       7.134   4.433  12.215  0.00  0.00    +0.000 N 
ATOM     18  N   UNL     1       7.601   5.163  13.241  0.00  0.00    +0.000 NA
ATOM     19  H   UNL     1       7.583   4.537  11.311  0.00  0.00    +0.000 HD
ENDBRANCH   9  14
BRANCH   1  20
ATOM     20  C   UNL     1       2.545   3.464  20.451  0.00  0.00    +0.000 C 
BRANCH  20  22
ATOM     21  C   UNL     1       1.032   2.082  18.926  0.00  0.00    +0.000 C 
ATOM     22  C   UNL     1       2.273   2.097  19.812  0.00  0.00    +0.000 C 
ENDBRANCH  20  22
ENDBRANCH   1  20
TORSDOF 3
ENDMDL
MODEL 7
REMARK VINA RESULT:      -5.9      2.493      3.781
REMARK  Name = 
REMARK  4 active torsions:
REMARK  status: ('A' for Active; 'I' for Inactive)
REMARK    1  A    between atoms: C_1  and  C_2
REMARK    2  A    between atoms: C_2  and  C_3
REMARK    3  A    between atoms: C_3  and  N_4
REMARK    4  A    between atoms: C_12  and  C_14
REMARK                            x       y       z     vdW  Elec       q    Type
REMARK                         _______ _______ _______ _____ _____    ______ ____
ROOT
ATOM      1  N   UNL     1       6.176   6.767  16.901  0.00  0.00    +0.000 N 
ATOM      2  C   UNL     1       5.520   6.387  15.737  0.00  0.00    +0.000 C 
ATOM      3  O   UNL     1       5.093   7.182  14.903  0.00  0.00    +0.000 OA
ATOM      4  C   UNL     1       5.579   4.903  15.445  0.00  0.00    +0.000 C 
ATOM      5  C   UNL     1       5.441   4.010  16.662  0.00  0.00    +0.000 C 
ATOM      6  C   UNL     1       6.303   4.495  17.835  0.00  0.00    +0.000 C 
ATOM      7  C   UNL     1       6.044   3.687  19.103  0.00  0.00    +0.000 C 
ATOM      8  N   UNL     1       4.640   3.755  19.466  0.00  0.00    +0.000 N 
ATOM      9  C   UNL     1       3.942   2.553  19.720  0.00  0.00    +0.000 C 
ATOM     10  O   UNL     1       4.469   1.457  19.524  0.00  0.00    +0.000 OA
ATOM     11  C   UNL     1       4.027   5.079  19.565  0.00  0.00    +0.000 C 
ATOM     12  C   UNL     1       4.675   6.226  18.783  0.00  0.00    +0.000 C 
ATOM     13  C   UNL     1       6.039   5.969  18.128  0.00  0.00    +0.000 C 
ENDROOT
BRANCH   9  14
ATOM     14  C   UNL     1       2.529   2.633  20.161  0.00  0.00    +0.000 A 
ATOM     15  C   UNL     1       1.397   2.682  19.302  0.00  0.00    +0.000 A 
ATOM     16  C   UNL     1       0.308   2.821  20.131  0.00  0.00    +0.000 A 
ATOM     17  N   UNL     1       0.802   2.796  21.397  0.00  0.00    +0.000 N 
ATOM     18  N   UNL     1       2.137   2.659  21.451  0.00  0.00    +0.000 NA
ATOM     19  H   UNL     1       0.294   2.882  22.271  0.00  0.00    +0.000 HD
ENDBRANCH   9  14
BRANCH   1  20
ATOM     20  C   UNL     1       6.799   8.086  16.963  0.00  0.00    +0.000 C 
BRANCH  20  22
ATOM     21  C   UNL     1       8.501   9.492  18.249  0.00  0.00    +0.000 C 
ATOM     22  C   UNL     1       8.013   8.089  17.899  0.00  0.00    +0.000 C 
ENDBRANCH  20  22
ENDBRANCH   1  20
TORSDOF 3
ENDMDL
MODEL 8
REMARK VINA RESULT:      -5.8      3.564      5.565
REMARK  Name = 
REMARK  4 active torsions:
REMARK  status: ('A' for Active; 'I' for Inactive)
REMARK    1  A    between atoms: C_1  and  C_2
REMARK    2  A    between atoms: C_2  and  C_3
REMARK    3  A    between atoms: C_3  and  N_4
REMARK    4  A    between atoms: C_12  and  C_14
REMARK                            x       y       z     vdW  Elec       q    Type
REMARK                         _______ _______ _______ _____ _____    ______ ____
ROOT
ATOM      1  N   UNL     1       3.334   4.536  18.385  0.00  0.00    +0.000 N 
ATOM      2  C   UNL     1       2.144   3.892  18.072  0.00  0.00    +0.000 C 
ATOM      3  O   UNL     1       1.999   3.165  17.092  0.00  0.00    +0.000 OA
ATOM      4  C   UNL     1       1.095   3.957  19.160  0.00  0.00    +0.000 C 
ATOM      5  C   UNL     1       1.013   5.285  19.886  0.00  0.00    +0.000 C 
ATOM      6  C   UNL     1       2.401   5.823  20.262  0.00  0.00    +0.000 C 
ATOM      7  C   UNL     1       2.324   7.228  20.852  0.00  0.00    +0.000 C 
ATOM      8  N   UNL     1       1.684   8.134  19.916  0.00  0.00    +0.000 N 
ATOM      9  C   UNL     1       0.611   8.936  20.366  0.00  0.00    +0.000 C 
ATOM     10  O   UNL     1       0.139   8.792  21.495  0.00  0.00    +0.000 OA
ATOM     11  C   UNL     1       2.203   8.178  18.549  0.00  0.00    +0.000 C 
ATOM     12  C   UNL     1       2.962   6.950  18.034  0.00  0.00    +0.000 C 
ATOM     13  C   UNL     1       3.319   5.850  19.043  0.00  0.00    +0.000 C 
ENDROOT
BRANCH   9  14
ATOM     14  C   UNL     1       0.010   9.910  19.425  0.00  0.00    +0.000 A 
ATOM     15  C   UNL     1      -1.211   9.732  18.719  0.00  0.00    +0.000 A 
ATOM     16  C   UNL     1      -1.342  10.843  17.918  0.00  0.00    +0.000 A 
ATOM     17  N   UNL     1      -0.273  11.631  18.203  0.00  0.00    +0.000 N 
ATOM     18  N   UNL     1       0.551  11.110  19.127  0.00  0.00    +0.000 NA
ATOM     19  H   UNL     1      -0.030  12.530  17.799  0.00  0.00    +0.000 HD
ENDBRANCH   9  14
BRANCH   1  20
ATOM     20  C   UNL     1       4.585   4.015  17.841  0.00  0.00    +0.000 C 
BRANCH  20  22
ATOM     21  C   UNL     1       7.024   4.769  17.742  0.00  0.00    +0.000 C 
ATOM     22  C   UNL     1       5.797   4.541  18.619  0.00  0.00    +0.000 C 
ENDBRANCH  20  22
ENDBRANCH   1  20
TORSDOF 3
ENDMDL
MODEL 9
REMARK VINA RESULT:      -5.6      1.595      6.697
REMARK  Name = 
REMARK  4 active torsions:
REMARK  status: ('A' for Active; 'I' for Inactive)
REMARK    1  A    between atoms: C_1  and  C_2
REMARK    2  A    between atoms: C_2  and  C_3
REMARK    3  A    between atoms: C_3  and  N_4
REMARK    4  A    between atoms: C_12  and  C_14
REMARK                            x       y       z     vdW  Elec       q    Type
REMARK                         _______ _______ _______ _____ _____    ______ ____
ROOT
ATOM      1  N   UNL     1       2.856   5.604  18.841  0.00  0.00    +0.000 N 
ATOM      2  C   UNL     1       2.367   6.694  18.132  0.00  0.00    +0.000 C 
ATOM      3  O   UNL     1       1.172   6.954  18.019  0.00  0.00    +0.000 OA
ATOM      4  C   UNL     1       3.428   7.684  17.702  0.00  0.00    +0.000 C 
ATOM      5  C   UNL     1       4.729   7.060  17.237  0.00  0.00    +0.000 C 
ATOM      6  C   UNL     1       5.200   5.942  18.177  0.00  0.00    +0.000 C 
ATOM      7  C   UNL     1       6.423   5.214  17.624  0.00  0.00    +0.000 C 
ATOM      8  N   UNL     1       6.132   4.663  16.314  0.00  0.00    +0.000 N 
ATOM      9  C   UNL     1       7.019   4.934  15.247  0.00  0.00    +0.000 C 
ATOM     10  O   UNL     1       7.958   5.720  15.384  0.00  0.00    +0.000 OA
ATOM     11  C   UNL     1       4.934   3.835  16.173  0.00  0.00    +0.000 C 
ATOM     12  C   UNL     1       3.806   4.036  17.190  0.00  0.00    +0.000 C 
ATOM     13  C   UNL     1       4.086   4.925  18.410  0.00  0.00    +0.000 C 
ENDROOT
BRANCH   9  14
ATOM     14  C   UNL     1       6.756   4.310  13.929  0.00  0.00    +0.000 A 
ATOM     15  C   UNL     1       7.409   4.642  12.711  0.00  0.00    +0.000 A 
ATOM     16  C   UNL     1       6.807   3.872  11.744  0.00  0.00    +0.000 A 
ATOM     17  N   UNL     1       5.896   3.104  12.399  0.00  0.00    +0.000 N 
ATOM     18  N   UNL     1       5.857   3.325  13.723  0.00  0.00    +0.000 NA
ATOM     19  H   UNL     1       5.257   2.419  12.009  0.00  0.00    +0.000 HD
ENDBRANCH   9  14
BRANCH   1  20
ATOM     20  C   UNL     1       2.015   4.993  19.866  0.00  0.00    +0.000 C 
BRANCH  20  22
ATOM     21  C   UNL     1       1.855   2.984  21.437  0.00  0.00    +0.000 C 
ATOM     22  C   UNL     1       2.771   3.903  20.636  0.00  0.00    +0.000 C 
ENDBRANCH  20  22
ENDBRANCH   1  20
TORSDOF 3
ENDMDL
