MODEL 1
REMARK VINA RESULT:      -6.7      0.000      0.000
REMARK  Name = 
REMARK  4 active torsions:
REMARK  status: ('A' for Active; 'I' for Inactive)
REMARK    1  A    between atoms: N_5  and  C_6
REMARK    2  A    between atoms: N_15  and  C_16
REMARK    3  A    between atoms: C_21  and  O_22
REMARK    4  A    between atoms: C_21  and  C_23
REMARK                            x       y       z     vdW  Elec       q    Type
REMARK                         _______ _______ _______ _____ _____    ______ ____
ROOT
ATOM      1  O   UNL     1      -2.142  10.424  18.759  0.00  0.00    +0.000 OA
ATOM      2  C   UNL     1      -0.975  10.781  18.817  0.00  0.00    +0.000 C 
ATOM      3  N   UNL     1       0.008  10.299  17.994  0.00  0.00    +0.000 N 
ATOM      4  C   UNL     1       1.314  10.727  18.348  0.00  0.00    +0.000 C 
ATOM      5  N   UNL     1       1.116  11.681  19.435  0.00  0.00    +0.000 N 
ATOM      6  C   UNL     1      -0.354  11.838  19.752  0.00  0.00    +0.000 C 
ATOM      7  C   UNL     1      -0.966  13.184  19.335  0.00  0.00    +0.000 C 
ATOM      8  C   UNL     1      -0.982  14.225  20.456  0.00  0.00    +0.000 C 
ATOM      9  N   UNL     1      -1.651  13.787  21.697  0.00  0.00    +0.000 NA
ATOM     10  C   UNL     1      -0.911  12.597  22.178  0.00  0.00    +0.000 C 
ATOM     11  C   UNL     1      -0.694  11.433  21.190  0.00  0.00    +0.000 C 
ATOM     12  H   UNL     1      -0.192   9.571  17.324  0.00  0.00    +0.000 HD
ENDROOT
BRANCH   5  13
ATOM     13  C   UNL     1       1.950  12.791  19.515  0.00  0.00    +0.000 A 
ATOM     14  C   UNL     1       2.429  13.318  20.724  0.00  0.00    +0.000 A 
ATOM     15  C   UNL     1       3.391  14.334  20.745  0.00  0.00    +0.000 A 
ATOM     16  C   UNL     1       3.898  14.841  19.553  0.00  0.00    +0.000 A 
ATOM     17  C   UNL     1       3.398  14.373  18.344  0.00  0.00    +0.000 A 
ATOM     18  C   UNL     1       2.411  13.385  18.334  0.00  0.00    +0.000 A 
ENDBRANCH   5  13
BRANCH   9  19
ATOM     19  C   UNL     1      -3.143  13.603  21.588  0.00  0.00    +0.000 C 
ATOM     20  C   UNL     1      -3.883  14.813  20.924  0.00  0.00    +0.000 C 
ATOM     21  C   UNL     1      -3.930  16.079  21.785  0.00  0.00    +0.000 C 
ATOM     22  C   UNL     1      -4.474  15.834  23.185  0.00  0.00    +0.000 C 
ATOM     23  C   UNL     1      -3.818  14.624  23.843  0.00  0.00    +0.000 C 
ATOM     24  C   UNL     1      -3.918  13.332  22.977  0.00  0.00    +0.000 C 
BRANCH  24  25
ATOM     25  C   UNL     1      -5.370  12.857  22.783  0.00  0.00    +0.000 A 
ATOM     26  C   UNL     1      -5.918  12.577  21.520  0.00  0.00    +0.000 A 
ATOM     27  C   UNL     1      -7.184  12.002  21.403  0.00  0.00    +0.000 A 
ATOM     28  C   UNL     1      -7.899  11.750  22.556  0.00  0.00    +0.000 A 
ATOM     29  N   UNL     1      -7.461  12.078  23.783  0.00  0.00    +0.000 NA
ATOM     30  C   UNL     1      -6.231  12.643  23.863  0.00  0.00    +0.000 A 
ENDBRANCH  24  25
BRANCH  24  31
ATOM     31  O   UNL     1      -3.293  12.284  23.730  0.00  0.00    +0.000 OA
ATOM     32  H   UNL     1      -2.437  12.640  24.026  0.00  0.00    +0.000 HD
ENDBRANCH  24  31
ENDBRANCH   9  19
TORSDOF 4
ENDMDL
MODEL 2
REMARK VINA RESULT:      -6.4      0.593      1.272
REMARK  Name = 
REMARK  4 active torsions:
REMARK  status: ('A' for Active; 'I' for Inactive)
REMARK    1  A    between atoms: N_5  and  C_6
REMARK    2  A    between atoms: N_15  and  C_16
REMARK    3  A    between atoms: C_21  and  O_22
REMARK    4  A    between atoms: C_21  and  C_23
REMARK                            x       y       z     vdW  Elec       q    Type
REMARK                         _______ _______ _______ _____ _____    ______ ____
ROOT
ATOM      1  O   UNL     1      -1.915  10.387  18.857  0.00  0.00    +0.000 OA
ATOM      2  C   UNL     1      -0.760  10.783  18.850  0.00  0.00    +0.000 C 
ATOM      3  N   UNL     1       0.209  10.285  18.019  0.00  0.00    +0.000 N 
ATOM      4  C   UNL     1       1.511  10.774  18.297  0.00  0.00    +0.000 C 
ATOM      5  N   UNL     1       1.321  11.783  19.335  0.00  0.00    +0.000 N 
ATOM      6  C   UNL     1      -0.140  11.912  19.699  0.00  0.00    +0.000 C 
ATOM      7  C   UNL     1      -0.812  13.212  19.229  0.00  0.00    +0.000 C 
ATOM      8  C   UNL     1      -0.822  14.315  20.288  0.00  0.00    +0.000 C 
ATOM      9  N   UNL     1      -1.431  13.930  21.576  0.00  0.00    +0.000 NA
ATOM     10  C   UNL     1      -0.634  12.794  22.097  0.00  0.00    +0.000 C 
ATOM     11  C   UNL     1      -0.414  11.581  21.170  0.00  0.00    +0.000 C 
ATOM     12  H   UNL     1       0.008   9.513  17.400  0.00  0.00    +0.000 HD
ENDROOT
BRANCH   5  13
ATOM     13  C   UNL     1       2.120  12.921  19.319  0.00  0.00    +0.000 A 
ATOM     14  C   UNL     1       2.407  13.654  18.157  0.00  0.00    +0.000 A 
ATOM     15  C   UNL     1       3.081  14.879  18.216  0.00  0.00    +0.000 A 
ATOM     16  C   UNL     1       3.479  15.399  19.443  0.00  0.00    +0.000 A 
ATOM     17  C   UNL     1       3.255  14.665  20.601  0.00  0.00    +0.000 A 
ATOM     18  C   UNL     1       2.614  13.426  20.529  0.00  0.00    +0.000 A 
ENDBRANCH   5  13
BRANCH   9  19
ATOM     19  C   UNL     1      -2.919  13.693  21.535  0.00  0.00    +0.000 C 
ATOM     20  C   UNL     1      -3.728  14.863  20.879  0.00  0.00    +0.000 C 
ATOM     21  C   UNL     1      -3.783  16.145  21.715  0.00  0.00    +0.000 C 
ATOM     22  C   UNL     1      -4.258  15.912  23.142  0.00  0.00    +0.000 C 
ATOM     23  C   UNL     1      -3.534  14.741  23.795  0.00  0.00    +0.000 C 
ATOM     24  C   UNL     1      -3.625  13.427  22.962  0.00  0.00    +0.000 C 
BRANCH  24  25
ATOM     25  C   UNL     1      -5.066  12.899  22.840  0.00  0.00    +0.000 A 
ATOM     26  C   UNL     1      -5.990  12.956  23.897  0.00  0.00    +0.000 A 
ATOM     27  C   UNL     1      -7.327  12.609  23.696  0.00  0.00    +0.000 A 
ATOM     28  C   UNL     1      -7.710  12.173  22.444  0.00  0.00    +0.000 A 
ATOM     29  N   UNL     1      -6.852  12.016  21.422  0.00  0.00    +0.000 NA
ATOM     30  C   UNL     1      -5.559  12.352  21.652  0.00  0.00    +0.000 A 
ENDBRANCH  24  25
BRANCH  24  31
ATOM     31  O   UNL     1      -2.932  12.418  23.709  0.00  0.00    +0.000 OA
ATOM     32  H   UNL     1      -3.260  12.488  24.622  0.00  0.00    +0.000 HD
ENDBRANCH  24  31
ENDBRANCH   9  19
TORSDOF 4
ENDMDL
MODEL 3
REMARK VINA RESULT:      -6.2      2.169      7.602
REMARK  Name = 
REMARK  4 active torsions:
REMARK  status: ('A' for Active; 'I' for Inactive)
REMARK    1  A    between atoms: N_5  and  C_6
REMARK    2  A    between atoms: N_15  and  C_16
REMARK    3  A    between atoms: C_21  and  O_22
REMARK    4  A    between atoms: C_21  and  C_23
REMARK                            x       y       z     vdW  Elec       q    Type
REMARK                         _______ _______ _______ _____ _____    ______ ____
ROOT
ATOM      1  O   UNL     1      -5.284  12.060  24.516  0.00  0.00    +0.000 OA
ATOM      2  C   UNL     1      -5.952  12.962  24.034  0.00  0.00    +0.000 C 
ATOM      3  N   UNL     1      -7.133  13.404  24.571  0.00  0.00    +0.000 N 
ATOM      4  C   UNL     1      -7.817  14.343  23.757  0.00  0.00    +0.000 C 
ATOM      5  N   UNL     1      -6.908  14.614  22.648  0.00  0.00    +0.000 N 
ATOM      6  C   UNL     1      -5.632  13.817  22.791  0.00  0.00    +0.000 C 
ATOM      7  C   UNL     1      -4.389  14.643  23.154  0.00  0.00    +0.000 C 
ATOM      8  C   UNL     1      -3.560  15.071  21.942  0.00  0.00    +0.000 C 
ATOM      9  N   UNL     1      -3.129  13.964  21.066  0.00  0.00    +0.000 NA
ATOM     10  C   UNL     1      -4.363  13.308  20.576  0.00  0.00    +0.000 C 
ATOM     11  C   UNL     1      -5.403  12.854  21.621  0.00  0.00    +0.000 C 
ATOM     12  H   UNL     1      -7.532  12.950  25.379  0.00  0.00    +0.000 HD
ENDROOT
BRANCH   5  13
ATOM     13  C   UNL     1      -6.848  15.903  22.128  0.00  0.00    +0.000 A 
ATOM     14  C   UNL     1      -6.810  16.186  20.754  0.00  0.00    +0.000 A 
ATOM     15  C   UNL     1      -6.913  17.498  20.277  0.00  0.00    +0.000 A 
ATOM     16  C   UNL     1      -7.060  18.555  21.169  0.00  0.00    +0.000 A 
ATOM     17  C   UNL     1      -7.044  18.304  22.535  0.00  0.00    +0.000 A 
ATOM     18  C   UNL     1      -6.904  16.995  23.002  0.00  0.00    +0.000 A 
ENDBRANCH   5  13
BRANCH   9  19
ATOM     19  C   UNL     1      -2.112  13.030  21.670  0.00  0.00    +0.000 C 
ATOM     20  C   UNL     1      -1.127  13.727  22.668  0.00  0.00    +0.000 C 
ATOM     21  C   UNL     1      -0.118  14.674  22.010  0.00  0.00    +0.000 C 
ATOM     22  C   UNL     1       0.657  14.027  20.871  0.00  0.00    +0.000 C 
ATOM     23  C   UNL     1      -0.265  13.287  19.908  0.00  0.00    +0.000 C 
ATOM     24  C   UNL     1      -1.175  12.241  20.620  0.00  0.00    +0.000 C 
BRANCH  24  25
ATOM     25  C   UNL     1      -0.373  11.092  21.260  0.00  0.00    +0.000 A 
ATOM     26  C   UNL     1      -0.584  10.659  22.580  0.00  0.00    +0.000 A 
ATOM     27  C   UNL     1       0.053   9.518  23.067  0.00  0.00    +0.000 A 
ATOM     28  C   UNL     1       0.924   8.847  22.232  0.00  0.00    +0.000 A 
ATOM     29  N   UNL     1       1.229   9.265  20.992  0.00  0.00    +0.000 NA
ATOM     30  C   UNL     1       0.600  10.383  20.552  0.00  0.00    +0.000 A 
ENDBRANCH  24  25
BRANCH  24  31
ATOM     31  O   UNL     1      -1.954  11.610  19.594  0.00  0.00    +0.000 OA
ATOM     32  H   UNL     1      -1.354  10.992  19.143  0.00  0.00    +0.000 HD
ENDBRANCH  24  31
ENDBRANCH   9  19
TORSDOF 4
ENDMDL
MODEL 4
REMARK VINA RESULT:      -6.2      2.031      7.411
REMARK  Name = 
REMARK  4 active torsions:
REMARK  status: ('A' for Active; 'I' for Inactive)
REMARK    1  A    between atoms: N_5  and  C_6
REMARK    2  A    between atoms: N_15  and  C_16
REMARK    3  A    between atoms: C_21  and  O_22
REMARK    4  A    between atoms: C_21  and  C_23
REMARK                            x       y       z     vdW  Elec       q    Type
REMARK                         _______ _______ _______ _____ _____    ______ ____
ROOT
ATOM      1  O   UNL     1      -4.915  11.960  24.404  0.00  0.00    +0.000 OA
ATOM      2  C   UNL     1      -5.607  12.857  23.948  0.00  0.00    +0.000 C 
ATOM      3  N   UNL     1      -6.721  13.350  24.575  0.00  0.00    +0.000 N 
ATOM      4  C   UNL     1      -7.462  14.270  23.790  0.00  0.00    +0.000 C 
ATOM      5  N   UNL     1      -6.659  14.471  22.587  0.00  0.00    +0.000 N 
ATOM      6  C   UNL     1      -5.392  13.649  22.642  0.00  0.00    +0.000 C 
ATOM      7  C   UNL     1      -4.103  14.460  22.847  0.00  0.00    +0.000 C 
ATOM      8  C   UNL     1      -3.388  14.815  21.542  0.00  0.00    +0.000 C 
ATOM      9  N   UNL     1      -3.066  13.662  20.680  0.00  0.00    +0.000 NA
ATOM     10  C   UNL     1      -4.355  13.015  20.341  0.00  0.00    +0.000 C 
ATOM     11  C   UNL     1      -5.298  12.632  21.500  0.00  0.00    +0.000 C 
ATOM     12  H   UNL     1      -7.049  12.941  25.438  0.00  0.00    +0.000 HD
ENDROOT
BRANCH   5  13
ATOM     13  C   UNL     1      -6.625  15.734  22.006  0.00  0.00    +0.000 A 
ATOM     14  C   UNL     1      -6.385  16.914  22.726  0.00  0.00    +0.000 A 
ATOM     15  C   UNL     1      -6.201  18.140  22.076  0.00  0.00    +0.000 A 
ATOM     16  C   UNL     1      -6.249  18.207  20.687  0.00  0.00    +0.000 A 
ATOM     17  C   UNL     1      -6.540  17.062  19.956  0.00  0.00    +0.000 A 
ATOM     18  C   UNL     1      -6.758  15.851  20.617  0.00  0.00    +0.000 A 
ENDBRANCH   5  13
BRANCH   9  19
ATOM     19  C   UNL     1      -2.015  12.729  21.225  0.00  0.00    +0.000 C 
ATOM     20  C   UNL     1      -0.940  13.440  22.116  0.00  0.00    +0.000 C 
ATOM     21  C   UNL     1       0.022  14.351  21.347  0.00  0.00    +0.000 C 
ATOM     22  C   UNL     1       0.690  13.659  20.167  0.00  0.00    +0.000 C 
ATOM     23  C   UNL     1      -0.319  12.906  19.307  0.00  0.00    +0.000 C 
ATOM     24  C   UNL     1      -1.180  11.896  20.124  0.00  0.00    +0.000 C 
BRANCH  24  25
ATOM     25  C   UNL     1      -0.342  10.753  20.729  0.00  0.00    +0.000 A 
ATOM     26  C   UNL     1      -0.416  10.390  22.084  0.00  0.00    +0.000 A 
ATOM     27  C   UNL     1       0.241   9.253  22.555  0.00  0.00    +0.000 A 
ATOM     28  C   UNL     1       0.996   8.516  21.665  0.00  0.00    +0.000 A 
ATOM     29  N   UNL     1       1.171   8.866  20.379  0.00  0.00    +0.000 NA
ATOM     30  C   UNL     1       0.527   9.981  19.955  0.00  0.00    +0.000 A 
ENDBRANCH  24  25
BRANCH  24  31
ATOM     31  O   UNL     1      -2.050  11.248  19.187  0.00  0.00    +0.000 OA
ATOM     32  H   UNL     1      -2.881  11.754  19.197  0.00  0.00    +0.000 HD
ENDBRANCH  24  31
ENDBRANCH   9  19
TORSDOF 4
ENDMDL
MODEL 5
REMARK VINA RESULT:      -6.2      2.899      6.598
REMARK  Name = 
REMARK  4 active torsions:
REMARK  status: ('A' for Active; 'I' for Inactive)
REMARK    1  A    between atoms: N_5  and  C_6
REMARK    2  A    between atoms: N_15  and  C_16
REMARK    3  A    between atoms: C_21  and  O_22
REMARK    4  A    between atoms: C_21  and  C_23
REMARK                            x       y       z     vdW  Elec       q    Type
REMARK                         _______ _______ _______ _____ _____    ______ ____
ROOT
ATOM      1  O   UNL     1      -5.102  14.127  22.829  0.00  0.00    +0.000 OA
ATOM      2  C   UNL     1      -4.434  14.914  23.483  0.00  0.00    +0.000 C 
ATOM      3  N   UNL     1      -4.920  15.616  24.554  0.00  0.00    +0.000 N 
ATOM      4  C   UNL     1      -4.021  16.590  25.057  0.00  0.00    +0.000 C 
ATOM      5  N   UNL     1      -2.788  16.394  24.299  0.00  0.00    +0.000 N 
ATOM      6  C   UNL     1      -2.943  15.265  23.305  0.00  0.00    +0.000 C 
ATOM      7  C   UNL     1      -2.163  13.987  23.650  0.00  0.00    +0.000 C 
ATOM      8  C   UNL     1      -0.789  13.908  22.981  0.00  0.00    +0.000 C 
ATOM      9  N   UNL     1      -0.808  14.045  21.512  0.00  0.00    +0.000 NA
ATOM     10  C   UNL     1      -1.390  15.376  21.220  0.00  0.00    +0.000 C 
ATOM     11  C   UNL     1      -2.751  15.725  21.856  0.00  0.00    +0.000 C 
ATOM     12  H   UNL     1      -5.892  15.545  24.817  0.00  0.00    +0.000 HD
ENDROOT
BRANCH   5  13
ATOM     13  C   UNL     1      -1.569  16.569  24.943  0.00  0.00    +0.000 A 
ATOM     14  C   UNL     1      -0.502  17.302  24.401  0.00  0.00    +0.000 A 
ATOM     15  C   UNL     1       0.645  17.585  25.153  0.00  0.00    +0.000 A 
ATOM     16  C   UNL     1       0.744  17.141  26.468  0.00  0.00    +0.000 A 
ATOM     17  C   UNL     1      -0.276  16.367  27.007  0.00  0.00    +0.000 A 
ATOM     18  C   UNL     1      -1.400  16.059  26.236  0.00  0.00    +0.000 A 
ENDBRANCH   5  13
BRANCH   9  19
ATOM     19  C   UNL     1      -1.447  12.899  20.771  0.00  0.00    +0.000 C 
ATOM     20  C   UNL     1      -1.276  11.513  21.481  0.00  0.00    +0.000 C 
ATOM     21  C   UNL     1       0.151  10.957  21.457  0.00  0.00    +0.000 C 
ATOM     22  C   UNL     1       0.754  10.911  20.060  0.00  0.00    +0.000 C 
ATOM     23  C   UNL     1       0.555  12.225  19.314  0.00  0.00    +0.000 C 
ATOM     24  C   UNL     1      -0.936  12.673  19.257  0.00  0.00    +0.000 C 
BRANCH  24  25
ATOM     25  C   UNL     1      -1.820  11.700  18.453  0.00  0.00    +0.000 A 
ATOM     26  C   UNL     1      -1.289  10.713  17.605  0.00  0.00    +0.000 A 
ATOM     27  C   UNL     1      -2.118   9.756  17.019  0.00  0.00    +0.000 A 
ATOM     28  C   UNL     1      -3.474   9.825  17.263  0.00  0.00    +0.000 A 
ATOM     29  N   UNL     1      -4.045  10.797  17.995  0.00  0.00    +0.000 NA
ATOM     30  C   UNL     1      -3.214  11.718  18.542  0.00  0.00    +0.000 A 
ENDBRANCH  24  25
BRANCH  24  31
ATOM     31  O   UNL     1      -0.969  13.894  18.506  0.00  0.00    +0.000 OA
ATOM     32  H   UNL     1      -1.665  14.440  18.911  0.00  0.00    +0.000 HD
ENDBRANCH  24  31
ENDBRANCH   9  19
TORSDOF 4
ENDMDL
MODEL 6
REMARK VINA RESULT:      -6.1      2.130      7.948
REMARK  Name = 
REMARK  4 active torsions:
REMARK  status: ('A' for Active; 'I' for Inactive)
REMARK    1  A    between atoms: N_5  and  C_6
REMARK    2  A    between atoms: N_15  and  C_16
REMARK    3  A    between atoms: C_21  and  O_22
REMARK    4  A    between atoms: C_21  and  C_23
REMARK                            x       y       z     vdW  Elec       q    Type
REMARK                         _______ _______ _______ _____ _____    ______ ____
ROOT
ATOM      1  O   UNL     1      -1.244  16.513  22.577  0.00  0.00    +0.000 OA
ATOM      2  C   UNL     1      -2.276  16.185  23.143  0.00  0.00    +0.000 C 
ATOM      3  N   UNL     1      -3.000  17.023  23.949  0.00  0.00    +0.000 N 
ATOM      4  C   UNL     1      -4.066  16.384  24.631  0.00  0.00    +0.000 C 
ATOM      5  N   UNL     1      -4.092  15.024  24.100  0.00  0.00    +0.000 N 
ATOM      6  C   UNL     1      -3.009  14.830  23.064  0.00  0.00    +0.000 C 
ATOM      7  C   UNL     1      -3.512  14.705  21.618  0.00  0.00    +0.000 C 
ATOM      8  C   UNL     1      -3.709  13.259  21.159  0.00  0.00    +0.000 C 
ATOM      9  N   UNL     1      -2.518  12.398  21.302  0.00  0.00    +0.000 NA
ATOM     10  C   UNL     1      -2.176  12.386  22.743  0.00  0.00    +0.000 C 
ATOM     11  C   UNL     1      -2.004  13.743  23.457  0.00  0.00    +0.000 C 
ATOM     12  H   UNL     1      -2.668  17.955  24.152  0.00  0.00    +0.000 HD
ENDROOT
BRANCH   5  13
ATOM     13  C   UNL     1      -5.320  14.395  23.925  0.00  0.00    +0.000 A 
ATOM     14  C   UNL     1      -5.526  13.022  24.126  0.00  0.00    +0.000 A 
ATOM     15  C   UNL     1      -6.809  12.464  24.093  0.00  0.00    +0.000 A 
ATOM     16  C   UNL     1      -7.916  13.275  23.862  0.00  0.00    +0.000 A 
ATOM     17  C   UNL     1      -7.732  14.627  23.605  0.00  0.00    +0.000 A 
ATOM     18  C   UNL     1      -6.444  15.167  23.604  0.00  0.00    +0.000 A 
ENDBRANCH   5  13
BRANCH   9  19
ATOM     19  C   UNL     1      -1.372  12.735  20.383  0.00  0.00    +0.000 C 
ATOM     20  C   UNL     1      -1.764  12.760  18.866  0.00  0.00    +0.000 C 
ATOM     21  C   UNL     1      -2.066  11.384  18.265  0.00  0.00    +0.000 C 
ATOM     22  C   UNL     1      -0.960  10.366  18.506  0.00  0.00    +0.000 C 
ATOM     23  C   UNL     1      -0.510  10.354  19.962  0.00  0.00    +0.000 C 
ATOM     24  C   UNL     1      -0.088  11.762  20.481  0.00  0.00    +0.000 C 
BRANCH  24  25
ATOM     25  C   UNL     1       1.153  12.315  19.755  0.00  0.00    +0.000 A 
ATOM     26  C   UNL     1       1.724  11.688  18.635  0.00  0.00    +0.000 A 
ATOM     27  C   UNL     1       2.749  12.304  17.917  0.00  0.00    +0.000 A 
ATOM     28  C   UNL     1       3.215  13.526  18.357  0.00  0.00    +0.000 A 
ATOM     29  N   UNL     1       2.767  14.130  19.471  0.00  0.00    +0.000 NA
ATOM     30  C   UNL     1       1.777  13.501  20.151  0.00  0.00    +0.000 A 
ENDBRANCH  24  25
BRANCH  24  31
ATOM     31  O   UNL     1       0.335  11.589  21.840  0.00  0.00    +0.000 OA
ATOM     32  H   UNL     1       0.350  12.479  22.232  0.00  0.00    +0.000 HD
ENDBRANCH  24  31
ENDBRANCH   9  19
TORSDOF 4
ENDMDL
MODEL 7
REMARK VINA RESULT:      -6.1      3.305      8.150
REMARK  Name = 
REMARK  4 active torsions:
REMARK  status: ('A' for Active; 'I' for Inactive)
REMARK    1  A    between atoms: N_5  and  C_6
REMARK    2  A    between atoms: N_15  and  C_16
REMARK    3  A    between atoms: C_21  and  O_22
REMARK    4  A    between atoms: C_21  and  C_23
REMARK                            x       y       z     vdW  Elec       q    Type
REMARK                         _______ _______ _______ _____ _____    ______ ____
ROOT
ATOM      1  O   UNL     1       0.157  14.471  22.998  0.00  0.00    +0.000 OA
ATOM      2  C   UNL     1      -0.426  13.565  22.420  0.00  0.00    +0.000 C 
ATOM      3  N   UNL     1      -1.459  12.854  22.970  0.00  0.00    +0.000 N 
ATOM      4  C   UNL     1      -1.873  11.746  22.189  0.00  0.00    +0.000 C 
ATOM      5  N   UNL     1      -1.100  11.844  20.955  0.00  0.00    +0.000 N 
ATOM      6  C   UNL     1      -0.188  13.049  20.987  0.00  0.00    +0.000 C 
ATOM      7  C   UNL     1      -0.597  14.196  20.050  0.00  0.00    +0.000 C 
ATOM      8  C   UNL     1       0.099  14.155  18.688  0.00  0.00    +0.000 C 
ATOM      9  N   UNL     1       1.573  14.123  18.749  0.00  0.00    +0.000 NA
ATOM     10  C   UNL     1       1.939  12.896  19.494  0.00  0.00    +0.000 C 
ATOM     11  C   UNL     1       1.293  12.671  20.877  0.00  0.00    +0.000 C 
ATOM     12  H   UNL     1      -1.751  13.024  23.922  0.00  0.00    +0.000 HD
ENDROOT
BRANCH   5  13
ATOM     13  C   UNL     1      -1.699  11.478  19.755  0.00  0.00    +0.000 A 
ATOM     14  C   UNL     1      -2.931  11.986  19.315  0.00  0.00    +0.000 A 
ATOM     15  C   UNL     1      -3.416  11.711  18.031  0.00  0.00    +0.000 A 
ATOM     16  C   UNL     1      -2.673  10.923  17.158  0.00  0.00    +0.000 A 
ATOM     17  C   UNL     1      -1.477  10.364  17.591  0.00  0.00    +0.000 A 
ATOM     18  C   UNL     1      -1.019  10.614  18.887  0.00  0.00    +0.000 A 
ENDBRANCH   5  13
BRANCH   9  19
ATOM     19  C   UNL     1       2.220  15.387  19.255  0.00  0.00    +0.000 C 
ATOM     20  C   UNL     1       1.381  16.681  18.978  0.00  0.00    +0.000 C 
ATOM     21  C   UNL     1       1.321  17.098  17.506  0.00  0.00    +0.000 C 
ATOM     22  C   UNL     1       2.694  17.211  16.857  0.00  0.00    +0.000 C 
ATOM     23  C   UNL     1       3.562  15.994  17.154  0.00  0.00    +0.000 C 
ATOM     24  C   UNL     1       3.695  15.697  18.678  0.00  0.00    +0.000 C 
BRANCH  24  25
ATOM     25  C   UNL     1       4.425  16.819  19.441  0.00  0.00    +0.000 A 
ATOM     26  C   UNL     1       3.855  17.493  20.534  0.00  0.00    +0.000 A 
ATOM     27  C   UNL     1       4.608  18.390  21.291  0.00  0.00    +0.000 A 
ATOM     28  C   UNL     1       5.915  18.628  20.917  0.00  0.00    +0.000 A 
ATOM     29  N   UNL     1       6.484  18.078  19.830  0.00  0.00    +0.000 NA
ATOM     30  C   UNL     1       5.722  17.218  19.111  0.00  0.00    +0.000 A 
ENDBRANCH  24  25
BRANCH  24  31
ATOM     31  O   UNL     1       4.556  14.557  18.801  0.00  0.00    +0.000 OA
ATOM     32  H   UNL     1       4.876  14.365  17.903  0.00  0.00    +0.000 HD
ENDBRANCH  24  31
ENDBRANCH   9  19
TORSDOF 4
ENDMDL
MODEL 8
REMARK VINA RESULT:      -6.0      2.749      6.633
REMARK  Name = 
REMARK  4 active torsions:
REMARK  status: ('A' for Active; 'I' for Inactive)
REMARK    1  A    between atoms: N_5  and  C_6
REMARK    2  A    between atoms: N_15  and  C_16
REMARK    3  A    between atoms: C_21  and  O_22
REMARK    4  A    between atoms: C_21  and  C_23
REMARK                            x       y       z     vdW  Elec       q    Type
REMARK                         _______ _______ _______ _____ _____    ______ ____
ROOT
ATOM      1  O   UNL     1      -5.375  14.149  22.720  0.00  0.00    +0.000 OA
ATOM      2  C   UNL     1      -4.763  14.979  23.375  0.00  0.00    +0.000 C 
ATOM      3  N   UNL     1      -5.326  15.718  24.381  0.00  0.00    +0.000 N 
ATOM      4  C   UNL     1      -4.478  16.733  24.893  0.00  0.00    +0.000 C 
ATOM      5  N   UNL     1      -3.198  16.529  24.220  0.00  0.00    +0.000 N 
ATOM      6  C   UNL     1      -3.270  15.354  23.272  0.00  0.00    +0.000 C 
ATOM      7  C   UNL     1      -2.489  14.110  23.721  0.00  0.00    +0.000 C 
ATOM      8  C   UNL     1      -1.076  14.030  23.141  0.00  0.00    +0.000 C 
ATOM      9  N   UNL     1      -1.007  14.101  21.669  0.00  0.00    +0.000 NA
ATOM     10  C   UNL     1      -1.595  15.404  21.281  0.00  0.00    +0.000 C 
ATOM     11  C   UNL     1      -2.999  15.752  21.817  0.00  0.00    +0.000 C 
ATOM     12  H   UNL     1      -6.312  15.638  24.589  0.00  0.00    +0.000 HD
ENDROOT
BRANCH   5  13
ATOM     13  C   UNL     1      -2.023  16.759  24.928  0.00  0.00    +0.000 A 
ATOM     14  C   UNL     1      -1.737  16.173  26.170  0.00  0.00    +0.000 A 
ATOM     15  C   UNL     1      -0.477  16.308  26.766  0.00  0.00    +0.000 A 
ATOM     16  C   UNL     1       0.524  17.031  26.126  0.00  0.00    +0.000 A 
ATOM     17  C   UNL     1       0.246  17.665  24.922  0.00  0.00    +0.000 A 
ATOM     18  C   UNL     1      -1.025  17.555  24.353  0.00  0.00    +0.000 A 
ENDBRANCH   5  13
BRANCH   9  19
ATOM     19  C   UNL     1      -1.578  12.909  20.944  0.00  0.00    +0.000 C 
ATOM     20  C   UNL     1      -1.388  11.554  21.707  0.00  0.00    +0.000 C 
ATOM     21  C   UNL     1       0.057  11.048  21.755  0.00  0.00    +0.000 C 
ATOM     22  C   UNL     1       0.715  10.977  20.383  0.00  0.00    +0.000 C 
ATOM     23  C   UNL     1       0.500  12.259  19.586  0.00  0.00    +0.000 C 
ATOM     24  C   UNL     1      -1.003  12.652  19.458  0.00  0.00    +0.000 C 
BRANCH  24  25
ATOM     25  C   UNL     1      -1.821  11.623  18.656  0.00  0.00    +0.000 A 
ATOM     26  C   UNL     1      -3.225  11.628  18.619  0.00  0.00    +0.000 A 
ATOM     27  C   UNL     1      -3.920  10.777  17.759  0.00  0.00    +0.000 A 
ATOM     28  C   UNL     1      -3.194   9.904  16.974  0.00  0.00    +0.000 A 
ATOM     29  N   UNL     1      -1.856   9.795  17.032  0.00  0.00    +0.000 NA
ATOM     30  C   UNL     1      -1.212  10.630  17.885  0.00  0.00    +0.000 A 
ENDBRANCH  24  25
BRANCH  24  31
ATOM     31  O   UNL     1      -1.048  13.846  18.665  0.00  0.00    +0.000 OA
ATOM     32  H   UNL     1      -1.548  14.496  19.188  0.00  0.00    +0.000 HD
ENDBRANCH  24  31
ENDBRANCH   9  19
TORSDOF 4
ENDMDL
MODEL 9
REMARK VINA RESULT:      -5.9      2.941      8.414
REMARK  Name = 
REMARK  4 active torsions:
REMARK  status: ('A' for Active; 'I' for Inactive)
REMARK    1  A    between atoms: N_5  and  C_6
REMARK    2  A    between atoms: N_15  and  C_16
REMARK    3  A    between atoms: C_21  and  O_22
REMARK    4  A    between atoms: C_21  and  C_23
REMARK                            x       y       z     vdW  Elec       q    Type
REMARK                         _______ _______ _______ _____ _____    ______ ____
ROOT
ATOM      1  O   UNL     1       2.208  11.034  18.233  0.00  0.00    +0.000 OA
ATOM      2  C   UNL     1       1.093  11.131  18.721  0.00  0.00    +0.000 C 
ATOM      3  N   UNL     1       0.181  10.109  18.740  0.00  0.00    +0.000 N 
ATOM      4  C   UNL     1      -1.102  10.493  19.207  0.00  0.00    +0.000 C 
ATOM      5  N   UNL     1      -0.945  11.876  19.647  0.00  0.00    +0.000 N 
ATOM      6  C   UNL     1       0.476  12.347  19.441  0.00  0.00    +0.000 C 
ATOM      7  C   UNL     1       1.290  12.532  20.731  0.00  0.00    +0.000 C 
ATOM      8  C   UNL     1       1.274  13.965  21.267  0.00  0.00    +0.000 C 
ATOM      9  N   UNL     1       1.715  14.991  20.302  0.00  0.00    +0.000 NA
ATOM     10  C   UNL     1       0.784  14.915  19.151  0.00  0.00    +0.000 C 
ATOM     11  C   UNL     1       0.570  13.540  18.484  0.00  0.00    +0.000 C 
ATOM     12  H   UNL     1       0.385   9.228  18.289  0.00  0.00    +0.000 HD
ENDROOT
BRANCH   5  13
ATOM     13  C   UNL     1      -1.649  12.309  20.765  0.00  0.00    +0.000 A 
ATOM     14  C   UNL     1      -2.571  13.367  20.741  0.00  0.00    +0.000 A 
ATOM     15  C   UNL     1      -3.371  13.661  21.851  0.00  0.00    +0.000 A 
ATOM     16  C   UNL     1      -3.266  12.897  23.009  0.00  0.00    +0.000 A 
ATOM     17  C   UNL     1      -2.321  11.881  23.075  0.00  0.00    +0.000 A 
ATOM     18  C   UNL     1      -1.502  11.618  21.974  0.00  0.00    +0.000 A 
ENDBRANCH   5  13
BRANCH   9  19
ATOM     19  C   UNL     1       3.176  14.941  19.938  0.00  0.00    +0.000 C 
ATOM     20  C   UNL     1       4.103  14.467  21.109  0.00  0.00    +0.000 C 
ATOM     21  C   UNL     1       4.247  15.474  22.253  0.00  0.00    +0.000 C 
ATOM     22  C   UNL     1       4.659  16.863  21.784  0.00  0.00    +0.000 C 
ATOM     23  C   UNL     1       3.817  17.335  20.604  0.00  0.00    +0.000 C 
ATOM     24  C   UNL     1       3.815  16.327  19.415  0.00  0.00    +0.000 C 
BRANCH  24  25
ATOM     25  C   UNL     1       5.208  16.156  18.780  0.00  0.00    +0.000 A 
ATOM     26  C   UNL     1       6.243  17.090  18.950  0.00  0.00    +0.000 A 
ATOM     27  C   UNL     1       7.531  16.821  18.487  0.00  0.00    +0.000 A 
ATOM     28  C   UNL     1       7.754  15.631  17.825  0.00  0.00    +0.000 A 
ATOM     29  N   UNL     1       6.783  14.741  17.557  0.00  0.00    +0.000 NA
ATOM     30  C   UNL     1       5.541  15.037  18.012  0.00  0.00    +0.000 A 
ENDBRANCH  24  25
BRANCH  24  31
ATOM     31  O   UNL     1       3.016  16.915  18.380  0.00  0.00    +0.000 OA
ATOM     32  H   UNL     1       3.229  16.428  17.567  0.00  0.00    +0.000 HD
ENDBRANCH  24  31
ENDBRANCH   9  19
TORSDOF 4
ENDMDL
