MODEL 1
REMARK VINA RESULT:      -8.1      0.000      0.000
REMARK  Name = 
REMARK  10 active torsions:
REMARK  status: ('A' for Active; 'I' for Inactive)
REMARK    1  A    between atoms: C_1  and  C_2
REMARK    2  A    between atoms: C_2  and  N_3
REMARK    3  A    between atoms: N_3  and  C_4
REMARK    4  A    between atoms: N_3  and  C_26
REMARK    5  A    between atoms: C_4  and  C_5
REMARK    6  A    between atoms: C_5  and  N_6
REMARK    7  A    between atoms: C_7  and  C_9
REMARK    8  A    between atoms: C_12  and  C_13
REMARK    9  A    between atoms: C_13  and  S_14
REMARK   10  A    between atoms: S_14  and  C_15
REMARK                            x       y       z     vdW  Elec       q    Type
REMARK                         _______ _______ _______ _____ _____    ______ ____
ROOT
ATOM      1  C   UNL     1       2.339   6.820  19.022  0.00  0.00    +0.000 A 
ATOM      2  C   UNL     1       1.792   7.346  20.198  0.00  0.00    +0.000 A 
ATOM      3  C   UNL     1       1.395   8.688  20.230  0.00  0.00    +0.000 A 
ATOM      4  C   UNL     1       1.567   9.521  19.114  0.00  0.00    +0.000 A 
ATOM      5  C   UNL     1       2.072   8.948  17.932  0.00  0.00    +0.000 A 
ATOM      6  C   UNL     1       2.456   7.608  17.889  0.00  0.00    +0.000 A 
ENDROOT
BRANCH   1   8
ATOM      7  N   UNL     1       3.071   4.892  17.723  0.00  0.00    +0.000 N 
ATOM      8  C   UNL     1       2.818   5.419  18.984  0.00  0.00    +0.000 C 
ATOM      9  O   UNL     1       2.977   4.798  20.033  0.00  0.00    +0.000 OA
ATOM     10  H   UNL     1       2.853   5.403  16.885  0.00  0.00    +0.000 HD
BRANCH   7  11
ATOM     11  C   UNL     1       3.515   3.509  17.673  0.00  0.00    +0.000 C 
BRANCH  11  12
ATOM     12  C   UNL     1       4.983   3.230  17.339  0.00  0.00    +0.000 C 
BRANCH  12  13
ATOM     13  N   UNL     1       5.636   4.274  16.508  0.00  0.00    +0.000 N 
BRANCH  13  14
ATOM     14  C   UNL     1       6.408   5.230  17.202  0.00  0.00    +0.000 A 
ATOM     15  C   UNL     1       6.522   6.559  16.764  0.00  0.00    +0.000 A 
ATOM     16  C   UNL     1       7.319   7.496  17.425  0.00  0.00    +0.000 A 
ATOM     17  C   UNL     1       8.028   7.130  18.564  0.00  0.00    +0.000 A 
ATOM     18  C   UNL     1       7.931   5.828  19.035  0.00  0.00    +0.000 A 
ATOM     19  C   UNL     1       7.136   4.894  18.364  0.00  0.00    +0.000 A 
ENDBRANCH  13  14
BRANCH  13  21
ATOM     20  C   UNL     1       5.981   3.990  13.931  0.00  0.00    +0.000 C 
ATOM     21  C   UNL     1       5.280   4.640  15.115  0.00  0.00    +0.000 C 
ENDBRANCH  13  21
ENDBRANCH  12  13
ENDBRANCH  11  12
ENDBRANCH   7  11
ENDBRANCH   1   8
BRANCH   4  22
ATOM     22  C   UNL     1       1.223  11.008  19.186  0.00  0.00    +0.000 C 
BRANCH  22  23
ATOM     23  S   UNL     1      -0.300  11.269  20.133  0.00  0.00    +0.000 S 
BRANCH  23  24
ATOM     24  C   UNL     1      -1.587  11.230  18.957  0.00  0.00    +0.000 A 
ATOM     25  N   UNL     1      -1.269  10.580  17.760  0.00  0.00    +0.000 NA
ATOM     26  C   UNL     1      -2.361  10.691  17.066  0.00  0.00    +0.000 A 
ATOM     27  C   UNL     1      -2.663  10.218  15.713  0.00  0.00    +0.000 A 
ATOM     28  C   UNL     1      -3.906  10.509  15.279  0.00  0.00    +0.000 A 
ATOM     29  N   UNL     1      -4.834  11.189  16.032  0.00  0.00    +0.000 N 
ATOM     30  C   UNL     1      -4.538  11.632  17.313  0.00  0.00    +0.000 A 
ATOM     31  C   UNL     1      -3.363  11.418  17.862  0.00  0.00    +0.000 A 
ATOM     32  N   UNL     1      -2.789  11.734  19.074  0.00  0.00    +0.000 NA
ATOM     33  H   UNL     1      -5.748  11.379  15.639  0.00  0.00    +0.000 HD
ENDBRANCH  23  24
ENDBRANCH  22  23
ENDBRANCH   4  22
TORSDOF 9
ENDMDL
MODEL 2
REMARK VINA RESULT:      -7.8      2.650      9.429
REMARK  Name = 
REMARK  10 active torsions:
REMARK  status: ('A' for Active; 'I' for Inactive)
REMARK    1  A    between atoms: C_1  and  C_2
REMARK    2  A    between atoms: C_2  and  N_3
REMARK    3  A    between atoms: N_3  and  C_4
REMARK    4  A    between atoms: N_3  and  C_26
REMARK    5  A    between atoms: C_4  and  C_5
REMARK    6  A    between atoms: C_5  and  N_6
REMARK    7  A    between atoms: C_7  and  C_9
REMARK    8  A    between atoms: C_12  and  C_13
REMARK    9  A    between atoms: C_13  and  S_14
REMARK   10  A    between atoms: S_14  and  C_15
REMARK                            x       y       z     vdW  Elec       q    Type
REMARK                         _______ _______ _______ _____ _____    ______ ____
ROOT
ATOM      1  C   UNL     1       2.153   7.033  18.520  0.00  0.00    +0.000 A 
ATOM      2  C   UNL     1       1.810   6.020  17.618  0.00  0.00    +0.000 A 
ATOM      3  C   UNL     1       1.805   4.688  18.052  0.00  0.00    +0.000 A 
ATOM      4  C   UNL     1       2.168   4.353  19.365  0.00  0.00    +0.000 A 
ATOM      5  C   UNL     1       2.457   5.400  20.260  0.00  0.00    +0.000 A 
ATOM      6  C   UNL     1       2.451   6.730  19.838  0.00  0.00    +0.000 A 
ENDROOT
BRANCH   1   8
ATOM      7  N   UNL     1       1.613   9.381  18.893  0.00  0.00    +0.000 N 
ATOM      8  C   UNL     1       2.221   8.442  18.067  0.00  0.00    +0.000 C 
ATOM      9  O   UNL     1       2.801   8.721  17.020  0.00  0.00    +0.000 OA
ATOM     10  H   UNL     1       1.080   9.107  19.700  0.00  0.00    +0.000 HD
BRANCH   7  11
ATOM     11  C   UNL     1       1.649  10.762  18.444  0.00  0.00    +0.000 C 
BRANCH  11  12
ATOM     12  C   UNL     1       0.631  11.744  19.032  0.00  0.00    +0.000 C 
BRANCH  12  13
ATOM     13  N   UNL     1      -0.522  11.100  19.714  0.00  0.00    +0.000 N 
BRANCH  13  14
ATOM     14  C   UNL     1      -1.704  10.971  18.954  0.00  0.00    +0.000 A 
ATOM     15  C   UNL     1      -1.843  10.003  17.947  0.00  0.00    +0.000 A 
ATOM     16  C   UNL     1      -2.996   9.901  17.166  0.00  0.00    +0.000 A 
ATOM     17  C   UNL     1      -4.063  10.768  17.378  0.00  0.00    +0.000 A 
ATOM     18  C   UNL     1      -3.968  11.731  18.373  0.00  0.00    +0.000 A 
ATOM     19  C   UNL     1      -2.807  11.831  19.146  0.00  0.00    +0.000 A 
ENDBRANCH  13  14
BRANCH  13  21
ATOM     20  C   UNL     1      -0.305   9.611  21.853  0.00  0.00    +0.000 C 
ATOM     21  C   UNL     1      -0.690  10.918  21.177  0.00  0.00    +0.000 C 
ENDBRANCH  13  21
ENDBRANCH  12  13
ENDBRANCH  11  12
ENDBRANCH   7  11
ENDBRANCH   1   8
BRANCH   4  22
ATOM     22  C   UNL     1       2.254   2.892  19.805  0.00  0.00    +0.000 C 
BRANCH  22  23
ATOM     23  S   UNL     1       3.516   2.009  18.851  0.00  0.00    +0.000 S 
BRANCH  23  24
ATOM     24  C   UNL     1       4.608   3.242  18.278  0.00  0.00    +0.000 A 
ATOM     25  N   UNL     1       5.391   3.840  19.270  0.00  0.00    +0.000 NA
ATOM     26  C   UNL     1       6.095   4.706  18.605  0.00  0.00    +0.000 A 
ATOM     27  C   UNL     1       7.103   5.657  19.082  0.00  0.00    +0.000 A 
ATOM     28  C   UNL     1       7.647   6.430  18.120  0.00  0.00    +0.000 A 
ATOM     29  N   UNL     1       7.301   6.348  16.793  0.00  0.00    +0.000 N 
ATOM     30  C   UNL     1       6.345   5.443  16.351  0.00  0.00    +0.000 A 
ATOM     31  C   UNL     1       5.734   4.627  17.181  0.00  0.00    +0.000 A 
ATOM     32  N   UNL     1       4.765   3.656  17.046  0.00  0.00    +0.000 NA
ATOM     33  H   UNL     1       7.746   6.965  16.125  0.00  0.00    +0.000 HD
ENDBRANCH  23  24
ENDBRANCH  22  23
ENDBRANCH   4  22
TORSDOF 9
ENDMDL
MODEL 3
REMARK VINA RESULT:      -7.7      2.502      9.461
REMARK  Name = 
REMARK  10 active torsions:
REMARK  status: ('A' for Active; 'I' for Inactive)
REMARK    1  A    between atoms: C_1  and  C_2
REMARK    2  A    between atoms: C_2  and  N_3
REMARK    3  A    between atoms: N_3  and  C_4
REMARK    4  A    between atoms: N_3  and  C_26
REMARK    5  A    between atoms: C_4  and  C_5
REMARK    6  A    between atoms: C_5  and  N_6
REMARK    7  A    between atoms: C_7  and  C_9
REMARK    8  A    between atoms: C_12  and  C_13
REMARK    9  A    between atoms: C_13  and  S_14
REMARK   10  A    between atoms: S_14  and  C_15
REMARK                            x       y       z     vdW  Elec       q    Type
REMARK                         _______ _______ _______ _____ _____    ______ ____
ROOT
ATOM      1  C   UNL     1       1.835   7.057  19.567  0.00  0.00    +0.000 A 
ATOM      2  C   UNL     1       1.688   6.081  20.558  0.00  0.00    +0.000 A 
ATOM      3  C   UNL     1       1.751   4.728  20.202  0.00  0.00    +0.000 A 
ATOM      4  C   UNL     1       1.925   4.338  18.866  0.00  0.00    +0.000 A 
ATOM      5  C   UNL     1       2.121   5.344  17.902  0.00  0.00    +0.000 A 
ATOM      6  C   UNL     1       2.074   6.694  18.252  0.00  0.00    +0.000 A 
ENDROOT
BRANCH   1   8
ATOM      7  N   UNL     1       1.773   9.385  18.848  0.00  0.00    +0.000 N 
ATOM      8  C   UNL     1       1.716   8.493  19.911  0.00  0.00    +0.000 C 
ATOM      9  O   UNL     1       1.567   8.830  21.084  0.00  0.00    +0.000 OA
ATOM     10  H   UNL     1       1.975   9.079  17.912  0.00  0.00    +0.000 HD
BRANCH   7  11
ATOM     11  C   UNL     1       1.684  10.798  19.178  0.00  0.00    +0.000 C 
BRANCH  11  12
ATOM     12  C   UNL     1       0.424  11.563  18.763  0.00  0.00    +0.000 C 
BRANCH  12  13
ATOM     13  N   UNL     1      -0.844  10.986  19.277  0.00  0.00    +0.000 N 
BRANCH  13  14
ATOM     14  C   UNL     1      -1.909  10.898  18.355  0.00  0.00    +0.000 A 
ATOM     15  C   UNL     1      -3.076  11.668  18.485  0.00  0.00    +0.000 A 
ATOM     16  C   UNL     1      -4.148  11.552  17.597  0.00  0.00    +0.000 A 
ATOM     17  C   UNL     1      -4.080  10.659  16.533  0.00  0.00    +0.000 A 
ATOM     18  C   UNL     1      -2.937   9.890  16.364  0.00  0.00    +0.000 A 
ATOM     19  C   UNL     1      -1.871  10.007  17.261  0.00  0.00    +0.000 A 
ENDBRANCH  13  14
BRANCH  13  21
ATOM     20  C   UNL     1      -0.772  11.846  21.746  0.00  0.00    +0.000 C 
ATOM     21  C   UNL     1      -1.230  10.839  20.703  0.00  0.00    +0.000 C 
ENDBRANCH  13  21
ENDBRANCH  12  13
ENDBRANCH  11  12
ENDBRANCH   7  11
ENDBRANCH   1   8
BRANCH   4  22
ATOM     22  C   UNL     1       1.895   2.862  18.470  0.00  0.00    +0.000 C 
BRANCH  22  23
ATOM     23  S   UNL     1       3.534   2.113  18.662  0.00  0.00    +0.000 S 
BRANCH  23  24
ATOM     24  C   UNL     1       4.662   3.326  18.117  0.00  0.00    +0.000 A 
ATOM     25  N   UNL     1       5.400   3.940  19.133  0.00  0.00    +0.000 NA
ATOM     26  C   UNL     1       6.143   4.787  18.485  0.00  0.00    +0.000 A 
ATOM     27  C   UNL     1       7.133   5.741  18.991  0.00  0.00    +0.000 A 
ATOM     28  C   UNL     1       7.729   6.489  18.041  0.00  0.00    +0.000 A 
ATOM     29  N   UNL     1       7.448   6.380  16.700  0.00  0.00    +0.000 N 
ATOM     30  C   UNL     1       6.509   5.472  16.232  0.00  0.00    +0.000 A 
ATOM     31  C   UNL     1       5.851   4.679  17.048  0.00  0.00    +0.000 A 
ATOM     32  N   UNL     1       4.883   3.712  16.886  0.00  0.00    +0.000 NA
ATOM     33  H   UNL     1       7.931   6.980  16.042  0.00  0.00    +0.000 HD
ENDBRANCH  23  24
ENDBRANCH  22  23
ENDBRANCH   4  22
TORSDOF 9
ENDMDL
MODEL 4
REMARK VINA RESULT:      -7.7      1.100      2.713
REMARK  Name = 
REMARK  10 active torsions:
REMARK  status: ('A' for Active; 'I' for Inactive)
REMARK    1  A    between atoms: C_1  and  C_2
REMARK    2  A    between atoms: C_2  and  N_3
REMARK    3  A    between atoms: N_3  and  C_4
REMARK    4  A    between atoms: N_3  and  C_26
REMARK    5  A    between atoms: C_4  and  C_5
REMARK    6  A    between atoms: C_5  and  N_6
REMARK    7  A    between atoms: C_7  and  C_9
REMARK    8  A    between atoms: C_12  and  C_13
REMARK    9  A    between atoms: C_13  and  S_14
REMARK   10  A    between atoms: S_14  and  C_15
REMARK                            x       y       z     vdW  Elec       q    Type
REMARK                         _______ _______ _______ _____ _____    ______ ____
ROOT
ATOM      1  C   UNL     1       2.517   6.797  19.614  0.00  0.00    +0.000 A 
ATOM      2  C   UNL     1       1.820   6.675  20.821  0.00  0.00    +0.000 A 
ATOM      3  C   UNL     1       0.969   7.711  21.229  0.00  0.00    +0.000 A 
ATOM      4  C   UNL     1       0.832   8.879  20.465  0.00  0.00    +0.000 A 
ATOM      5  C   UNL     1       1.507   8.946  19.232  0.00  0.00    +0.000 A 
ATOM      6  C   UNL     1       2.344   7.913  18.812  0.00  0.00    +0.000 A 
ENDROOT
BRANCH   1   8
ATOM      7  N   UNL     1       3.184   5.113  17.983  0.00  0.00    +0.000 N 
ATOM      8  C   UNL     1       3.464   5.740  19.191  0.00  0.00    +0.000 C 
ATOM      9  O   UNL     1       4.436   5.471  19.895  0.00  0.00    +0.000 OA
ATOM     10  H   UNL     1       2.338   5.303  17.474  0.00  0.00    +0.000 HD
BRANCH   7  11
ATOM     11  C   UNL     1       4.091   4.055  17.572  0.00  0.00    +0.000 C 
BRANCH  11  12
ATOM     12  C   UNL     1       4.519   3.996  16.102  0.00  0.00    +0.000 C 
BRANCH  12  13
ATOM     13  N   UNL     1       5.842   4.609  15.820  0.00  0.00    +0.000 N 
BRANCH  13  14
ATOM     14  C   UNL     1       6.324   4.475  14.500  0.00  0.00    +0.000 A 
ATOM     15  C   UNL     1       7.400   5.235  14.016  0.00  0.00    +0.000 A 
ATOM     16  C   UNL     1       7.851   5.133  12.699  0.00  0.00    +0.000 A 
ATOM     17  C   UNL     1       7.238   4.249  11.817  0.00  0.00    +0.000 A 
ATOM     18  C   UNL     1       6.179   3.471  12.262  0.00  0.00    +0.000 A 
ATOM     19  C   UNL     1       5.729   3.584  13.581  0.00  0.00    +0.000 A 
ENDBRANCH  13  14
BRANCH  13  21
ATOM     20  C   UNL     1       6.905   6.436  17.361  0.00  0.00    +0.000 C 
ATOM     21  C   UNL     1       6.857   5.013  16.824  0.00  0.00    +0.000 C 
ENDBRANCH  13  21
ENDBRANCH  12  13
ENDBRANCH  11  12
ENDBRANCH   7  11
ENDBRANCH   1   8
BRANCH   4  22
ATOM     22  C   UNL     1      -0.020  10.045  20.962  0.00  0.00    +0.000 C 
BRANCH  22  23
ATOM     23  S   UNL     1       0.106  11.458  19.835  0.00  0.00    +0.000 S 
BRANCH  23  24
ATOM     24  C   UNL     1      -1.288  11.343  18.793  0.00  0.00    +0.000 A 
ATOM     25  N   UNL     1      -1.070  10.659  17.593  0.00  0.00    +0.000 NA
ATOM     26  C   UNL     1      -2.228  10.716  17.008  0.00  0.00    +0.000 A 
ATOM     27  C   UNL     1      -2.646  10.187  15.707  0.00  0.00    +0.000 A 
ATOM     28  C   UNL     1      -3.934  10.429  15.389  0.00  0.00    +0.000 A 
ATOM     29  N   UNL     1      -4.803  11.112  16.207  0.00  0.00    +0.000 N 
ATOM     30  C   UNL     1      -4.397  11.609  17.437  0.00  0.00    +0.000 A 
ATOM     31  C   UNL     1      -3.168  11.445  17.874  0.00  0.00    +0.000 A 
ATOM     32  N   UNL     1      -2.488  11.820  19.012  0.00  0.00    +0.000 NA
ATOM     33  H   UNL     1      -5.757  11.263  15.900  0.00  0.00    +0.000 HD
ENDBRANCH  23  24
ENDBRANCH  22  23
ENDBRANCH   4  22
TORSDOF 9
ENDMDL
MODEL 5
REMARK VINA RESULT:      -7.7      1.181      2.022
REMARK  Name = 
REMARK  10 active torsions:
REMARK  status: ('A' for Active; 'I' for Inactive)
REMARK    1  A    between atoms: C_1  and  C_2
REMARK    2  A    between atoms: C_2  and  N_3
REMARK    3  A    between atoms: N_3  and  C_4
REMARK    4  A    between atoms: N_3  and  C_26
REMARK    5  A    between atoms: C_4  and  C_5
REMARK    6  A    between atoms: C_5  and  N_6
REMARK    7  A    between atoms: C_7  and  C_9
REMARK    8  A    between atoms: C_12  and  C_13
REMARK    9  A    between atoms: C_13  and  S_14
REMARK   10  A    between atoms: S_14  and  C_15
REMARK                            x       y       z     vdW  Elec       q    Type
REMARK                         _______ _______ _______ _____ _____    ______ ____
ROOT
ATOM      1  C   UNL     1       2.071   7.713  19.276  0.00  0.00    +0.000 A 
ATOM      2  C   UNL     1       2.207   8.437  18.087  0.00  0.00    +0.000 A 
ATOM      3  C   UNL     1       1.650   9.719  17.997  0.00  0.00    +0.000 A 
ATOM      4  C   UNL     1       0.933  10.274  19.067  0.00  0.00    +0.000 A 
ATOM      5  C   UNL     1       0.860   9.541  20.266  0.00  0.00    +0.000 A 
ATOM      6  C   UNL     1       1.424   8.269  20.367  0.00  0.00    +0.000 A 
ENDROOT
BRANCH   1   8
ATOM      7  N   UNL     1       3.583   5.988  18.452  0.00  0.00    +0.000 N 
ATOM      8  C   UNL     1       2.602   6.334  19.374  0.00  0.00    +0.000 C 
ATOM      9  O   UNL     1       2.178   5.575  20.243  0.00  0.00    +0.000 OA
ATOM     10  H   UNL     1       3.848   6.608  17.706  0.00  0.00    +0.000 HD
BRANCH   7  11
ATOM     11  C   UNL     1       4.091   4.628  18.521  0.00  0.00    +0.000 C 
BRANCH  11  12
ATOM     12  C   UNL     1       4.388   3.897  17.208  0.00  0.00    +0.000 C 
BRANCH  12  13
ATOM     13  N   UNL     1       5.755   4.120  16.674  0.00  0.00    +0.000 N 
BRANCH  13  14
ATOM     14  C   UNL     1       6.514   5.130  17.304  0.00  0.00    +0.000 A 
ATOM     15  C   UNL     1       6.634   6.421  16.766  0.00  0.00    +0.000 A 
ATOM     16  C   UNL     1       7.418   7.409  17.366  0.00  0.00    +0.000 A 
ATOM     17  C   UNL     1       8.106   7.134  18.543  0.00  0.00    +0.000 A 
ATOM     18  C   UNL     1       8.003   5.873  19.113  0.00  0.00    +0.000 A 
ATOM     19  C   UNL     1       7.221   4.888  18.502  0.00  0.00    +0.000 A 
ENDBRANCH  13  14
BRANCH  13  21
ATOM     20  C   UNL     1       5.720   4.263  14.062  0.00  0.00    +0.000 C 
ATOM     21  C   UNL     1       6.269   3.676  15.354  0.00  0.00    +0.000 C 
ENDBRANCH  13  21
ENDBRANCH  12  13
ENDBRANCH  11  12
ENDBRANCH   7  11
ENDBRANCH   1   8
BRANCH   4  22
ATOM     22  C   UNL     1       0.245  11.631  18.930  0.00  0.00    +0.000 C 
BRANCH  22  23
ATOM     23  S   UNL     1      -1.025  11.838  20.206  0.00  0.00    +0.000 S 
BRANCH  23  24
ATOM     24  C   UNL     1      -2.542  11.864  19.346  0.00  0.00    +0.000 A 
ATOM     25  N   UNL     1      -3.615  12.402  20.064  0.00  0.00    +0.000 NA
ATOM     26  C   UNL     1      -4.605  12.303  19.230  0.00  0.00    +0.000 A 
ATOM     27  C   UNL     1      -6.009  12.690  19.394  0.00  0.00    +0.000 A 
ATOM     28  C   UNL     1      -6.790  12.440  18.323  0.00  0.00    +0.000 A 
ATOM     29  N   UNL     1      -6.327  11.873  17.160  0.00  0.00    +0.000 N 
ATOM     30  C   UNL     1      -4.995  11.511  17.015  0.00  0.00    +0.000 A 
ATOM     31  C   UNL     1      -4.121  11.697  17.980  0.00  0.00    +0.000 A 
ATOM     32  N   UNL     1      -2.776  11.440  18.130  0.00  0.00    +0.000 NA
ATOM     33  H   UNL     1      -6.972  11.708  16.398  0.00  0.00    +0.000 HD
ENDBRANCH  23  24
ENDBRANCH  22  23
ENDBRANCH   4  22
TORSDOF 9
ENDMDL
MODEL 6
REMARK VINA RESULT:      -7.6      3.326      9.353
REMARK  Name = 
REMARK  10 active torsions:
REMARK  status: ('A' for Active; 'I' for Inactive)
REMARK    1  A    between atoms: C_1  and  C_2
REMARK    2  A    between atoms: C_2  and  N_3
REMARK    3  A    between atoms: N_3  and  C_4
REMARK    4  A    between atoms: N_3  and  C_26
REMARK    5  A    between atoms: C_4  and  C_5
REMARK    6  A    between atoms: C_5  and  N_6
REMARK    7  A    between atoms: C_7  and  C_9
REMARK    8  A    between atoms: C_12  and  C_13
REMARK    9  A    between atoms: C_13  and  S_14
REMARK   10  A    between atoms: S_14  and  C_15
REMARK                            x       y       z     vdW  Elec       q    Type
REMARK                         _______ _______ _______ _____ _____    ______ ____
ROOT
ATOM      1  C   UNL     1       1.712   6.483  19.764  0.00  0.00    +0.000 A 
ATOM      2  C   UNL     1       2.022   6.308  18.411  0.00  0.00    +0.000 A 
ATOM      3  C   UNL     1       2.089   5.012  17.884  0.00  0.00    +0.000 A 
ATOM      4  C   UNL     1       1.884   3.889  18.698  0.00  0.00    +0.000 A 
ATOM      5  C   UNL     1       1.524   4.101  20.042  0.00  0.00    +0.000 A 
ATOM      6  C   UNL     1       1.441   5.390  20.569  0.00  0.00    +0.000 A 
ENDROOT
BRANCH   1   8
ATOM      7  N   UNL     1       1.363   7.919  21.702  0.00  0.00    +0.000 N 
ATOM      8  C   UNL     1       1.691   7.842  20.354  0.00  0.00    +0.000 C 
ATOM      9  O   UNL     1       1.964   8.816  19.656  0.00  0.00    +0.000 OA
ATOM     10  H   UNL     1       1.067   7.110  22.220  0.00  0.00    +0.000 HD
BRANCH   7  11
ATOM     11  C   UNL     1       1.312   9.250  22.284  0.00  0.00    +0.000 C 
BRANCH  11  12
ATOM     12  C   UNL     1       0.036   9.672  23.020  0.00  0.00    +0.000 C 
BRANCH  12  13
ATOM     13  N   UNL     1      -0.646  10.857  22.440  0.00  0.00    +0.000 N 
BRANCH  13  14
ATOM     14  C   UNL     1      -0.236  11.241  21.145  0.00  0.00    +0.000 A 
ATOM     15  C   UNL     1       0.775  12.191  20.932  0.00  0.00    +0.000 A 
ATOM     16  C   UNL     1       1.153  12.603  19.652  0.00  0.00    +0.000 A 
ATOM     17  C   UNL     1       0.531  12.063  18.532  0.00  0.00    +0.000 A 
ATOM     18  C   UNL     1      -0.465  11.111  18.702  0.00  0.00    +0.000 A 
ATOM     19  C   UNL     1      -0.843  10.708  19.987  0.00  0.00    +0.000 A 
ENDBRANCH  13  14
BRANCH  13  21
ATOM     20  C   UNL     1      -2.807  12.304  22.720  0.00  0.00    +0.000 C 
ATOM     21  C   UNL     1      -1.422  11.879  23.185  0.00  0.00    +0.000 C 
ENDBRANCH  13  21
ENDBRANCH  12  13
ENDBRANCH  11  12
ENDBRANCH   7  11
ENDBRANCH   1   8
BRANCH   4  22
ATOM     22  C   UNL     1       2.055   2.476  18.142  0.00  0.00    +0.000 C 
BRANCH  22  23
ATOM     23  S   UNL     1       3.736   1.868  18.441  0.00  0.00    +0.000 S 
BRANCH  23  24
ATOM     24  C   UNL     1       4.791   3.169  17.955  0.00  0.00    +0.000 A 
ATOM     25  N   UNL     1       5.440   3.823  19.007  0.00  0.00    +0.000 NA
ATOM     26  C   UNL     1       6.142   4.731  18.400  0.00  0.00    +0.000 A 
ATOM     27  C   UNL     1       7.037   5.749  18.955  0.00  0.00    +0.000 A 
ATOM     28  C   UNL     1       7.612   6.553  18.038  0.00  0.00    +0.000 A 
ATOM     29  N   UNL     1       7.393   6.442  16.686  0.00  0.00    +0.000 N 
ATOM     30  C   UNL     1       6.544   5.474  16.170  0.00  0.00    +0.000 A 
ATOM     31  C   UNL     1       5.916   4.622  16.950  0.00  0.00    +0.000 A 
ATOM     32  N   UNL     1       5.030   3.588  16.739  0.00  0.00    +0.000 NA
ATOM     33  H   UNL     1       7.855   7.086  16.055  0.00  0.00    +0.000 HD
ENDBRANCH  23  24
ENDBRANCH  22  23
ENDBRANCH   4  22
TORSDOF 9
ENDMDL
MODEL 7
REMARK VINA RESULT:      -7.6      3.090      3.935
REMARK  Name = 
REMARK  10 active torsions:
REMARK  status: ('A' for Active; 'I' for Inactive)
REMARK    1  A    between atoms: C_1  and  C_2
REMARK    2  A    between atoms: C_2  and  N_3
REMARK    3  A    between atoms: N_3  and  C_4
REMARK    4  A    between atoms: N_3  and  C_26
REMARK    5  A    between atoms: C_4  and  C_5
REMARK    6  A    between atoms: C_5  and  N_6
REMARK    7  A    between atoms: C_7  and  C_9
REMARK    8  A    between atoms: C_12  and  C_13
REMARK    9  A    between atoms: C_13  and  S_14
REMARK   10  A    between atoms: S_14  and  C_15
REMARK                            x       y       z     vdW  Elec       q    Type
REMARK                         _______ _______ _______ _____ _____    ______ ____
ROOT
ATOM      1  C   UNL     1       2.121   7.395  19.180  0.00  0.00    +0.000 A 
ATOM      2  C   UNL     1       2.217   8.160  18.012  0.00  0.00    +0.000 A 
ATOM      3  C   UNL     1       1.734   9.475  18.012  0.00  0.00    +0.000 A 
ATOM      4  C   UNL     1       1.129  10.024  19.152  0.00  0.00    +0.000 A 
ATOM      5  C   UNL     1       1.096   9.246  20.324  0.00  0.00    +0.000 A 
ATOM      6  C   UNL     1       1.587   7.940  20.335  0.00  0.00    +0.000 A 
ENDROOT
BRANCH   1   8
ATOM      7  N   UNL     1       2.668   5.366  17.945  0.00  0.00    +0.000 N 
ATOM      8  C   UNL     1       2.573   5.985  19.186  0.00  0.00    +0.000 C 
ATOM      9  O   UNL     1       2.847   5.434  20.251  0.00  0.00    +0.000 OA
ATOM     10  H   UNL     1       2.359   5.822  17.104  0.00  0.00    +0.000 HD
BRANCH   7  11
ATOM     11  C   UNL     1       3.084   3.973  17.942  0.00  0.00    +0.000 C 
BRANCH  11  12
ATOM     12  C   UNL     1       4.581   3.662  18.024  0.00  0.00    +0.000 C 
BRANCH  12  13
ATOM     13  N   UNL     1       5.411   4.354  17.005  0.00  0.00    +0.000 N 
BRANCH  13  14
ATOM     14  C   UNL     1       6.275   5.363  17.484  0.00  0.00    +0.000 A 
ATOM     15  C   UNL     1       6.287   6.657  16.940  0.00  0.00    +0.000 A 
ATOM     16  C   UNL     1       7.170   7.644  17.385  0.00  0.00    +0.000 A 
ATOM     17  C   UNL     1       8.072   7.365  18.406  0.00  0.00    +0.000 A 
ATOM     18  C   UNL     1       8.081   6.101  18.979  0.00  0.00    +0.000 A 
ATOM     19  C   UNL     1       7.198   5.116  18.523  0.00  0.00    +0.000 A 
ENDBRANCH  13  14
BRANCH  13  21
ATOM     20  C   UNL     1       6.282   3.986  14.567  0.00  0.00    +0.000 C 
ATOM     21  C   UNL     1       5.177   4.368  15.540  0.00  0.00    +0.000 C 
ENDBRANCH  13  21
ENDBRANCH  12  13
ENDBRANCH  11  12
ENDBRANCH   7  11
ENDBRANCH   1   8
BRANCH   4  22
ATOM     22  C   UNL     1       0.517  11.424  19.116  0.00  0.00    +0.000 C 
BRANCH  22  23
ATOM     23  S   UNL     1       1.381  12.530  20.262  0.00  0.00    +0.000 S 
BRANCH  23  24
ATOM     24  C   UNL     1       1.313  14.107  19.521  0.00  0.00    +0.000 A 
ATOM     25  N   UNL     1       0.025  14.634  19.380  0.00  0.00    +0.000 NA
ATOM     26  C   UNL     1       0.238  15.781  18.809  0.00  0.00    +0.000 A 
ATOM     27  C   UNL     1      -0.717  16.809  18.389  0.00  0.00    +0.000 A 
ATOM     28  C   UNL     1      -0.160  17.893  17.812  0.00  0.00    +0.000 A 
ATOM     29  N   UNL     1       1.194  18.044  17.626  0.00  0.00    +0.000 N 
ATOM     30  C   UNL     1       2.090  17.064  18.029  0.00  0.00    +0.000 A 
ATOM     31  C   UNL     1       1.685  15.954  18.606  0.00  0.00    +0.000 A 
ATOM     32  N   UNL     1       2.316  14.830  19.091  0.00  0.00    +0.000 NA
ATOM     33  H   UNL     1       1.543  18.883  17.179  0.00  0.00    +0.000 HD
ENDBRANCH  23  24
ENDBRANCH  22  23
ENDBRANCH   4  22
TORSDOF 9
ENDMDL
MODEL 8
REMARK VINA RESULT:      -7.6      1.593      2.401
REMARK  Name = 
REMARK  10 active torsions:
REMARK  status: ('A' for Active; 'I' for Inactive)
REMARK    1  A    between atoms: C_1  and  C_2
REMARK    2  A    between atoms: C_2  and  N_3
REMARK    3  A    between atoms: N_3  and  C_4
REMARK    4  A    between atoms: N_3  and  C_26
REMARK    5  A    between atoms: C_4  and  C_5
REMARK    6  A    between atoms: C_5  and  N_6
REMARK    7  A    between atoms: C_7  and  C_9
REMARK    8  A    between atoms: C_12  and  C_13
REMARK    9  A    between atoms: C_13  and  S_14
REMARK   10  A    between atoms: S_14  and  C_15
REMARK                            x       y       z     vdW  Elec       q    Type
REMARK                         _______ _______ _______ _____ _____    ______ ____
ROOT
ATOM      1  C   UNL     1       2.080   7.548  19.442  0.00  0.00    +0.000 A 
ATOM      2  C   UNL     1       2.007   8.392  18.329  0.00  0.00    +0.000 A 
ATOM      3  C   UNL     1       1.292   9.593  18.424  0.00  0.00    +0.000 A 
ATOM      4  C   UNL     1       0.621   9.944  19.605  0.00  0.00    +0.000 A 
ATOM      5  C   UNL     1       0.758   9.098  20.721  0.00  0.00    +0.000 A 
ATOM      6  C   UNL     1       1.480   7.908  20.638  0.00  0.00    +0.000 A 
ENDROOT
BRANCH   1   8
ATOM      7  N   UNL     1       3.485   6.016  18.170  0.00  0.00    +0.000 N 
ATOM      8  C   UNL     1       2.783   6.248  19.346  0.00  0.00    +0.000 C 
ATOM      9  O   UNL     1       2.729   5.453  20.283  0.00  0.00    +0.000 OA
ATOM     10  H   UNL     1       3.440   6.654  17.394  0.00  0.00    +0.000 HD
BRANCH   7  11
ATOM     11  C   UNL     1       4.155   4.731  18.054  0.00  0.00    +0.000 C 
BRANCH  11  12
ATOM     12  C   UNL     1       4.513   4.223  16.654  0.00  0.00    +0.000 C 
BRANCH  12  13
ATOM     13  N   UNL     1       5.945   4.380  16.290  0.00  0.00    +0.000 N 
BRANCH  13  14
ATOM     14  C   UNL     1       6.691   5.291  17.068  0.00  0.00    +0.000 A 
ATOM     15  C   UNL     1       7.299   4.918  18.277  0.00  0.00    +0.000 A 
ATOM     16  C   UNL     1       8.003   5.828  19.069  0.00  0.00    +0.000 A 
ATOM     17  C   UNL     1       8.129   7.153  18.665  0.00  0.00    +0.000 A 
ATOM     18  C   UNL     1       7.552   7.557  17.470  0.00  0.00    +0.000 A 
ATOM     19  C   UNL     1       6.844   6.641  16.685  0.00  0.00    +0.000 A 
ENDBRANCH  13  14
BRANCH  13  21
ATOM     20  C   UNL     1       5.778   3.973  13.711  0.00  0.00    +0.000 C 
ATOM     21  C   UNL     1       6.576   3.982  15.006  0.00  0.00    +0.000 C 
ENDBRANCH  13  21
ENDBRANCH  12  13
ENDBRANCH  11  12
ENDBRANCH   7  11
ENDBRANCH   1   8
BRANCH   4  22
ATOM     22  C   UNL     1      -0.238  11.206  19.672  0.00  0.00    +0.000 C 
BRANCH  22  23
ATOM     23  S   UNL     1      -1.237  11.382  18.171  0.00  0.00    +0.000 S 
BRANCH  23  24
ATOM     24  C   UNL     1      -2.851  11.732  18.729  0.00  0.00    +0.000 A 
ATOM     25  N   UNL     1      -3.874  11.182  17.950  0.00  0.00    +0.000 NA
ATOM     26  C   UNL     1      -4.951  11.582  18.555  0.00  0.00    +0.000 A 
ATOM     27  C   UNL     1      -6.357  11.342  18.219  0.00  0.00    +0.000 A 
ATOM     28  C   UNL     1      -7.242  11.915  19.060  0.00  0.00    +0.000 A 
ATOM     29  N   UNL     1      -6.877  12.665  20.152  0.00  0.00    +0.000 N 
ATOM     30  C   UNL     1      -5.542  12.886  20.462  0.00  0.00    +0.000 A 
ATOM     31  C   UNL     1      -4.573  12.386  19.727  0.00  0.00    +0.000 A 
ATOM     32  N   UNL     1      -3.197  12.439  19.775  0.00  0.00    +0.000 NA
ATOM     33  H   UNL     1      -7.596  13.072  20.738  0.00  0.00    +0.000 HD
ENDBRANCH  23  24
ENDBRANCH  22  23
ENDBRANCH   4  22
TORSDOF 9
ENDMDL
MODEL 9
REMARK VINA RESULT:      -7.6      1.386      2.922
REMARK  Name = 
REMARK  10 active torsions:
REMARK  status: ('A' for Active; 'I' for Inactive)
REMARK    1  A    between atoms: C_1  and  C_2
REMARK    2  A    between atoms: C_2  and  N_3
REMARK    3  A    between atoms: N_3  and  C_4
REMARK    4  A    between atoms: N_3  and  C_26
REMARK    5  A    between atoms: C_4  and  C_5
REMARK    6  A    between atoms: C_5  and  N_6
REMARK    7  A    between atoms: C_7  and  C_9
REMARK    8  A    between atoms: C_12  and  C_13
REMARK    9  A    between atoms: C_13  and  S_14
REMARK   10  A    between atoms: S_14  and  C_15
REMARK                            x       y       z     vdW  Elec       q    Type
REMARK                         _______ _______ _______ _____ _____    ______ ____
ROOT
ATOM      1  C   UNL     1       2.327   6.948  19.569  0.00  0.00    +0.000 A 
ATOM      2  C   UNL     1       1.694   7.183  20.795  0.00  0.00    +0.000 A 
ATOM      3  C   UNL     1       1.032   8.400  21.003  0.00  0.00    +0.000 A 
ATOM      4  C   UNL     1       1.022   9.396  20.016  0.00  0.00    +0.000 A 
ATOM      5  C   UNL     1       1.623   9.108  18.777  0.00  0.00    +0.000 A 
ATOM      6  C   UNL     1       2.273   7.892  18.558  0.00  0.00    +0.000 A 
ENDROOT
BRANCH   1   8
ATOM      7  N   UNL     1       3.790   5.604  18.156  0.00  0.00    +0.000 N 
ATOM      8  C   UNL     1       3.081   5.692  19.349  0.00  0.00    +0.000 C 
ATOM      9  O   UNL     1       3.061   4.808  20.203  0.00  0.00    +0.000 OA
ATOM     10  H   UNL     1       3.718   6.313  17.447  0.00  0.00    +0.000 HD
BRANCH   7  11
ATOM     11  C   UNL     1       4.510   4.365  17.917  0.00  0.00    +0.000 C 
BRANCH  11  12
ATOM     12  C   UNL     1       4.911   4.025  16.479  0.00  0.00    +0.000 C 
BRANCH  12  13
ATOM     13  N   UNL     1       6.131   4.723  15.998  0.00  0.00    +0.000 N 
BRANCH  13  14
ATOM     14  C   UNL     1       6.463   4.535  14.639  0.00  0.00    +0.000 A 
ATOM     15  C   UNL     1       7.511   5.235  14.022  0.00  0.00    +0.000 A 
ATOM     16  C   UNL     1       7.815   5.081  12.667  0.00  0.00    +0.000 A 
ATOM     17  C   UNL     1       7.076   4.203  11.881  0.00  0.00    +0.000 A 
ATOM     18  C   UNL     1       6.039   3.483  12.459  0.00  0.00    +0.000 A 
ATOM     19  C   UNL     1       5.738   3.648  13.814  0.00  0.00    +0.000 A 
ENDBRANCH  13  14
BRANCH  13  21
ATOM     20  C   UNL     1       7.199   6.735  17.284  0.00  0.00    +0.000 C 
ATOM     21  C   UNL     1       7.218   5.279  16.842  0.00  0.00    +0.000 C 
ENDBRANCH  13  21
ENDBRANCH  12  13
ENDBRANCH  11  12
ENDBRANCH   7  11
ENDBRANCH   1   8
BRANCH   4  22
ATOM     22  C   UNL     1       0.383  10.758  20.284  0.00  0.00    +0.000 C 
BRANCH  22  23
ATOM     23  S   UNL     1      -0.057  11.577  18.728  0.00  0.00    +0.000 S 
BRANCH  23  24
ATOM     24  C   UNL     1      -1.791  11.755  18.775  0.00  0.00    +0.000 A 
ATOM     25  N   UNL     1      -2.450  11.387  17.598  0.00  0.00    +0.000 NA
ATOM     26  C   UNL     1      -3.699  11.613  17.878  0.00  0.00    +0.000 A 
ATOM     27  C   UNL     1      -4.892  11.433  17.047  0.00  0.00    +0.000 A 
ATOM     28  C   UNL     1      -6.051  11.775  17.645  0.00  0.00    +0.000 A 
ATOM     29  N   UNL     1      -6.130  12.251  18.932  0.00  0.00    +0.000 N 
ATOM     30  C   UNL     1      -4.994  12.417  19.711  0.00  0.00    +0.000 A 
ATOM     31  C   UNL     1      -3.796  12.123  19.254  0.00  0.00    +0.000 A 
ATOM     32  N   UNL     1      -2.521  12.188  19.771  0.00  0.00    +0.000 NA
ATOM     33  H   UNL     1      -7.036  12.495  19.315  0.00  0.00    +0.000 HD
ENDBRANCH  23  24
ENDBRANCH  22  23
ENDBRANCH   4  22
TORSDOF 9
ENDMDL
