MODEL 1
REMARK VINA RESULT:      -9.1      0.000      0.000
REMARK  Name = 
REMARK  8 active torsions:
REMARK  status: ('A' for Active; 'I' for Inactive)
REMARK    1  A    between atoms: C_1  and  O_2
REMARK    2  A    between atoms: O_2  and  C_3
REMARK    3  A    between atoms: C_3  and  C_4
REMARK    4  A    between atoms: C_4  and  N_5
REMARK    5  A    between atoms: C_6  and  C_8
REMARK    6  A    between atoms: C_8  and  C_9
REMARK    7  A    between atoms: C_17  and  O_18
REMARK    8  A    between atoms: C_25  and  C_26
REMARK                            x       y       z     vdW  Elec       q    Type
REMARK                         _______ _______ _______ _____ _____    ______ ____
ROOT
ATOM      1  C   UNL     1       4.577   4.053  16.954  0.00  0.00    +0.000 C 
ATOM      2  C   UNL     1       3.841   5.400  16.746  0.00  0.00    +0.000 C 
ATOM      3  C   UNL     1       3.398   5.775  18.161  0.00  0.00    +0.000 C 
ATOM      4  C   UNL     1       2.401   6.912  18.393  0.00  0.00    +0.000 C 
ATOM      5  C   UNL     1       2.866   8.238  17.789  0.00  0.00    +0.000 C 
ATOM      6  C   UNL     1       1.791   9.309  17.969  0.00  0.00    +0.000 C 
ATOM      7  C   UNL     1       1.164   9.338  19.345  0.00  0.00    +0.000 A 
ATOM      8  C   UNL     1       0.358  10.442  19.686  0.00  0.00    +0.000 A 
ATOM      9  C   UNL     1      -0.245  10.507  20.937  0.00  0.00    +0.000 A 
ATOM     10  C   UNL     1      -0.067   9.488  21.857  0.00  0.00    +0.000 A 
ATOM     11  C   UNL     1       0.720   8.386  21.525  0.00  0.00    +0.000 A 
ATOM     12  C   UNL     1       1.333   8.280  20.264  0.00  0.00    +0.000 A 
ATOM     13  C   UNL     1       2.249   7.106  19.935  0.00  0.00    +0.000 C 
ATOM     14  C   UNL     1       1.896   5.784  20.664  0.00  0.00    +0.000 C 
ATOM     15  C   UNL     1       2.765   4.586  20.259  0.00  0.00    +0.000 C 
ATOM     16  C   UNL     1       2.869   4.453  18.746  0.00  0.00    +0.000 C 
ATOM     17  C   UNL     1       1.554   3.946  18.127  0.00  0.00    +0.000 C 
ATOM     18  C   UNL     1       3.978   3.537  18.261  0.00  0.00    +0.000 C 
ATOM     19  O   UNL     1       4.322   2.518  18.829  0.00  0.00    +0.000 OA
ENDROOT
BRANCH   9  20
ATOM     20  O   UNL     1      -1.019  11.563  21.314  0.00  0.00    +0.000 OA
ATOM     21  H   UNL     1      -1.228  11.478  22.258  0.00  0.00    +0.000 HD
ENDBRANCH   9  20
BRANCH   1  22
ATOM     22  C   UNL     1       6.089   4.223  17.075  0.00  0.00    +0.000 C 
BRANCH  22  24
ATOM     23  N   UNL     1       6.245   3.728  14.694  0.00  0.00    +0.000 N 
ATOM     24  C   UNL     1       6.691   4.539  15.718  0.00  0.00    +0.000 C 
ATOM     25  O   UNL     1       7.520   5.418  15.557  0.00  0.00    +0.000 OA
ATOM     26  H   UNL     1       5.504   3.061  14.850  0.00  0.00    +0.000 HD
BRANCH  23  27
ATOM     27  C   UNL     1       6.733   3.952  13.345  0.00  0.00    +0.000 C 
BRANCH  27  28
ATOM     28  C   UNL     1       5.976   3.142  12.297  0.00  0.00    +0.000 C 
BRANCH  28  30
ATOM     29  C   UNL     1       3.939   3.006  11.133  0.00  0.00    +0.000 C 
ATOM     30  O   UNL     1       4.811   3.851  11.874  0.00  0.00    +0.000 OA
ENDBRANCH  28  30
ENDBRANCH  27  28
ENDBRANCH  23  27
ENDBRANCH  22  24
ENDBRANCH   1  22
TORSDOF 6
ENDMDL
MODEL 2
REMARK VINA RESULT:      -8.9      2.307      3.672
REMARK  Name = 
REMARK  8 active torsions:
REMARK  status: ('A' for Active; 'I' for Inactive)
REMARK    1  A    between atoms: C_1  and  O_2
REMARK    2  A    between atoms: O_2  and  C_3
REMARK    3  A    between atoms: C_3  and  C_4
REMARK    4  A    between atoms: C_4  and  N_5
REMARK    5  A    between atoms: C_6  and  C_8
REMARK    6  A    between atoms: C_8  and  C_9
REMARK    7  A    between atoms: C_17  and  O_18
REMARK    8  A    between atoms: C_25  and  C_26
REMARK                            x       y       z     vdW  Elec       q    Type
REMARK                         _______ _______ _______ _____ _____    ______ ____
ROOT
ATOM      1  C   UNL     1       4.961   4.156  17.348  0.00  0.00    +0.000 C 
ATOM      2  C   UNL     1       4.243   5.486  17.011  0.00  0.00    +0.000 C 
ATOM      3  C   UNL     1       3.605   5.883  18.343  0.00  0.00    +0.000 C 
ATOM      4  C   UNL     1       2.571   7.008  18.411  0.00  0.00    +0.000 C 
ATOM      5  C   UNL     1       3.097   8.329  17.845  0.00  0.00    +0.000 C 
ATOM      6  C   UNL     1       1.993   9.386  17.852  0.00  0.00    +0.000 C 
ATOM      7  C   UNL     1       1.183   9.433  19.128  0.00  0.00    +0.000 A 
ATOM      8  C   UNL     1       0.322  10.530  19.330  0.00  0.00    +0.000 A 
ATOM      9  C   UNL     1      -0.447  10.612  20.486  0.00  0.00    +0.000 A 
ATOM     10  C   UNL     1      -0.383   9.615  21.444  0.00  0.00    +0.000 A 
ATOM     11  C   UNL     1       0.457   8.520  21.249  0.00  0.00    +0.000 A 
ATOM     12  C   UNL     1       1.238   8.397  20.086  0.00  0.00    +0.000 A 
ATOM     13  C   UNL     1       2.206   7.232  19.912  0.00  0.00    +0.000 C 
ATOM     14  C   UNL     1       1.775   5.920  20.616  0.00  0.00    +0.000 C 
ATOM     15  C   UNL     1       2.707   4.728  20.362  0.00  0.00    +0.000 C 
ATOM     16  C   UNL     1       3.019   4.565  18.880  0.00  0.00    +0.000 C 
ATOM     17  C   UNL     1       1.808   4.024  18.100  0.00  0.00    +0.000 C 
ATOM     18  C   UNL     1       4.196   3.658  18.573  0.00  0.00    +0.000 C 
ATOM     19  O   UNL     1       4.472   2.657  19.205  0.00  0.00    +0.000 OA
ENDROOT
BRANCH   9  20
ATOM     20  O   UNL     1      -1.280  11.663  20.728  0.00  0.00    +0.000 OA
ATOM     21  H   UNL     1      -0.821  12.486  20.496  0.00  0.00    +0.000 HD
ENDBRANCH   9  20
BRANCH   1  22
ATOM     22  C   UNL     1       6.440   4.353  17.672  0.00  0.00    +0.000 C 
BRANCH  22  24
ATOM     23  N   UNL     1       7.144   6.675  17.901  0.00  0.00    +0.000 N 
ATOM     24  C   UNL     1       6.952   5.627  17.024  0.00  0.00    +0.000 C 
ATOM     25  O   UNL     1       7.148   5.720  15.825  0.00  0.00    +0.000 OA
ATOM     26  H   UNL     1       7.044   6.539  18.897  0.00  0.00    +0.000 HD
BRANCH  23  27
ATOM     27  C   UNL     1       7.655   7.939  17.401  0.00  0.00    +0.000 C 
BRANCH  27  28
ATOM     28  C   UNL     1       8.480   8.698  18.435  0.00  0.00    +0.000 C 
BRANCH  28  30
ATOM     29  C   UNL     1       9.432  10.781  18.962  0.00  0.00    +0.000 C 
ATOM     30  O   UNL     1       8.558  10.080  18.085  0.00  0.00    +0.000 OA
ENDBRANCH  28  30
ENDBRANCH  27  28
ENDBRANCH  23  27
ENDBRANCH  22  24
ENDBRANCH   1  22
TORSDOF 6
ENDMDL
MODEL 3
REMARK VINA RESULT:      -8.5      0.977      1.114
REMARK  Name = 
REMARK  8 active torsions:
REMARK  status: ('A' for Active; 'I' for Inactive)
REMARK    1  A    between atoms: C_1  and  O_2
REMARK    2  A    between atoms: O_2  and  C_3
REMARK    3  A    between atoms: C_3  and  C_4
REMARK    4  A    between atoms: C_4  and  N_5
REMARK    5  A    between atoms: C_6  and  C_8
REMARK    6  A    between atoms: C_8  and  C_9
REMARK    7  A    between atoms: C_17  and  O_18
REMARK    8  A    between atoms: C_25  and  C_26
REMARK                            x       y       z     vdW  Elec       q    Type
REMARK                         _______ _______ _______ _____ _____    ______ ____
ROOT
ATOM      1  C   UNL     1       4.552   3.998  17.788  0.00  0.00    +0.000 C 
ATOM      2  C   UNL     1       3.861   5.308  17.333  0.00  0.00    +0.000 C 
ATOM      3  C   UNL     1       3.294   5.872  18.636  0.00  0.00    +0.000 C 
ATOM      4  C   UNL     1       2.299   7.034  18.618  0.00  0.00    +0.000 C 
ATOM      5  C   UNL     1       2.840   8.264  17.887  0.00  0.00    +0.000 C 
ATOM      6  C   UNL     1       1.771   9.353  17.819  0.00  0.00    +0.000 C 
ATOM      7  C   UNL     1       1.019   9.571  19.113  0.00  0.00    +0.000 A 
ATOM      8  C   UNL     1       0.202  10.713  19.225  0.00  0.00    +0.000 A 
ATOM      9  C   UNL     1      -0.513  10.950  20.393  0.00  0.00    +0.000 A 
ATOM     10  C   UNL     1      -0.438  10.064  21.455  0.00  0.00    +0.000 A 
ATOM     11  C   UNL     1       0.358   8.925  21.350  0.00  0.00    +0.000 A 
ATOM     12  C   UNL     1       1.084   8.647  20.179  0.00  0.00    +0.000 A 
ATOM     13  C   UNL     1       2.008   7.435  20.098  0.00  0.00    +0.000 C 
ATOM     14  C   UNL     1       1.567   6.226  20.962  0.00  0.00    +0.000 C 
ATOM     15  C   UNL     1       2.450   4.981  20.806  0.00  0.00    +0.000 C 
ATOM     16  C   UNL     1       2.692   4.643  19.341  0.00  0.00    +0.000 C 
ATOM     17  C   UNL     1       1.433   4.063  18.675  0.00  0.00    +0.000 C 
ATOM     18  C   UNL     1       3.826   3.667  19.091  0.00  0.00    +0.000 C 
ATOM     19  O   UNL     1       4.099   2.733  19.821  0.00  0.00    +0.000 OA
ENDROOT
BRANCH   9  20
ATOM     20  O   UNL     1      -1.301  12.051  20.549  0.00  0.00    +0.000 OA
ATOM     21  H   UNL     1      -1.060  12.495  21.377  0.00  0.00    +0.000 HD
ENDBRANCH   9  20
BRANCH   1  22
ATOM     22  C   UNL     1       6.049   4.177  18.028  0.00  0.00    +0.000 C 
BRANCH  22  24
ATOM     23  N   UNL     1       6.143   4.031  15.597  0.00  0.00    +0.000 N 
ATOM     24  C   UNL     1       6.748   4.538  16.730  0.00  0.00    +0.000 C 
ATOM     25  O   UNL     1       7.773   5.196  16.697  0.00  0.00    +0.000 OA
ATOM     26  H   UNL     1       5.255   3.554  15.656  0.00  0.00    +0.000 HD
BRANCH  23  27
ATOM     27  C   UNL     1       6.708   4.329  14.294  0.00  0.00    +0.000 C 
BRANCH  27  28
ATOM     28  C   UNL     1       5.983   3.618  13.155  0.00  0.00    +0.000 C 
BRANCH  28  30
ATOM     29  C   UNL     1       7.466   4.796  11.763  0.00  0.00    +0.000 C 
ATOM     30  O   UNL     1       6.824   3.549  12.003  0.00  0.00    +0.000 OA
ENDBRANCH  28  30
ENDBRANCH  27  28
ENDBRANCH  23  27
ENDBRANCH  22  24
ENDBRANCH   1  22
TORSDOF 6
ENDMDL
MODEL 4
REMARK VINA RESULT:      -8.2      0.991      1.079
REMARK  Name = 
REMARK  8 active torsions:
REMARK  status: ('A' for Active; 'I' for Inactive)
REMARK    1  A    between atoms: C_1  and  O_2
REMARK    2  A    between atoms: O_2  and  C_3
REMARK    3  A    between atoms: C_3  and  C_4
REMARK    4  A    between atoms: C_4  and  N_5
REMARK    5  A    between atoms: C_6  and  C_8
REMARK    6  A    between atoms: C_8  and  C_9
REMARK    7  A    between atoms: C_17  and  O_18
REMARK    8  A    between atoms: C_25  and  C_26
REMARK                            x       y       z     vdW  Elec       q    Type
REMARK                         _______ _______ _______ _____ _____    ______ ____
ROOT
ATOM      1  C   UNL     1       4.630   5.509  16.814  0.00  0.00    +0.000 C 
ATOM      2  C   UNL     1       3.759   6.791  16.797  0.00  0.00    +0.000 C 
ATOM      3  C   UNL     1       3.273   6.899  18.243  0.00  0.00    +0.000 C 
ATOM      4  C   UNL     1       2.163   7.881  18.623  0.00  0.00    +0.000 C 
ATOM      5  C   UNL     1       2.491   9.323  18.234  0.00  0.00    +0.000 C 
ATOM      6  C   UNL     1       1.310  10.240  18.550  0.00  0.00    +0.000 C 
ATOM      7  C   UNL     1       0.676   9.996  19.902  0.00  0.00    +0.000 A 
ATOM      8  C   UNL     1      -0.242  10.947  20.388  0.00  0.00    +0.000 A 
ATOM      9  C   UNL     1      -0.854  10.761  21.623  0.00  0.00    +0.000 A 
ATOM     10  C   UNL     1      -0.575   9.638  22.383  0.00  0.00    +0.000 A 
ATOM     11  C   UNL     1       0.324   8.685  21.905  0.00  0.00    +0.000 A 
ATOM     12  C   UNL     1       0.950   8.834  20.656  0.00  0.00    +0.000 A 
ATOM     13  C   UNL     1       1.985   7.822  20.172  0.00  0.00    +0.000 C 
ATOM     14  C   UNL     1       1.768   6.377  20.687  0.00  0.00    +0.000 C 
ATOM     15  C   UNL     1       2.758   5.348  20.125  0.00  0.00    +0.000 C 
ATOM     16  C   UNL     1       2.882   5.457  18.611  0.00  0.00    +0.000 C 
ATOM     17  C   UNL     1       1.630   4.919  17.898  0.00  0.00    +0.000 C 
ATOM     18  C   UNL     1       4.082   4.744  18.017  0.00  0.00    +0.000 C 
ATOM     19  O   UNL     1       4.527   3.691  18.433  0.00  0.00    +0.000 OA
ENDROOT
BRANCH   9  20
ATOM     20  O   UNL     1      -1.735  11.664  22.138  0.00  0.00    +0.000 OA
ATOM     21  H   UNL     1      -1.276  12.507  22.277  0.00  0.00    +0.000 HD
ENDBRANCH   9  20
BRANCH   1  22
ATOM     22  C   UNL     1       6.116   5.812  16.991  0.00  0.00    +0.000 C 
BRANCH  22  24
ATOM     23  N   UNL     1       6.432   5.390  14.611  0.00  0.00    +0.000 N 
ATOM     24  C   UNL     1       6.919   5.157  15.881  0.00  0.00    +0.000 C 
ATOM     25  O   UNL     1       7.894   4.460  16.101  0.00  0.00    +0.000 OA
ATOM     26  H   UNL     1       5.667   6.033  14.462  0.00  0.00    +0.000 HD
BRANCH  23  27
ATOM     27  C   UNL     1       7.131   4.835  13.467  0.00  0.00    +0.000 C 
BRANCH  27  28
ATOM     28  C   UNL     1       6.477   3.566  12.929  0.00  0.00    +0.000 C 
BRANCH  28  30
ATOM     29  C   UNL     1       4.527   3.307  11.644  0.00  0.00    +0.000 C 
ATOM     30  O   UNL     1       5.058   3.718  12.898  0.00  0.00    +0.000 OA
ENDBRANCH  28  30
ENDBRANCH  27  28
ENDBRANCH  23  27
ENDBRANCH  22  24
ENDBRANCH   1  22
TORSDOF 6
ENDMDL
MODEL 5
REMARK VINA RESULT:      -7.3      1.619      1.939
REMARK  Name = 
REMARK  8 active torsions:
REMARK  status: ('A' for Active; 'I' for Inactive)
REMARK    1  A    between atoms: C_1  and  O_2
REMARK    2  A    between atoms: O_2  and  C_3
REMARK    3  A    between atoms: C_3  and  C_4
REMARK    4  A    between atoms: C_4  and  N_5
REMARK    5  A    between atoms: C_6  and  C_8
REMARK    6  A    between atoms: C_8  and  C_9
REMARK    7  A    between atoms: C_17  and  O_18
REMARK    8  A    between atoms: C_25  and  C_26
REMARK                            x       y       z     vdW  Elec       q    Type
REMARK                         _______ _______ _______ _____ _____    ______ ____
ROOT
ATOM      1  C   UNL     1       4.335   3.640  18.562  0.00  0.00    +0.000 C 
ATOM      2  C   UNL     1       3.815   4.932  17.882  0.00  0.00    +0.000 C 
ATOM      3  C   UNL     1       3.157   5.690  19.037  0.00  0.00    +0.000 C 
ATOM      4  C   UNL     1       2.274   6.910  18.769  0.00  0.00    +0.000 C 
ATOM      5  C   UNL     1       2.998   8.000  17.976  0.00  0.00    +0.000 C 
ATOM      6  C   UNL     1       2.041   9.149  17.658  0.00  0.00    +0.000 C 
ATOM      7  C   UNL     1       1.171   9.575  18.820  0.00  0.00    +0.000 A 
ATOM      8  C   UNL     1       0.449  10.779  18.703  0.00  0.00    +0.000 A 
ATOM      9  C   UNL     1      -0.369  11.207  19.743  0.00  0.00    +0.000 A 
ATOM     10  C   UNL     1      -0.490  10.453  20.898  0.00  0.00    +0.000 A 
ATOM     11  C   UNL     1       0.212   9.254  21.018  0.00  0.00    +0.000 A 
ATOM     12  C   UNL     1       1.037   8.784  19.982  0.00  0.00    +0.000 A 
ATOM     13  C   UNL     1       1.856   7.508  20.149  0.00  0.00    +0.000 C 
ATOM     14  C   UNL     1       1.219   6.448  21.083  0.00  0.00    +0.000 C 
ATOM     15  C   UNL     1       2.003   5.132  21.175  0.00  0.00    +0.000 C 
ATOM     16  C   UNL     1       2.376   4.603  19.797  0.00  0.00    +0.000 C 
ATOM     17  C   UNL     1       1.153   4.039  19.053  0.00  0.00    +0.000 C 
ATOM     18  C   UNL     1       3.442   3.523  19.796  0.00  0.00    +0.000 C 
ATOM     19  O   UNL     1       3.551   2.667  20.653  0.00  0.00    +0.000 OA
ENDROOT
BRANCH   9  20
ATOM     20  O   UNL     1      -1.072  12.373  19.679  0.00  0.00    +0.000 OA
ATOM     21  H   UNL     1      -2.012  12.181  19.827  0.00  0.00    +0.000 HD
ENDBRANCH   9  20
BRANCH   1  22
ATOM     22  C   UNL     1       5.806   3.738  18.959  0.00  0.00    +0.000 C 
BRANCH  22  24
ATOM     23  N   UNL     1       6.738   4.010  16.723  0.00  0.00    +0.000 N 
ATOM     24  C   UNL     1       6.562   4.597  17.960  0.00  0.00    +0.000 C 
ATOM     25  O   UNL     1       6.999   5.698  18.242  0.00  0.00    +0.000 OA
ATOM     26  H   UNL     1       6.297   3.129  16.503  0.00  0.00    +0.000 HD
BRANCH  23  27
ATOM     27  C   UNL     1       7.426   4.746  15.678  0.00  0.00    +0.000 C 
BRANCH  27  28
ATOM     28  C   UNL     1       6.610   4.859  14.394  0.00  0.00    +0.000 C 
BRANCH  28  30
ATOM     29  C   UNL     1       5.291   6.608  15.244  0.00  0.00    +0.000 C 
ATOM     30  O   UNL     1       5.284   5.298  14.690  0.00  0.00    +0.000 OA
ENDBRANCH  28  30
ENDBRANCH  27  28
ENDBRANCH  23  27
ENDBRANCH  22  24
ENDBRANCH   1  22
TORSDOF 6
ENDMDL
MODEL 6
REMARK VINA RESULT:      -7.2      3.812     10.147
REMARK  Name = 
REMARK  8 active torsions:
REMARK  status: ('A' for Active; 'I' for Inactive)
REMARK    1  A    between atoms: C_1  and  O_2
REMARK    2  A    between atoms: O_2  and  C_3
REMARK    3  A    between atoms: C_3  and  C_4
REMARK    4  A    between atoms: C_4  and  N_5
REMARK    5  A    between atoms: C_6  and  C_8
REMARK    6  A    between atoms: C_8  and  C_9
REMARK    7  A    between atoms: C_17  and  O_18
REMARK    8  A    between atoms: C_25  and  C_26
REMARK                            x       y       z     vdW  Elec       q    Type
REMARK                         _______ _______ _______ _____ _____    ______ ____
ROOT
ATOM      1  C   UNL     1      -0.612  11.418  20.716  0.00  0.00    +0.000 C 
ATOM      2  C   UNL     1      -0.426   9.894  20.928  0.00  0.00    +0.000 C 
ATOM      3  C   UNL     1       0.765   9.562  20.027  0.00  0.00    +0.000 C 
ATOM      4  C   UNL     1       1.132   8.109  19.722  0.00  0.00    +0.000 C 
ATOM      5  C   UNL     1       1.384   7.285  20.986  0.00  0.00    +0.000 C 
ATOM      6  C   UNL     1       1.652   5.825  20.623  0.00  0.00    +0.000 C 
ATOM      7  C   UNL     1       2.594   5.636  19.454  0.00  0.00    +0.000 A 
ATOM      8  C   UNL     1       3.101   4.345  19.209  0.00  0.00    +0.000 A 
ATOM      9  C   UNL     1       3.964   4.123  18.141  0.00  0.00    +0.000 A 
ATOM     10  C   UNL     1       4.328   5.164  17.304  0.00  0.00    +0.000 A 
ATOM     11  C   UNL     1       3.823   6.444  17.531  0.00  0.00    +0.000 A 
ATOM     12  C   UNL     1       2.937   6.701  18.593  0.00  0.00    +0.000 A 
ATOM     13  C   UNL     1       2.445   8.117  18.876  0.00  0.00    +0.000 C 
ATOM     14  C   UNL     1       2.336   9.028  17.627  0.00  0.00    +0.000 C 
ATOM     15  C   UNL     1       1.755  10.420  17.907  0.00  0.00    +0.000 C 
ATOM     16  C   UNL     1       0.477  10.340  18.731  0.00  0.00    +0.000 C 
ATOM     17  C   UNL     1      -0.704   9.809  17.900  0.00  0.00    +0.000 C 
ATOM     18  C   UNL     1       0.037  11.652  19.354  0.00  0.00    +0.000 C 
ATOM     19  O   UNL     1       0.165  12.739  18.823  0.00  0.00    +0.000 OA
ENDROOT
BRANCH   9  20
ATOM     20  O   UNL     1       4.490   2.894  17.878  0.00  0.00    +0.000 OA
ATOM     21  H   UNL     1       5.446   2.985  17.741  0.00  0.00    +0.000 HD
ENDBRANCH   9  20
BRANCH   1  22
ATOM     22  C   UNL     1       0.073  12.248  21.798  0.00  0.00    +0.000 C 
BRANCH  22  24
ATOM     23  N   UNL     1      -2.256  12.597  22.426  0.00  0.00    +0.000 N 
ATOM     24  C   UNL     1      -0.959  13.040  22.582  0.00  0.00    +0.000 C 
ATOM     25  O   UNL     1      -0.664  14.003  23.267  0.00  0.00    +0.000 OA
ATOM     26  H   UNL     1      -2.454  11.751  21.911  0.00  0.00    +0.000 HD
BRANCH  23  27
ATOM     27  C   UNL     1      -3.328  13.261  23.146  0.00  0.00    +0.000 C 
BRANCH  27  28
ATOM     28  C   UNL     1      -3.900  12.412  24.276  0.00  0.00    +0.000 C 
BRANCH  28  30
ATOM     29  C   UNL     1      -5.782  13.030  23.012  0.00  0.00    +0.000 C 
ATOM     30  O   UNL     1      -5.315  12.288  24.132  0.00  0.00    +0.000 OA
ENDBRANCH  28  30
ENDBRANCH  27  28
ENDBRANCH  23  27
ENDBRANCH  22  24
ENDBRANCH   1  22
TORSDOF 6
ENDMDL
MODEL 7
REMARK VINA RESULT:      -7.2      2.041      2.947
REMARK  Name = 
REMARK  8 active torsions:
REMARK  status: ('A' for Active; 'I' for Inactive)
REMARK    1  A    between atoms: C_1  and  O_2
REMARK    2  A    between atoms: O_2  and  C_3
REMARK    3  A    between atoms: C_3  and  C_4
REMARK    4  A    between atoms: C_4  and  N_5
REMARK    5  A    between atoms: C_6  and  C_8
REMARK    6  A    between atoms: C_8  and  C_9
REMARK    7  A    between atoms: C_17  and  O_18
REMARK    8  A    between atoms: C_25  and  C_26
REMARK                            x       y       z     vdW  Elec       q    Type
REMARK                         _______ _______ _______ _____ _____    ______ ____
ROOT
ATOM      1  C   UNL     1       3.339   2.796  17.530  0.00  0.00    +0.000 C 
ATOM      2  C   UNL     1       2.860   4.222  17.159  0.00  0.00    +0.000 C 
ATOM      3  C   UNL     1       2.735   4.911  18.518  0.00  0.00    +0.000 C 
ATOM      4  C   UNL     1       2.033   6.264  18.647  0.00  0.00    +0.000 C 
ATOM      5  C   UNL     1       2.646   7.336  17.744  0.00  0.00    +0.000 C 
ATOM      6  C   UNL     1       1.846   8.635  17.845  0.00  0.00    +0.000 C 
ATOM      7  C   UNL     1       1.470   9.027  19.257  0.00  0.00    +0.000 A 
ATOM      8  C   UNL     1       0.963  10.323  19.474  0.00  0.00    +0.000 A 
ATOM      9  C   UNL     1       0.597  10.725  20.755  0.00  0.00    +0.000 A 
ATOM     10  C   UNL     1       0.718   9.856  21.825  0.00  0.00    +0.000 A 
ATOM     11  C   UNL     1       1.208   8.567  21.618  0.00  0.00    +0.000 A 
ATOM     12  C   UNL     1       1.575   8.123  20.336  0.00  0.00    +0.000 A 
ATOM     13  C   UNL     1       2.176   6.736  20.129  0.00  0.00    +0.000 C 
ATOM     14  C   UNL     1       1.693   5.664  21.138  0.00  0.00    +0.000 C 
ATOM     15  C   UNL     1       2.232   4.252  20.869  0.00  0.00    +0.000 C 
ATOM     16  C   UNL     1       2.059   3.854  19.409  0.00  0.00    +0.000 C 
ATOM     17  C   UNL     1       0.588   3.560  19.070  0.00  0.00    +0.000 C 
ATOM     18  C   UNL     1       2.872   2.648  18.977  0.00  0.00    +0.000 C 
ATOM     19  O   UNL     1       3.097   1.684  19.685  0.00  0.00    +0.000 OA
ENDROOT
BRANCH   9  20
ATOM     20  O   UNL     1       0.117  11.974  21.012  0.00  0.00    +0.000 OA
ATOM     21  H   UNL     1       0.056  12.095  21.973  0.00  0.00    +0.000 HD
ENDBRANCH   9  20
BRANCH   1  22
ATOM     22  C   UNL     1       4.855   2.642  17.428  0.00  0.00    +0.000 C 
BRANCH  22  24
ATOM     23  N   UNL     1       6.405   4.522  17.361  0.00  0.00    +0.000 N 
ATOM     24  C   UNL     1       5.449   3.811  16.663  0.00  0.00    +0.000 C 
ATOM     25  O   UNL     1       5.088   4.110  15.538  0.00  0.00    +0.000 OA
ATOM     26  H   UNL     1       6.732   4.201  18.261  0.00  0.00    +0.000 HD
BRANCH  23  27
ATOM     27  C   UNL     1       7.062   5.648  16.723  0.00  0.00    +0.000 C 
BRANCH  27  28
ATOM     28  C   UNL     1       6.445   6.990  17.104  0.00  0.00    +0.000 C 
BRANCH  28  30
ATOM     29  C   UNL     1       8.188   8.126  18.198  0.00  0.00    +0.000 C 
ATOM     30  O   UNL     1       7.421   8.028  17.004  0.00  0.00    +0.000 OA
ENDBRANCH  28  30
ENDBRANCH  27  28
ENDBRANCH  23  27
ENDBRANCH  22  24
ENDBRANCH   1  22
TORSDOF 6
ENDMDL
MODEL 8
REMARK VINA RESULT:      -7.1      3.692      5.152
REMARK  Name = 
REMARK  8 active torsions:
REMARK  status: ('A' for Active; 'I' for Inactive)
REMARK    1  A    between atoms: C_1  and  O_2
REMARK    2  A    between atoms: O_2  and  C_3
REMARK    3  A    between atoms: C_3  and  C_4
REMARK    4  A    between atoms: C_4  and  N_5
REMARK    5  A    between atoms: C_6  and  C_8
REMARK    6  A    between atoms: C_8  and  C_9
REMARK    7  A    between atoms: C_17  and  O_18
REMARK    8  A    between atoms: C_25  and  C_26
REMARK                            x       y       z     vdW  Elec       q    Type
REMARK                         _______ _______ _______ _____ _____    ______ ____
ROOT
ATOM      1  C   UNL     1       7.051   4.461  14.664  0.00  0.00    +0.000 C 
ATOM      2  C   UNL     1       6.185   3.389  15.372  0.00  0.00    +0.000 C 
ATOM      3  C   UNL     1       5.481   4.184  16.472  0.00  0.00    +0.000 C 
ATOM      4  C   UNL     1       4.721   3.468  17.590  0.00  0.00    +0.000 C 
ATOM      5  C   UNL     1       3.635   2.530  17.060  0.00  0.00    +0.000 C 
ATOM      6  C   UNL     1       2.976   1.774  18.213  0.00  0.00    +0.000 C 
ATOM      7  C   UNL     1       2.647   2.634  19.414  0.00  0.00    +0.000 A 
ATOM      8  C   UNL     1       1.816   2.090  20.413  0.00  0.00    +0.000 A 
ATOM      9  C   UNL     1       1.492   2.841  21.538  0.00  0.00    +0.000 A 
ATOM     10  C   UNL     1       1.989   4.124  21.693  0.00  0.00    +0.000 A 
ATOM     11  C   UNL     1       2.822   4.667  20.715  0.00  0.00    +0.000 A 
ATOM     12  C   UNL     1       3.181   3.931  19.572  0.00  0.00    +0.000 A 
ATOM     13  C   UNL     1       4.035   4.557  18.474  0.00  0.00    +0.000 C 
ATOM     14  C   UNL     1       5.035   5.634  18.965  0.00  0.00    +0.000 C 
ATOM     15  C   UNL     1       5.953   6.194  17.870  0.00  0.00    +0.000 C 
ATOM     16  C   UNL     1       6.591   5.081  17.049  0.00  0.00    +0.000 C 
ATOM     17  C   UNL     1       7.680   4.340  17.844  0.00  0.00    +0.000 C 
ATOM     18  C   UNL     1       7.214   5.531  15.741  0.00  0.00    +0.000 C 
ATOM     19  O   UNL     1       7.786   6.593  15.585  0.00  0.00    +0.000 OA
ENDROOT
BRANCH   9  20
ATOM     20  O   UNL     1       0.679   2.361  22.520  0.00  0.00    +0.000 OA
ATOM     21  H   UNL     1       0.854   2.850  23.339  0.00  0.00    +0.000 HD
ENDBRANCH   9  20
BRANCH   1  22
ATOM     22  C   UNL     1       6.375   5.035  13.422  0.00  0.00    +0.000 C 
BRANCH  22  24
ATOM     23  N   UNL     1       4.732   3.824  12.088  0.00  0.00    +0.000 N 
ATOM     24  C   UNL     1       6.065   3.924  12.434  0.00  0.00    +0.000 C 
ATOM     25  O   UNL     1       6.920   3.168  12.008  0.00  0.00    +0.000 OA
ATOM     26  H   UNL     1       4.065   4.513  12.403  0.00  0.00    +0.000 HD
BRANCH  23  27
ATOM     27  C   UNL     1       4.318   2.814  11.132  0.00  0.00    +0.000 C 
BRANCH  27  28
ATOM     28  C   UNL     1       2.950   3.098  10.522  0.00  0.00    +0.000 C 
BRANCH  28  30
ATOM     29  C   UNL     1       2.373   4.857   9.075  0.00  0.00    +0.000 C 
ATOM     30  O   UNL     1       3.098   3.641   9.210  0.00  0.00    +0.000 OA
ENDBRANCH  28  30
ENDBRANCH  27  28
ENDBRANCH  23  27
ENDBRANCH  22  24
ENDBRANCH   1  22
TORSDOF 6
ENDMDL
MODEL 9
REMARK VINA RESULT:      -6.9      3.884     10.327
REMARK  Name = 
REMARK  8 active torsions:
REMARK  status: ('A' for Active; 'I' for Inactive)
REMARK    1  A    between atoms: C_1  and  O_2
REMARK    2  A    between atoms: O_2  and  C_3
REMARK    3  A    between atoms: C_3  and  C_4
REMARK    4  A    between atoms: C_4  and  N_5
REMARK    5  A    between atoms: C_6  and  C_8
REMARK    6  A    between atoms: C_8  and  C_9
REMARK    7  A    between atoms: C_17  and  O_18
REMARK    8  A    between atoms: C_25  and  C_26
REMARK                            x       y       z     vdW  Elec       q    Type
REMARK                         _______ _______ _______ _____ _____    ______ ____
ROOT
ATOM      1  C   UNL     1      -0.412  11.435  20.559  0.00  0.00    +0.000 C 
ATOM      2  C   UNL     1      -0.289   9.918  20.848  0.00  0.00    +0.000 C 
ATOM      3  C   UNL     1       0.884   9.490  19.964  0.00  0.00    +0.000 C 
ATOM      4  C   UNL     1       1.189   8.009  19.733  0.00  0.00    +0.000 C 
ATOM      5  C   UNL     1       1.410   7.241  21.037  0.00  0.00    +0.000 C 
ATOM      6  C   UNL     1       1.616   5.754  20.749  0.00  0.00    +0.000 C 
ATOM      7  C   UNL     1       2.545   5.467  19.590  0.00  0.00    +0.000 A 
ATOM      8  C   UNL     1       2.996   4.145  19.411  0.00  0.00    +0.000 A 
ATOM      9  C   UNL     1       3.845   3.833  18.355  0.00  0.00    +0.000 A 
ATOM     10  C   UNL     1       4.249   4.813  17.465  0.00  0.00    +0.000 A 
ATOM     11  C   UNL     1       3.799   6.123  17.627  0.00  0.00    +0.000 A 
ATOM     12  C   UNL     1       2.929   6.471  18.675  0.00  0.00    +0.000 A 
ATOM     13  C   UNL     1       2.497   7.919  18.886  0.00  0.00    +0.000 C 
ATOM     14  C   UNL     1       2.423   8.768  17.593  0.00  0.00    +0.000 C 
ATOM     15  C   UNL     1       1.901  10.197  17.802  0.00  0.00    +0.000 C 
ATOM     16  C   UNL     1       0.624  10.213  18.630  0.00  0.00    +0.000 C 
ATOM     17  C   UNL     1      -0.581   9.690  17.829  0.00  0.00    +0.000 C 
ATOM     18  C   UNL     1       0.242  11.572  19.186  0.00  0.00    +0.000 C 
ATOM     19  O   UNL     1       0.414  12.624  18.600  0.00  0.00    +0.000 OA
ENDROOT
BRANCH   9  20
ATOM     20  O   UNL     1       4.318   2.571  18.154  0.00  0.00    +0.000 OA
ATOM     21  H   UNL     1       4.321   2.098  19.002  0.00  0.00    +0.000 HD
ENDBRANCH   9  20
BRANCH   1  22
ATOM     22  C   UNL     1       0.311  12.290  21.596  0.00  0.00    +0.000 C 
BRANCH  22  24
ATOM     23  N   UNL     1      -0.690  14.425  22.212  0.00  0.00    +0.000 N 
ATOM     24  C   UNL     1      -0.695  13.063  22.431  0.00  0.00    +0.000 C 
ATOM     25  O   UNL     1      -1.422  12.523  23.246  0.00  0.00    +0.000 OA
ATOM     26  H   UNL     1      -0.128  14.828  21.476  0.00  0.00    +0.000 HD
BRANCH  23  27
ATOM     27  C   UNL     1      -1.626  15.266  22.935  0.00  0.00    +0.000 C 
BRANCH  27  28
ATOM     28  C   UNL     1      -0.947  16.163  23.965  0.00  0.00    +0.000 C 
BRANCH  28  30
ATOM     29  C   UNL     1      -1.158  15.785  26.275  0.00  0.00    +0.000 C 
ATOM     30  O   UNL     1      -0.502  15.386  25.078  0.00  0.00    +0.000 OA
ENDBRANCH  28  30
ENDBRANCH  27  28
ENDBRANCH  23  27
ENDBRANCH  22  24
ENDBRANCH   1  22
TORSDOF 6
ENDMDL
