MODEL 1
REMARK VINA RESULT:      -7.3      0.000      0.000
REMARK  Name = 
REMARK  4 active torsions:
REMARK  status: ('A' for Active; 'I' for Inactive)
REMARK    1  A    between atoms: C_1  and  C_2
REMARK    2  A    between atoms: C_5  and  S_6
REMARK    3  A    between atoms: S_6  and  N_9
REMARK    4  A    between atoms: N_12  and  C_13
REMARK                            x       y       z     vdW  Elec       q    Type
REMARK                         _______ _______ _______ _____ _____    ______ ____
ROOT
ATOM      1  N   UNL     1       5.841   5.698  17.487  0.00  0.00    +0.000 NA
ATOM      2  C   UNL     1       5.140   6.984  17.293  0.00  0.00    +0.000 C 
ATOM      3  C   UNL     1       3.644   6.662  17.340  0.00  0.00    +0.000 C 
ATOM      4  N   UNL     1       3.284   6.142  18.673  0.00  0.00    +0.000 N 
ATOM      5  C   UNL     1       4.117   5.030  19.181  0.00  0.00    +0.000 C 
ATOM      6  C   UNL     1       5.637   5.187  18.866  0.00  0.00    +0.000 C 
ENDROOT
BRANCH   4   7
ATOM      7  C   UNL     1       2.456   6.927  19.454  0.00  0.00    +0.000 A 
ATOM      8  N   UNL     1       2.248   8.192  18.995  0.00  0.00    +0.000 NA
ATOM      9  C   UNL     1       1.395   9.015  19.642  0.00  0.00    +0.000 A 
ATOM     10  C   UNL     1       0.709   8.658  20.779  0.00  0.00    +0.000 A 
ATOM     11  C   UNL     1       0.911   7.377  21.271  0.00  0.00    +0.000 A 
ATOM     12  C   UNL     1       1.784   6.498  20.613  0.00  0.00    +0.000 A 
ATOM     13 CL   UNL     1       1.863   4.893  21.255  0.00  0.00    +0.000 Cl
ENDBRANCH   4   7
BRANCH   1  14
ATOM     14  S   UNL     1       7.244   5.400  16.631  0.00  0.00    +0.000 S 
ATOM     15  O   UNL     1       8.009   4.408  17.352  0.00  0.00    +0.000 OA
ATOM     16  O   UNL     1       7.830   6.680  16.284  0.00  0.00    +0.000 OA
BRANCH  14  21
ATOM     17  C   UNL     1       5.050   3.115  11.460  0.00  0.00    +0.000 C 
ATOM     18  C   UNL     1       5.628   3.635  12.743  0.00  0.00    +0.000 A 
ATOM     19  C   UNL     1       4.908   3.516  13.939  0.00  0.00    +0.000 A 
ATOM     20  C   UNL     1       5.425   4.026  15.126  0.00  0.00    +0.000 A 
ATOM     21  C   UNL     1       6.671   4.648  15.128  0.00  0.00    +0.000 A 
ATOM     22  C   UNL     1       7.402   4.786  13.943  0.00  0.00    +0.000 A 
ATOM     23  C   UNL     1       6.880   4.270  12.753  0.00  0.00    +0.000 A 
ENDBRANCH  14  21
ENDBRANCH   1  14
TORSDOF 3
ENDMDL
MODEL 2
REMARK VINA RESULT:      -7.2      0.244      1.037
REMARK  Name = 
REMARK  4 active torsions:
REMARK  status: ('A' for Active; 'I' for Inactive)
REMARK    1  A    between atoms: C_1  and  C_2
REMARK    2  A    between atoms: C_5  and  S_6
REMARK    3  A    between atoms: S_6  and  N_9
REMARK    4  A    between atoms: N_12  and  C_13
REMARK                            x       y       z     vdW  Elec       q    Type
REMARK                         _______ _______ _______ _____ _____    ______ ____
ROOT
ATOM      1  N   UNL     1       5.747   5.825  17.448  0.00  0.00    +0.000 NA
ATOM      2  C   UNL     1       5.191   7.193  17.413  0.00  0.00    +0.000 C 
ATOM      3  C   UNL     1       3.670   7.030  17.333  0.00  0.00    +0.000 C 
ATOM      4  N   UNL     1       3.172   6.365  18.553  0.00  0.00    +0.000 N 
ATOM      5  C   UNL     1       3.856   5.109  18.931  0.00  0.00    +0.000 C 
ATOM      6  C   UNL     1       5.401   5.145  18.722  0.00  0.00    +0.000 C 
ENDROOT
BRANCH   4   7
ATOM      7  C   UNL     1       2.376   7.115  19.398  0.00  0.00    +0.000 A 
ATOM      8  N   UNL     1       2.101   8.380  18.974  0.00  0.00    +0.000 NA
ATOM      9  C   UNL     1       1.269   9.167  19.689  0.00  0.00    +0.000 A 
ATOM     10  C   UNL     1       0.671   8.774  20.863  0.00  0.00    +0.000 A 
ATOM     11  C   UNL     1       0.941   7.492  21.320  0.00  0.00    +0.000 A 
ATOM     12  C   UNL     1       1.794   6.650  20.591  0.00  0.00    +0.000 A 
ATOM     13 CL   UNL     1       1.961   5.038  21.201  0.00  0.00    +0.000 Cl
ENDBRANCH   4   7
BRANCH   1  14
ATOM     14  S   UNL     1       7.167   5.503  16.631  0.00  0.00    +0.000 S 
ATOM     15  O   UNL     1       7.870   4.459  17.342  0.00  0.00    +0.000 OA
ATOM     16  O   UNL     1       7.812   6.772  16.350  0.00  0.00    +0.000 OA
BRANCH  14  21
ATOM     17  C   UNL     1       5.529   2.898  11.405  0.00  0.00    +0.000 C 
ATOM     18  C   UNL     1       5.900   3.587  12.686  0.00  0.00    +0.000 A 
ATOM     19  C   UNL     1       7.137   4.234  12.805  0.00  0.00    +0.000 A 
ATOM     20  C   UNL     1       7.499   4.846  14.001  0.00  0.00    +0.000 A 
ATOM     21  C   UNL     1       6.622   4.825  15.083  0.00  0.00    +0.000 A 
ATOM     22  C   UNL     1       5.386   4.177  14.988  0.00  0.00    +0.000 A 
ATOM     23  C   UNL     1       5.025   3.565  13.784  0.00  0.00    +0.000 A 
ENDBRANCH  14  21
ENDBRANCH   1  14
TORSDOF 3
ENDMDL
MODEL 3
REMARK VINA RESULT:      -6.9      1.441      1.966
REMARK  Name = 
REMARK  4 active torsions:
REMARK  status: ('A' for Active; 'I' for Inactive)
REMARK    1  A    between atoms: C_1  and  C_2
REMARK    2  A    between atoms: C_5  and  S_6
REMARK    3  A    between atoms: S_6  and  N_9
REMARK    4  A    between atoms: N_12  and  C_13
REMARK                            x       y       z     vdW  Elec       q    Type
REMARK                         _______ _______ _______ _____ _____    ______ ____
ROOT
ATOM      1  N   UNL     1       5.551   6.007  17.907  0.00  0.00    +0.000 NA
ATOM      2  C   UNL     1       4.970   7.338  17.635  0.00  0.00    +0.000 C 
ATOM      3  C   UNL     1       3.457   7.126  17.535  0.00  0.00    +0.000 C 
ATOM      4  N   UNL     1       2.929   6.653  18.829  0.00  0.00    +0.000 N 
ATOM      5  C   UNL     1       3.623   5.491  19.426  0.00  0.00    +0.000 C 
ATOM      6  C   UNL     1       5.174   5.532  19.262  0.00  0.00    +0.000 C 
ENDROOT
BRANCH   4   7
ATOM      7  C   UNL     1       2.089   7.508  19.517  0.00  0.00    +0.000 A 
ATOM      8  N   UNL     1       1.752   7.109  20.775  0.00  0.00    +0.000 NA
ATOM      9  C   UNL     1       0.998   7.909  21.559  0.00  0.00    +0.000 A 
ATOM     10  C   UNL     1       0.517   9.133  21.158  0.00  0.00    +0.000 A 
ATOM     11  C   UNL     1       0.840   9.558  19.878  0.00  0.00    +0.000 A 
ATOM     12  C   UNL     1       1.630   8.751  19.046  0.00  0.00    +0.000 A 
ATOM     13 CL   UNL     1       2.061   9.440  17.517  0.00  0.00    +0.000 Cl
ENDBRANCH   4   7
BRANCH   1  14
ATOM     14  S   UNL     1       7.006   5.594  17.199  0.00  0.00    +0.000 S 
ATOM     15  O   UNL     1       7.592   4.519  17.966  0.00  0.00    +0.000 OA
ATOM     16  O   UNL     1       7.743   6.820  16.956  0.00  0.00    +0.000 OA
BRANCH  14  21
ATOM     17  C   UNL     1       5.649   3.064  11.857  0.00  0.00    +0.000 C 
ATOM     18  C   UNL     1       5.946   3.731  13.168  0.00  0.00    +0.000 A 
ATOM     19  C   UNL     1       7.114   4.489  13.323  0.00  0.00    +0.000 A 
ATOM     20  C   UNL     1       7.410   5.083  14.547  0.00  0.00    +0.000 A 
ATOM     21  C   UNL     1       6.535   4.932  15.619  0.00  0.00    +0.000 A 
ATOM     22  C   UNL     1       5.369   4.171  15.489  0.00  0.00    +0.000 A 
ATOM     23  C   UNL     1       5.073   3.578  14.257  0.00  0.00    +0.000 A 
ENDBRANCH  14  21
ENDBRANCH   1  14
TORSDOF 3
ENDMDL
MODEL 4
REMARK VINA RESULT:      -6.8      1.333      1.572
REMARK  Name = 
REMARK  4 active torsions:
REMARK  status: ('A' for Active; 'I' for Inactive)
REMARK    1  A    between atoms: C_1  and  C_2
REMARK    2  A    between atoms: C_5  and  S_6
REMARK    3  A    between atoms: S_6  and  N_9
REMARK    4  A    between atoms: N_12  and  C_13
REMARK                            x       y       z     vdW  Elec       q    Type
REMARK                         _______ _______ _______ _____ _____    ______ ____
ROOT
ATOM      1  N   UNL     1       5.747   5.878  17.686  0.00  0.00    +0.000 NA
ATOM      2  C   UNL     1       5.064   7.161  17.420  0.00  0.00    +0.000 C 
ATOM      3  C   UNL     1       3.566   6.847  17.401  0.00  0.00    +0.000 C 
ATOM      4  N   UNL     1       3.136   6.367  18.729  0.00  0.00    +0.000 N 
ATOM      5  C   UNL     1       3.936   5.267  19.310  0.00  0.00    +0.000 C 
ATOM      6  C   UNL     1       5.471   5.408  19.067  0.00  0.00    +0.000 C 
ENDROOT
BRANCH   4   7
ATOM      7  C   UNL     1       2.275   7.178  19.444  0.00  0.00    +0.000 A 
ATOM      8  N   UNL     1       1.888   6.695  20.657  0.00  0.00    +0.000 NA
ATOM      9  C   UNL     1       1.109   7.443  21.467  0.00  0.00    +0.000 A 
ATOM     10  C   UNL     1       0.652   8.697  21.135  0.00  0.00    +0.000 A 
ATOM     11  C   UNL     1       1.026   9.209  19.902  0.00  0.00    +0.000 A 
ATOM     12  C   UNL     1       1.842   8.456  19.045  0.00  0.00    +0.000 A 
ATOM     13 CL   UNL     1       2.335   9.248  17.586  0.00  0.00    +0.000 Cl
ENDBRANCH   4   7
BRANCH   1  14
ATOM     14  S   UNL     1       7.189   5.549  16.912  0.00  0.00    +0.000 S 
ATOM     15  O   UNL     1       7.907   4.567  17.693  0.00  0.00    +0.000 OA
ATOM     16  O   UNL     1       7.805   6.816  16.566  0.00  0.00    +0.000 OA
BRANCH  14  21
ATOM     17  C   UNL     1       5.233   3.154  11.695  0.00  0.00    +0.000 C 
ATOM     18  C   UNL     1       5.754   3.703  12.991  0.00  0.00    +0.000 A 
ATOM     19  C   UNL     1       4.999   3.574  14.164  0.00  0.00    +0.000 A 
ATOM     20  C   UNL     1       5.462   4.110  15.362  0.00  0.00    +0.000 A 
ATOM     21  C   UNL     1       6.689   4.767  15.398  0.00  0.00    +0.000 A 
ATOM     22  C   UNL     1       7.454   4.916  14.236  0.00  0.00    +0.000 A 
ATOM     23  C   UNL     1       6.986   4.374  13.035  0.00  0.00    +0.000 A 
ENDBRANCH  14  21
ENDBRANCH   1  14
TORSDOF 3
ENDMDL
MODEL 5
REMARK VINA RESULT:      -6.8      4.574      8.201
REMARK  Name = 
REMARK  4 active torsions:
REMARK  status: ('A' for Active; 'I' for Inactive)
REMARK    1  A    between atoms: C_1  and  C_2
REMARK    2  A    between atoms: C_5  and  S_6
REMARK    3  A    between atoms: S_6  and  N_9
REMARK    4  A    between atoms: N_12  and  C_13
REMARK                            x       y       z     vdW  Elec       q    Type
REMARK                         _______ _______ _______ _____ _____    ______ ____
ROOT
ATOM      1  N   UNL     1       1.466   9.520  19.196  0.00  0.00    +0.000 NA
ATOM      2  C   UNL     1       1.704   8.954  17.852  0.00  0.00    +0.000 C 
ATOM      3  C   UNL     1       2.974   8.107  17.968  0.00  0.00    +0.000 C 
ATOM      4  N   UNL     1       2.747   6.987  18.902  0.00  0.00    +0.000 N 
ATOM      5  C   UNL     1       2.187   7.349  20.223  0.00  0.00    +0.000 C 
ATOM      6  C   UNL     1       1.090   8.455  20.160  0.00  0.00    +0.000 C 
ENDROOT
BRANCH   4   7
ATOM      7  C   UNL     1       2.750   5.712  18.370  0.00  0.00    +0.000 A 
ATOM      8  N   UNL     1       1.569   5.038  18.458  0.00  0.00    +0.000 NA
ATOM      9  C   UNL     1       1.444   3.815  17.901  0.00  0.00    +0.000 A 
ATOM     10  C   UNL     1       2.464   3.173  17.239  0.00  0.00    +0.000 A 
ATOM     11  C   UNL     1       3.679   3.835  17.142  0.00  0.00    +0.000 A 
ATOM     12  C   UNL     1       3.834   5.111  17.704  0.00  0.00    +0.000 A 
ATOM     13 CL   UNL     1       5.358   5.880  17.417  0.00  0.00    +0.000 Cl
ENDBRANCH   4   7
BRANCH   1  14
ATOM     14  S   UNL     1       0.886  11.080  19.330  0.00  0.00    +0.000 S 
ATOM     15  O   UNL     1       1.585  11.905  18.370  0.00  0.00    +0.000 OA
ATOM     16  O   UNL     1       0.877  11.428  20.738  0.00  0.00    +0.000 OA
BRANCH  14  21
ATOM     17  C   UNL     1      -4.840  10.963  17.338  0.00  0.00    +0.000 C 
ATOM     18  C   UNL     1      -3.432  10.942  17.858  0.00  0.00    +0.000 A 
ATOM     19  C   UNL     1      -3.062  11.779  18.919  0.00  0.00    +0.000 A 
ATOM     20  C   UNL     1      -1.751  11.787  19.384  0.00  0.00    +0.000 A 
ATOM     21  C   UNL     1      -0.803  10.951  18.799  0.00  0.00    +0.000 A 
ATOM     22  C   UNL     1      -1.150  10.115  17.732  0.00  0.00    +0.000 A 
ATOM     23  C   UNL     1      -2.469  10.108  17.270  0.00  0.00    +0.000 A 
ENDBRANCH  14  21
ENDBRANCH   1  14
TORSDOF 3
ENDMDL
MODEL 6
REMARK VINA RESULT:      -6.7      2.735      3.167
REMARK  Name = 
REMARK  4 active torsions:
REMARK  status: ('A' for Active; 'I' for Inactive)
REMARK    1  A    between atoms: C_1  and  C_2
REMARK    2  A    between atoms: C_5  and  S_6
REMARK    3  A    between atoms: S_6  and  N_9
REMARK    4  A    between atoms: N_12  and  C_13
REMARK                            x       y       z     vdW  Elec       q    Type
REMARK                         _______ _______ _______ _____ _____    ______ ____
ROOT
ATOM      1  N   UNL     1       5.453   5.244  16.904  0.00  0.00    +0.000 NA
ATOM      2  C   UNL     1       4.035   4.867  16.734  0.00  0.00    +0.000 C 
ATOM      3  C   UNL     1       3.903   3.451  17.302  0.00  0.00    +0.000 C 
ATOM      4  N   UNL     1       4.204   3.460  18.746  0.00  0.00    +0.000 N 
ATOM      5  C   UNL     1       5.473   4.110  19.140  0.00  0.00    +0.000 C 
ATOM      6  C   UNL     1       5.788   5.412  18.340  0.00  0.00    +0.000 C 
ENDROOT
BRANCH   4   7
ATOM      7  C   UNL     1       3.160   3.181  19.609  0.00  0.00    +0.000 A 
ATOM      8  N   UNL     1       3.520   2.648  20.809  0.00  0.00    +0.000 NA
ATOM      9  C   UNL     1       2.584   2.411  21.753  0.00  0.00    +0.000 A 
ATOM     10  C   UNL     1       1.244   2.665  21.575  0.00  0.00    +0.000 A 
ATOM     11  C   UNL     1       0.851   3.201  20.358  0.00  0.00    +0.000 A 
ATOM     12  C   UNL     1       1.804   3.466  19.364  0.00  0.00    +0.000 A 
ATOM     13 CL   UNL     1       1.207   4.240  17.935  0.00  0.00    +0.000 Cl
ENDBRANCH   4   7
BRANCH   1  14
ATOM     14  S   UNL     1       6.205   6.138  15.710  0.00  0.00    +0.000 S 
ATOM     15  O   UNL     1       7.519   6.510  16.186  0.00  0.00    +0.000 OA
ATOM     16  O   UNL     1       5.267   7.148  15.257  0.00  0.00    +0.000 OA
BRANCH  14  21
ATOM     17  C   UNL     1       6.698   2.366  10.988  0.00  0.00    +0.000 C 
ATOM     18  C   UNL     1       6.615   3.268  12.185  0.00  0.00    +0.000 A 
ATOM     19  C   UNL     1       5.511   3.195  13.044  0.00  0.00    +0.000 A 
ATOM     20  C   UNL     1       5.413   4.051  14.137  0.00  0.00    +0.000 A 
ATOM     21  C   UNL     1       6.423   4.977  14.385  0.00  0.00    +0.000 A 
ATOM     22  C   UNL     1       7.529   5.073  13.532  0.00  0.00    +0.000 A 
ATOM     23  C   UNL     1       7.625   4.209  12.437  0.00  0.00    +0.000 A 
ENDBRANCH  14  21
ENDBRANCH   1  14
TORSDOF 3
ENDMDL
MODEL 7
REMARK VINA RESULT:      -6.7      2.586      3.282
REMARK  Name = 
REMARK  4 active torsions:
REMARK  status: ('A' for Active; 'I' for Inactive)
REMARK    1  A    between atoms: C_1  and  C_2
REMARK    2  A    between atoms: C_5  and  S_6
REMARK    3  A    between atoms: S_6  and  N_9
REMARK    4  A    between atoms: N_12  and  C_13
REMARK                            x       y       z     vdW  Elec       q    Type
REMARK                         _______ _______ _______ _____ _____    ______ ____
ROOT
ATOM      1  N   UNL     1       4.944   5.117  16.516  0.00  0.00    +0.000 NA
ATOM      2  C   UNL     1       4.260   5.825  17.618  0.00  0.00    +0.000 C 
ATOM      3  C   UNL     1       2.873   5.187  17.734  0.00  0.00    +0.000 C 
ATOM      4  N   UNL     1       3.004   3.768  18.114  0.00  0.00    +0.000 N 
ATOM      5  C   UNL     1       3.930   2.959  17.292  0.00  0.00    +0.000 C 
ATOM      6  C   UNL     1       5.237   3.711  16.892  0.00  0.00    +0.000 C 
ENDROOT
BRANCH   4   7
ATOM      7  C   UNL     1       2.538   3.405  19.364  0.00  0.00    +0.000 A 
ATOM      8  N   UNL     1       1.222   3.668  19.597  0.00  0.00    +0.000 NA
ATOM      9  C   UNL     1       0.650   3.283  20.758  0.00  0.00    +0.000 A 
ATOM     10  C   UNL     1       1.330   2.635  21.762  0.00  0.00    +0.000 A 
ATOM     11  C   UNL     1       2.674   2.363  21.552  0.00  0.00    +0.000 A 
ATOM     12  C   UNL     1       3.290   2.743  20.351  0.00  0.00    +0.000 A 
ATOM     13 CL   UNL     1       4.938   2.245  20.160  0.00  0.00    +0.000 Cl
ENDBRANCH   4   7
BRANCH   1  14
ATOM     14  S   UNL     1       5.933   5.981  15.485  0.00  0.00    +0.000 S 
ATOM     15  O   UNL     1       7.229   6.117  16.110  0.00  0.00    +0.000 OA
ATOM     16  O   UNL     1       5.197   7.151  15.043  0.00  0.00    +0.000 OA
BRANCH  14  21
ATOM     17  C   UNL     1       6.788   2.093  10.910  0.00  0.00    +0.000 C 
ATOM     18  C   UNL     1       6.546   3.089  12.007  0.00  0.00    +0.000 A 
ATOM     19  C   UNL     1       7.565   3.967  12.397  0.00  0.00    +0.000 A 
ATOM     20  C   UNL     1       7.356   4.870  13.436  0.00  0.00    +0.000 A 
ATOM     21  C   UNL     1       6.124   4.909  14.082  0.00  0.00    +0.000 A 
ATOM     22  C   UNL     1       5.096   4.033  13.714  0.00  0.00    +0.000 A 
ATOM     23  C   UNL     1       5.309   3.130  12.669  0.00  0.00    +0.000 A 
ENDBRANCH  14  21
ENDBRANCH   1  14
TORSDOF 3
ENDMDL
MODEL 8
REMARK VINA RESULT:      -6.7      2.568      3.397
REMARK  Name = 
REMARK  4 active torsions:
REMARK  status: ('A' for Active; 'I' for Inactive)
REMARK    1  A    between atoms: C_1  and  C_2
REMARK    2  A    between atoms: C_5  and  S_6
REMARK    3  A    between atoms: S_6  and  N_9
REMARK    4  A    between atoms: N_12  and  C_13
REMARK                            x       y       z     vdW  Elec       q    Type
REMARK                         _______ _______ _______ _____ _____    ______ ____
ROOT
ATOM      1  N   UNL     1       3.446   4.758  19.345  0.00  0.00    +0.000 NA
ATOM      2  C   UNL     1       3.858   6.146  19.049  0.00  0.00    +0.000 C 
ATOM      3  C   UNL     1       2.589   6.879  18.608  0.00  0.00    +0.000 C 
ATOM      4  N   UNL     1       1.619   6.918  19.719  0.00  0.00    +0.000 N 
ATOM      5  C   UNL     1       1.325   5.621  20.368  0.00  0.00    +0.000 C 
ATOM      6  C   UNL     1       2.578   4.709  20.549  0.00  0.00    +0.000 C 
ENDROOT
BRANCH   4   7
ATOM      7  C   UNL     1       1.338   8.155  20.267  0.00  0.00    +0.000 A 
ATOM      8  N   UNL     1       1.400   8.220  21.627  0.00  0.00    +0.000 NA
ATOM      9  C   UNL     1       1.218   9.400  22.257  0.00  0.00    +0.000 A 
ATOM     10  C   UNL     1       0.950  10.579  21.601  0.00  0.00    +0.000 A 
ATOM     11  C   UNL     1       0.875  10.537  20.217  0.00  0.00    +0.000 A 
ATOM     12  C   UNL     1       1.070   9.326  19.536  0.00  0.00    +0.000 A 
ATOM     13 CL   UNL     1       1.066   9.425  17.808  0.00  0.00    +0.000 Cl
ENDBRANCH   4   7
BRANCH   1  14
ATOM     14  S   UNL     1       4.470   3.502  18.942  0.00  0.00    +0.000 S 
ATOM     15  O   UNL     1       3.662   2.357  18.591  0.00  0.00    +0.000 OA
ATOM     16  O   UNL     1       5.481   3.406  19.978  0.00  0.00    +0.000 OA
BRANCH  14  21
ATOM     17  C   UNL     1       7.395   5.111  13.879  0.00  0.00    +0.000 C 
ATOM     18  C   UNL     1       6.644   4.764  15.132  0.00  0.00    +0.000 A 
ATOM     19  C   UNL     1       7.291   4.804  16.374  0.00  0.00    +0.000 A 
ATOM     20  C   UNL     1       6.609   4.451  17.534  0.00  0.00    +0.000 A 
ATOM     21  C   UNL     1       5.272   4.068  17.462  0.00  0.00    +0.000 A 
ATOM     22  C   UNL     1       4.610   4.011  16.231  0.00  0.00    +0.000 A 
ATOM     23  C   UNL     1       5.299   4.369  15.067  0.00  0.00    +0.000 A 
ENDBRANCH  14  21
ENDBRANCH   1  14
TORSDOF 3
ENDMDL
MODEL 9
REMARK VINA RESULT:      -6.7      2.183      3.075
REMARK  Name = 
REMARK  4 active torsions:
REMARK  status: ('A' for Active; 'I' for Inactive)
REMARK    1  A    between atoms: C_1  and  C_2
REMARK    2  A    between atoms: C_5  and  S_6
REMARK    3  A    between atoms: S_6  and  N_9
REMARK    4  A    between atoms: N_12  and  C_13
REMARK                            x       y       z     vdW  Elec       q    Type
REMARK                         _______ _______ _______ _____ _____    ______ ____
ROOT
ATOM      1  N   UNL     1       3.580   5.355  18.368  0.00  0.00    +0.000 NA
ATOM      2  C   UNL     1       2.302   5.423  19.106  0.00  0.00    +0.000 C 
ATOM      3  C   UNL     1       2.386   6.676  19.982  0.00  0.00    +0.000 C 
ATOM      4  N   UNL     1       2.488   7.877  19.131  0.00  0.00    +0.000 N 
ATOM      5  C   UNL     1       3.537   7.846  18.089  0.00  0.00    +0.000 C 
ATOM      6  C   UNL     1       3.684   6.462  17.385  0.00  0.00    +0.000 C 
ENDROOT
BRANCH   4   7
ATOM      7  C   UNL     1       1.419   8.753  19.147  0.00  0.00    +0.000 A 
ATOM      8  N   UNL     1       0.906   9.073  17.927  0.00  0.00    +0.000 NA
ATOM      9  C   UNL     1      -0.187   9.860  17.837  0.00  0.00    +0.000 A 
ATOM     10  C   UNL     1      -0.833  10.392  18.928  0.00  0.00    +0.000 A 
ATOM     11  C   UNL     1      -0.325  10.088  20.182  0.00  0.00    +0.000 A 
ATOM     12  C   UNL     1       0.803   9.264  20.305  0.00  0.00    +0.000 A 
ATOM     13 CL   UNL     1       1.271   8.864  21.923  0.00  0.00    +0.000 Cl
ENDBRANCH   4   7
BRANCH   1  14
ATOM     14  S   UNL     1       4.285   3.865  18.100  0.00  0.00    +0.000 S 
ATOM     15  O   UNL     1       3.250   2.944  17.688  0.00  0.00    +0.000 OA
ATOM     16  O   UNL     1       5.134   3.566  19.238  0.00  0.00    +0.000 OA
BRANCH  14  21
ATOM     17  C   UNL     1       7.717   5.130  13.262  0.00  0.00    +0.000 C 
ATOM     18  C   UNL     1       6.897   4.768  14.467  0.00  0.00    +0.000 A 
ATOM     19  C   UNL     1       5.595   4.276  14.309  0.00  0.00    +0.000 A 
ATOM     20  C   UNL     1       4.819   3.970  15.424  0.00  0.00    +0.000 A 
ATOM     21  C   UNL     1       5.344   4.143  16.702  0.00  0.00    +0.000 A 
ATOM     22  C   UNL     1       6.639   4.643  16.881  0.00  0.00    +0.000 A 
ATOM     23  C   UNL     1       7.416   4.946  15.759  0.00  0.00    +0.000 A 
ENDBRANCH  14  21
ENDBRANCH   1  14
TORSDOF 3
ENDMDL
