MODEL 1
REMARK VINA RESULT:      -9.0      0.000      0.000
REMARK  Name = 
REMARK  5 active torsions:
REMARK  status: ('A' for Active; 'I' for Inactive)
REMARK    1  A    between atoms: C_2  and  C_24
REMARK    2  A    between atoms: N_3  and  C_4
REMARK    3  A    between atoms: C_6  and  C_7
REMARK    4  A    between atoms: C_7  and  N_8
REMARK    5  A    between atoms: C_28  and  C_30
REMARK                            x       y       z     vdW  Elec       q    Type
REMARK                         _______ _______ _______ _____ _____    ______ ____
ROOT
ATOM      1  C   UNL     1       2.619   6.800  18.979  0.00  0.00    +0.000 A 
ATOM      2  C   UNL     1       2.486   8.050  18.383  0.00  0.00    +0.000 A 
ATOM      3  C   UNL     1       1.699   9.039  18.984  0.00  0.00    +0.000 A 
ATOM      4  C   UNL     1       1.172   8.754  20.241  0.00  0.00    +0.000 A 
ATOM      5  N   UNL     1       1.326   7.571  20.879  0.00  0.00    +0.000 NA
ATOM      6  C   UNL     1       2.017   6.607  20.225  0.00  0.00    +0.000 A 
ATOM      7  F   UNL     1       2.198   5.452  20.881  0.00  0.00    +0.000 F 
ENDROOT
BRANCH   1  10
ATOM      8  O   UNL     1       5.182   5.869  19.632  0.00  0.00    +0.000 OA
ATOM      9  C   UNL     1       4.612   5.433  18.635  0.00  0.00    +0.000 C 
ATOM     10  N   UNL     1       3.331   5.808  18.262  0.00  0.00    +0.000 N 
ATOM     11  H   UNL     1       2.779   5.101  17.795  0.00  0.00    +0.000 HD
BRANCH   9  12
ATOM     12  C   UNL     1       5.182   4.274  17.824  0.00  0.00    +0.000 C 
ATOM     13  C   UNL     1       4.194   3.611  16.862  0.00  0.00    +0.000 C 
ATOM     14  C   UNL     1       5.059   3.153  15.698  0.00  0.00    +0.000 C 
ATOM     15  N   UNL     1       6.070   4.181  15.607  0.00  0.00    +0.000 N 
ATOM     16  C   UNL     1       6.802   4.666  14.536  0.00  0.00    +0.000 C 
ATOM     17  O   UNL     1       7.686   5.503  14.721  0.00  0.00    +0.000 OA
ATOM     18  C   UNL     1       6.317   4.760  16.922  0.00  0.00    +0.000 C 
BRANCH  16  19
ATOM     19  C   UNL     1       6.562   4.286  13.116  0.00  0.00    +0.000 C 
ATOM     20  C   UNL     1       6.334   2.937  12.504  0.00  0.00    +0.000 C 
ATOM     21  C   UNL     1       5.186   3.903  12.626  0.00  0.00    +0.000 C 
ENDBRANCH  16  19
ENDBRANCH   9  12
ENDBRANCH   1  10
BRANCH   3  22
ATOM     22  C   UNL     1       1.366  10.313  18.246  0.00  0.00    +0.000 C 
BRANCH  22  23
ATOM     23  N   UNL     1       0.243  11.056  18.809  0.00  0.00    +0.000 N 
ATOM     24  C   UNL     1       0.545  12.034  19.749  0.00  0.00    +0.000 A 
ATOM     25  O   UNL     1       1.686  12.306  20.120  0.00  0.00    +0.000 OA
ATOM     26  N   UNL     1      -0.504  12.722  20.284  0.00  0.00    +0.000 N 
ATOM     27  C   UNL     1      -1.827  12.559  19.994  0.00  0.00    +0.000 A 
ATOM     28  O   UNL     1      -2.702  13.184  20.580  0.00  0.00    +0.000 OA
ATOM     29  C   UNL     1      -2.136  11.598  18.924  0.00  0.00    +0.000 A 
ATOM     30  C   UNL     1      -3.461  11.477  18.479  0.00  0.00    +0.000 A 
ATOM     31  C   UNL     1      -3.765  10.598  17.448  0.00  0.00    +0.000 A 
ATOM     32  C   UNL     1      -2.753   9.831  16.880  0.00  0.00    +0.000 A 
ATOM     33  C   UNL     1      -1.433   9.949  17.336  0.00  0.00    +0.000 A 
ATOM     34  C   UNL     1      -1.097  10.850  18.357  0.00  0.00    +0.000 A 
ATOM     35  H   UNL     1      -0.279  13.412  20.986  0.00  0.00    +0.000 HD
ENDBRANCH  22  23
ENDBRANCH   3  22
TORSDOF 5
ENDMDL
MODEL 2
REMARK VINA RESULT:      -8.9      3.365      4.958
REMARK  Name = 
REMARK  5 active torsions:
REMARK  status: ('A' for Active; 'I' for Inactive)
REMARK    1  A    between atoms: C_2  and  C_24
REMARK    2  A    between atoms: N_3  and  C_4
REMARK    3  A    between atoms: C_6  and  C_7
REMARK    4  A    between atoms: C_7  and  N_8
REMARK    5  A    between atoms: C_28  and  C_30
REMARK                            x       y       z     vdW  Elec       q    Type
REMARK                         _______ _______ _______ _____ _____    ______ ____
ROOT
ATOM      1  C   UNL     1       0.427  10.360  19.181  0.00  0.00    +0.000 A 
ATOM      2  C   UNL     1       0.846  11.438  19.954  0.00  0.00    +0.000 A 
ATOM      3  C   UNL     1       0.214  12.681  19.835  0.00  0.00    +0.000 A 
ATOM      4  C   UNL     1      -0.909  12.746  19.015  0.00  0.00    +0.000 A 
ATOM      5  N   UNL     1      -1.382  11.706  18.291  0.00  0.00    +0.000 NA
ATOM      6  C   UNL     1      -0.689  10.544  18.361  0.00  0.00    +0.000 A 
ATOM      7  F   UNL     1      -1.188   9.507  17.672  0.00  0.00    +0.000 F 
ENDROOT
BRANCH   1  10
ATOM      8  O   UNL     1       2.135   9.392  17.179  0.00  0.00    +0.000 OA
ATOM      9  C   UNL     1       1.974   8.741  18.208  0.00  0.00    +0.000 C 
ATOM     10  N   UNL     1       1.182   9.164  19.263  0.00  0.00    +0.000 N 
ATOM     11  H   UNL     1       1.480   8.877  20.186  0.00  0.00    +0.000 HD
BRANCH   9  12
ATOM     12  C   UNL     1       2.803   7.498  18.512  0.00  0.00    +0.000 C 
ATOM     13  C   UNL     1       2.113   6.169  18.197  0.00  0.00    +0.000 C 
ATOM     14  C   UNL     1       3.252   5.246  17.791  0.00  0.00    +0.000 C 
ATOM     15  N   UNL     1       4.172   6.128  17.111  0.00  0.00    +0.000 N 
ATOM     16  C   UNL     1       5.085   5.907  16.094  0.00  0.00    +0.000 C 
ATOM     17  O   UNL     1       5.835   6.813  15.729  0.00  0.00    +0.000 OA
ATOM     18  C   UNL     1       4.070   7.477  17.656  0.00  0.00    +0.000 C 
BRANCH  16  19
ATOM     19  C   UNL     1       5.202   4.629  15.337  0.00  0.00    +0.000 C 
ATOM     20  C   UNL     1       6.132   4.248  14.225  0.00  0.00    +0.000 C 
ATOM     21  C   UNL     1       6.331   3.661  15.597  0.00  0.00    +0.000 C 
ENDBRANCH  16  19
ENDBRANCH   9  12
ENDBRANCH   1  10
BRANCH   3  22
ATOM     22  C   UNL     1       0.796  13.907  20.496  0.00  0.00    +0.000 C 
BRANCH  22  23
ATOM     23  N   UNL     1       1.311  14.903  19.563  0.00  0.00    +0.000 N 
ATOM     24  C   UNL     1       2.575  14.675  19.033  0.00  0.00    +0.000 A 
ATOM     25  O   UNL     1       3.267  13.692  19.298  0.00  0.00    +0.000 OA
ATOM     26  N   UNL     1       3.063  15.611  18.170  0.00  0.00    +0.000 N 
ATOM     27  C   UNL     1       2.441  16.754  17.762  0.00  0.00    +0.000 A 
ATOM     28  O   UNL     1       2.993  17.568  17.030  0.00  0.00    +0.000 OA
ATOM     29  C   UNL     1       1.063  16.942  18.240  0.00  0.00    +0.000 A 
ATOM     30  C   UNL     1       0.315  18.025  17.754  0.00  0.00    +0.000 A 
ATOM     31  C   UNL     1      -0.998  18.199  18.172  0.00  0.00    +0.000 A 
ATOM     32  C   UNL     1      -1.551  17.307  19.084  0.00  0.00    +0.000 A 
ATOM     33  C   UNL     1      -0.795  16.233  19.573  0.00  0.00    +0.000 A 
ATOM     34  C   UNL     1       0.523  16.021  19.146  0.00  0.00    +0.000 A 
ATOM     35  H   UNL     1       3.993  15.452  17.810  0.00  0.00    +0.000 HD
ENDBRANCH  22  23
ENDBRANCH   3  22
TORSDOF 5
ENDMDL
MODEL 3
REMARK VINA RESULT:      -8.8      3.250      5.082
REMARK  Name = 
REMARK  5 active torsions:
REMARK  status: ('A' for Active; 'I' for Inactive)
REMARK    1  A    between atoms: C_2  and  C_24
REMARK    2  A    between atoms: N_3  and  C_4
REMARK    3  A    between atoms: C_6  and  C_7
REMARK    4  A    between atoms: C_7  and  N_8
REMARK    5  A    between atoms: C_28  and  C_30
REMARK                            x       y       z     vdW  Elec       q    Type
REMARK                         _______ _______ _______ _____ _____    ______ ____
ROOT
ATOM      1  C   UNL     1       0.255  10.297  19.049  0.00  0.00    +0.000 A 
ATOM      2  C   UNL     1       0.570  11.335  19.920  0.00  0.00    +0.000 A 
ATOM      3  C   UNL     1      -0.073  12.573  19.806  0.00  0.00    +0.000 A 
ATOM      4  C   UNL     1      -1.108  12.668  18.880  0.00  0.00    +0.000 A 
ATOM      5  N   UNL     1      -1.482  11.664  18.054  0.00  0.00    +0.000 NA
ATOM      6  C   UNL     1      -0.775  10.511  18.130  0.00  0.00    +0.000 A 
ATOM      7  F   UNL     1      -1.179   9.509  17.336  0.00  0.00    +0.000 F 
ENDROOT
BRANCH   1  10
ATOM      8  O   UNL     1       2.259   9.531  17.244  0.00  0.00    +0.000 OA
ATOM      9  C   UNL     1       1.971   8.793  18.182  0.00  0.00    +0.000 C 
ATOM     10  N   UNL     1       1.023   9.111  19.141  0.00  0.00    +0.000 N 
ATOM     11  H   UNL     1       1.193   8.751  20.071  0.00  0.00    +0.000 HD
BRANCH   9  12
ATOM     12  C   UNL     1       2.781   7.541  18.500  0.00  0.00    +0.000 C 
ATOM     13  C   UNL     1       2.078   6.218  18.185  0.00  0.00    +0.000 C 
ATOM     14  C   UNL     1       3.210   5.280  17.794  0.00  0.00    +0.000 C 
ATOM     15  N   UNL     1       4.146   6.147  17.118  0.00  0.00    +0.000 N 
ATOM     16  C   UNL     1       5.066   5.909  16.111  0.00  0.00    +0.000 C 
ATOM     17  O   UNL     1       5.830   6.804  15.748  0.00  0.00    +0.000 OA
ATOM     18  C   UNL     1       4.055   7.500  17.655  0.00  0.00    +0.000 C 
BRANCH  16  19
ATOM     19  C   UNL     1       5.174   4.626  15.361  0.00  0.00    +0.000 C 
ATOM     20  C   UNL     1       6.060   4.253  14.211  0.00  0.00    +0.000 C 
ATOM     21  C   UNL     1       6.333   3.684  15.578  0.00  0.00    +0.000 C 
ENDBRANCH  16  19
ENDBRANCH   9  12
ENDBRANCH   1  10
BRANCH   3  22
ATOM     22  C   UNL     1       0.411  13.768  20.591  0.00  0.00    +0.000 C 
BRANCH  22  23
ATOM     23  N   UNL     1       0.723  14.936  19.774  0.00  0.00    +0.000 N 
ATOM     24  C   UNL     1      -0.185  15.988  19.807  0.00  0.00    +0.000 A 
ATOM     25  O   UNL     1      -1.214  15.989  20.481  0.00  0.00    +0.000 OA
ATOM     26  N   UNL     1       0.100  17.075  19.035  0.00  0.00    +0.000 N 
ATOM     27  C   UNL     1       1.187  17.249  18.231  0.00  0.00    +0.000 A 
ATOM     28  O   UNL     1       1.319  18.240  17.523  0.00  0.00    +0.000 OA
ATOM     29  C   UNL     1       2.198  16.182  18.277  0.00  0.00    +0.000 A 
ATOM     30  C   UNL     1       3.404  16.354  17.580  0.00  0.00    +0.000 A 
ATOM     31  C   UNL     1       4.381  15.370  17.639  0.00  0.00    +0.000 A 
ATOM     32  C   UNL     1       4.146  14.213  18.373  0.00  0.00    +0.000 A 
ATOM     33  C   UNL     1       2.936  14.042  19.059  0.00  0.00    +0.000 A 
ATOM     34  C   UNL     1       1.944  15.033  19.037  0.00  0.00    +0.000 A 
ATOM     35  H   UNL     1      -0.578  17.823  19.044  0.00  0.00    +0.000 HD
ENDBRANCH  22  23
ENDBRANCH   3  22
TORSDOF 5
ENDMDL
MODEL 4
REMARK VINA RESULT:      -8.7      2.205      9.403
REMARK  Name = 
REMARK  5 active torsions:
REMARK  status: ('A' for Active; 'I' for Inactive)
REMARK    1  A    between atoms: C_2  and  C_24
REMARK    2  A    between atoms: N_3  and  C_4
REMARK    3  A    between atoms: C_6  and  C_7
REMARK    4  A    between atoms: C_7  and  N_8
REMARK    5  A    between atoms: C_28  and  C_30
REMARK                            x       y       z     vdW  Elec       q    Type
REMARK                         _______ _______ _______ _____ _____    ______ ____
ROOT
ATOM      1  C   UNL     1       2.323   5.997  20.008  0.00  0.00    +0.000 A 
ATOM      2  C   UNL     1       3.529   5.525  19.502  0.00  0.00    +0.000 A 
ATOM      3  C   UNL     1       3.829   4.159  19.549  0.00  0.00    +0.000 A 
ATOM      4  C   UNL     1       2.828   3.305  20.003  0.00  0.00    +0.000 A 
ATOM      5  N   UNL     1       1.621   3.720  20.452  0.00  0.00    +0.000 NA
ATOM      6  C   UNL     1       1.402   5.056  20.477  0.00  0.00    +0.000 A 
ATOM      7  F   UNL     1       0.189   5.456  20.885  0.00  0.00    +0.000 F 
ENDROOT
BRANCH   1  10
ATOM      8  O   UNL     1       1.794   7.599  17.768  0.00  0.00    +0.000 OA
ATOM      9  C   UNL     1       1.910   8.120  18.875  0.00  0.00    +0.000 C 
ATOM     10  N   UNL     1       2.131   7.400  20.038  0.00  0.00    +0.000 N 
ATOM     11  H   UNL     1       1.730   7.786  20.883  0.00  0.00    +0.000 HD
BRANCH   9  12
ATOM     12  C   UNL     1       1.612   9.597  19.104  0.00  0.00    +0.000 C 
ATOM     13  C   UNL     1       0.335  10.111  18.435  0.00  0.00    +0.000 C 
ATOM     14  C   UNL     1      -0.168  11.195  19.376  0.00  0.00    +0.000 C 
ATOM     15  N   UNL     1       0.194  10.698  20.683  0.00  0.00    +0.000 N 
ATOM     16  C   UNL     1      -0.376  10.878  21.932  0.00  0.00    +0.000 C 
ATOM     17  O   UNL     1       0.171  10.415  22.934  0.00  0.00    +0.000 OA
ATOM     18  C   UNL     1       1.394   9.874  20.592  0.00  0.00    +0.000 C 
BRANCH  16  19
ATOM     19  C   UNL     1      -1.677  11.564  22.168  0.00  0.00    +0.000 C 
ATOM     20  C   UNL     1      -2.430  11.793  23.443  0.00  0.00    +0.000 C 
ATOM     21  C   UNL     1      -1.740  12.948  22.767  0.00  0.00    +0.000 C 
ENDBRANCH  16  19
ENDBRANCH   9  12
ENDBRANCH   1  10
BRANCH   3  22
ATOM     22  C   UNL     1       5.213   3.662  19.211  0.00  0.00    +0.000 C 
BRANCH  22  23
ATOM     23  N   UNL     1       6.014   4.602  18.433  0.00  0.00    +0.000 N 
ATOM     24  C   UNL     1       6.892   5.415  19.139  0.00  0.00    +0.000 A 
ATOM     25  O   UNL     1       7.034   5.381  20.360  0.00  0.00    +0.000 OA
ATOM     26  N   UNL     1       7.632   6.302  18.414  0.00  0.00    +0.000 N 
ATOM     27  C   UNL     1       7.610   6.479  17.062  0.00  0.00    +0.000 A 
ATOM     28  O   UNL     1       8.269   7.351  16.510  0.00  0.00    +0.000 OA
ATOM     29  C   UNL     1       6.759   5.547  16.306  0.00  0.00    +0.000 A 
ATOM     30  C   UNL     1       6.789   5.581  14.904  0.00  0.00    +0.000 A 
ATOM     31  C   UNL     1       6.015   4.688  14.176  0.00  0.00    +0.000 A 
ATOM     32  C   UNL     1       5.202   3.780  14.846  0.00  0.00    +0.000 A 
ATOM     33  C   UNL     1       5.169   3.758  16.246  0.00  0.00    +0.000 A 
ATOM     34  C   UNL     1       5.962   4.632  17.004  0.00  0.00    +0.000 A 
ATOM     35  H   UNL     1       8.249   6.908  18.937  0.00  0.00    +0.000 HD
ENDBRANCH  22  23
ENDBRANCH   3  22
TORSDOF 5
ENDMDL
MODEL 5
REMARK VINA RESULT:      -8.6      3.973      7.273
REMARK  Name = 
REMARK  5 active torsions:
REMARK  status: ('A' for Active; 'I' for Inactive)
REMARK    1  A    between atoms: C_2  and  C_24
REMARK    2  A    between atoms: N_3  and  C_4
REMARK    3  A    between atoms: C_6  and  C_7
REMARK    4  A    between atoms: C_7  and  N_8
REMARK    5  A    between atoms: C_28  and  C_30
REMARK                            x       y       z     vdW  Elec       q    Type
REMARK                         _______ _______ _______ _____ _____    ______ ____
ROOT
ATOM      1  C   UNL     1      -2.830  10.621  18.111  0.00  0.00    +0.000 A 
ATOM      2  C   UNL     1      -3.758  11.407  18.786  0.00  0.00    +0.000 A 
ATOM      3  C   UNL     1      -4.839  11.972  18.099  0.00  0.00    +0.000 A 
ATOM      4  C   UNL     1      -5.000  11.611  16.764  0.00  0.00    +0.000 A 
ATOM      5  N   UNL     1      -4.151  10.805  16.087  0.00  0.00    +0.000 NA
ATOM      6  C   UNL     1      -3.067  10.352  16.761  0.00  0.00    +0.000 A 
ATOM      7  F   UNL     1      -2.252   9.522  16.094  0.00  0.00    +0.000 F 
ENDROOT
BRANCH   1  10
ATOM      8  O   UNL     1      -0.386  11.986  18.279  0.00  0.00    +0.000 OA
ATOM      9  C   UNL     1      -0.515  10.899  18.836  0.00  0.00    +0.000 C 
ATOM     10  N   UNL     1      -1.698  10.178  18.838  0.00  0.00    +0.000 N 
ATOM     11  H   UNL     1      -1.878   9.620  19.663  0.00  0.00    +0.000 HD
BRANCH   9  12
ATOM     12  C   UNL     1       0.558  10.336  19.761  0.00  0.00    +0.000 C 
ATOM     13  C   UNL     1       0.045   9.383  20.843  0.00  0.00    +0.000 C 
ATOM     14  C   UNL     1       1.188   8.400  21.044  0.00  0.00    +0.000 C 
ATOM     15  N   UNL     1       1.753   8.266  19.721  0.00  0.00    +0.000 N 
ATOM     16  C   UNL     1       2.414   7.220  19.099  0.00  0.00    +0.000 C 
ATOM     17  O   UNL     1       2.890   7.373  17.973  0.00  0.00    +0.000 OA
ATOM     18  C   UNL     1       1.563   9.500  18.967  0.00  0.00    +0.000 C 
BRANCH  16  19
ATOM     19  C   UNL     1       2.555   5.855  19.678  0.00  0.00    +0.000 C 
ATOM     20  C   UNL     1       1.573   5.031  20.456  0.00  0.00    +0.000 C 
ATOM     21  C   UNL     1       1.901   4.656  19.035  0.00  0.00    +0.000 C 
ENDBRANCH  16  19
ENDBRANCH   9  12
ENDBRANCH   1  10
BRANCH   3  22
ATOM     22  C   UNL     1      -5.722  12.999  18.764  0.00  0.00    +0.000 C 
BRANCH  22  23
ATOM     23  N   UNL     1      -6.071  12.685  20.146  0.00  0.00    +0.000 N 
ATOM     24  C   UNL     1      -7.040  11.710  20.344  0.00  0.00    +0.000 A 
ATOM     25  O   UNL     1      -7.604  11.103  19.435  0.00  0.00    +0.000 OA
ATOM     26  N   UNL     1      -7.375  11.424  21.635  0.00  0.00    +0.000 N 
ATOM     27  C   UNL     1      -6.857  11.991  22.762  0.00  0.00    +0.000 A 
ATOM     28  O   UNL     1      -7.273  11.710  23.880  0.00  0.00    +0.000 OA
ATOM     29  C   UNL     1      -5.759  12.946  22.555  0.00  0.00    +0.000 A 
ATOM     30  C   UNL     1      -5.088  13.466  23.672  0.00  0.00    +0.000 A 
ATOM     31  C   UNL     1      -4.028  14.345  23.493  0.00  0.00    +0.000 A 
ATOM     32  C   UNL     1      -3.655  14.716  22.205  0.00  0.00    +0.000 A 
ATOM     33  C   UNL     1      -4.336  14.201  21.094  0.00  0.00    +0.000 A 
ATOM     34  C   UNL     1      -5.391  13.291  21.248  0.00  0.00    +0.000 A 
ATOM     35  H   UNL     1      -8.099  10.733  21.770  0.00  0.00    +0.000 HD
ENDBRANCH  22  23
ENDBRANCH   3  22
TORSDOF 5
ENDMDL
MODEL 6
REMARK VINA RESULT:      -8.5      3.838      6.004
REMARK  Name = 
REMARK  5 active torsions:
REMARK  status: ('A' for Active; 'I' for Inactive)
REMARK    1  A    between atoms: C_2  and  C_24
REMARK    2  A    between atoms: N_3  and  C_4
REMARK    3  A    between atoms: C_6  and  C_7
REMARK    4  A    between atoms: C_7  and  N_8
REMARK    5  A    between atoms: C_28  and  C_30
REMARK                            x       y       z     vdW  Elec       q    Type
REMARK                         _______ _______ _______ _____ _____    ______ ____
ROOT
ATOM      1  C   UNL     1       0.145  10.517  19.170  0.00  0.00    +0.000 A 
ATOM      2  C   UNL     1       0.406  11.598  20.006  0.00  0.00    +0.000 A 
ATOM      3  C   UNL     1      -0.193  12.839  19.763  0.00  0.00    +0.000 A 
ATOM      4  C   UNL     1      -1.137  12.900  18.742  0.00  0.00    +0.000 A 
ATOM      5  N   UNL     1      -1.460  11.857  17.943  0.00  0.00    +0.000 NA
ATOM      6  C   UNL     1      -0.792  10.696  18.149  0.00  0.00    +0.000 A 
ATOM      7  F   UNL     1      -1.147   9.657  17.380  0.00  0.00    +0.000 F 
ENDROOT
BRANCH   1  10
ATOM      8  O   UNL     1       2.068   9.442  17.435  0.00  0.00    +0.000 OA
ATOM      9  C   UNL     1       1.779   8.844  18.468  0.00  0.00    +0.000 C 
ATOM     10  N   UNL     1       0.872   9.323  19.399  0.00  0.00    +0.000 N 
ATOM     11  H   UNL     1       1.055   9.082  20.364  0.00  0.00    +0.000 HD
BRANCH   9  12
ATOM     12  C   UNL     1       2.552   7.613  18.929  0.00  0.00    +0.000 C 
ATOM     13  C   UNL     1       2.163   7.086  20.312  0.00  0.00    +0.000 C 
ATOM     14  C   UNL     1       2.377   5.583  20.209  0.00  0.00    +0.000 C 
ATOM     15  N   UNL     1       2.017   5.286  18.842  0.00  0.00    +0.000 N 
ATOM     16  C   UNL     1       1.494   4.148  18.250  0.00  0.00    +0.000 C 
ATOM     17  O   UNL     1       1.348   4.100  17.028  0.00  0.00    +0.000 OA
ATOM     18  C   UNL     1       2.292   6.436  17.989  0.00  0.00    +0.000 C 
BRANCH  16  19
ATOM     19  C   UNL     1       1.024   2.952  19.003  0.00  0.00    +0.000 C 
ATOM     20  C   UNL     1       1.786   1.756  19.487  0.00  0.00    +0.000 C 
ATOM     21  C   UNL     1       1.311   2.787  20.475  0.00  0.00    +0.000 C 
ENDBRANCH  16  19
ENDBRANCH   9  12
ENDBRANCH   1  10
BRANCH   3  22
ATOM     22  C   UNL     1       0.248  14.068  20.520  0.00  0.00    +0.000 C 
BRANCH  22  23
ATOM     23  N   UNL     1       1.237  14.881  19.820  0.00  0.00    +0.000 N 
ATOM     24  C   UNL     1       2.565  14.491  19.931  0.00  0.00    +0.000 A 
ATOM     25  O   UNL     1       2.945  13.511  20.572  0.00  0.00    +0.000 OA
ATOM     26  N   UNL     1       3.491  15.256  19.287  0.00  0.00    +0.000 N 
ATOM     27  C   UNL     1       3.257  16.369  18.534  0.00  0.00    +0.000 A 
ATOM     28  O   UNL     1       4.168  17.028  18.048  0.00  0.00    +0.000 OA
ATOM     29  C   UNL     1       1.843  16.720  18.330  0.00  0.00    +0.000 A 
ATOM     30  C   UNL     1       1.521  17.771  17.458  0.00  0.00    +0.000 A 
ATOM     31  C   UNL     1       0.190  18.095  17.230  0.00  0.00    +0.000 A 
ATOM     32  C   UNL     1      -0.810  17.385  17.885  0.00  0.00    +0.000 A 
ATOM     33  C   UNL     1      -0.482  16.343  18.762  0.00  0.00    +0.000 A 
ATOM     34  C   UNL     1       0.854  15.979  18.988  0.00  0.00    +0.000 A 
ATOM     35  H   UNL     1       4.457  14.982  19.395  0.00  0.00    +0.000 HD
ENDBRANCH  22  23
ENDBRANCH   3  22
TORSDOF 5
ENDMDL
MODEL 7
REMARK VINA RESULT:      -8.5      6.781      8.324
REMARK  Name = 
REMARK  5 active torsions:
REMARK  status: ('A' for Active; 'I' for Inactive)
REMARK    1  A    between atoms: C_2  and  C_24
REMARK    2  A    between atoms: N_3  and  C_4
REMARK    3  A    between atoms: C_6  and  C_7
REMARK    4  A    between atoms: C_7  and  N_8
REMARK    5  A    between atoms: C_28  and  C_30
REMARK                            x       y       z     vdW  Elec       q    Type
REMARK                         _______ _______ _______ _____ _____    ______ ____
ROOT
ATOM      1  C   UNL     1       9.631  10.576  19.436  0.00  0.00    +0.000 A 
ATOM      2  C   UNL     1       9.194  11.063  20.664  0.00  0.00    +0.000 A 
ATOM      3  C   UNL     1       9.635  12.308  21.128  0.00  0.00    +0.000 A 
ATOM      4  C   UNL     1      10.413  13.069  20.260  0.00  0.00    +0.000 A 
ATOM      5  N   UNL     1      10.811  12.655  19.035  0.00  0.00    +0.000 NA
ATOM      6  C   UNL     1      10.442  11.407  18.659  0.00  0.00    +0.000 A 
ATOM      7  F   UNL     1      10.807  11.020  17.428  0.00  0.00    +0.000 F 
ENDROOT
BRANCH   1  10
ATOM      8  O   UNL     1       7.647   9.935  17.561  0.00  0.00    +0.000 OA
ATOM      9  C   UNL     1       8.224   9.036  18.167  0.00  0.00    +0.000 C 
ATOM     10  N   UNL     1       9.242   9.262  19.079  0.00  0.00    +0.000 N 
ATOM     11  H   UNL     1       9.956   8.546  19.136  0.00  0.00    +0.000 HD
BRANCH   9  12
ATOM     12  C   UNL     1       8.017   7.566  17.817  0.00  0.00    +0.000 C 
ATOM     13  C   UNL     1       8.045   6.607  19.009  0.00  0.00    +0.000 C 
ATOM     14  C   UNL     1       7.082   5.498  18.615  0.00  0.00    +0.000 C 
ATOM     15  N   UNL     1       6.064   6.190  17.860  0.00  0.00    +0.000 N 
ATOM     16  C   UNL     1       4.716   5.933  17.671  0.00  0.00    +0.000 C 
ATOM     17  O   UNL     1       4.057   6.629  16.899  0.00  0.00    +0.000 OA
ATOM     18  C   UNL     1       6.637   7.354  17.195  0.00  0.00    +0.000 C 
BRANCH  16  19
ATOM     19  C   UNL     1       3.956   4.876  18.396  0.00  0.00    +0.000 C 
ATOM     20  C   UNL     1       2.659   4.210  18.047  0.00  0.00    +0.000 C 
ATOM     21  C   UNL     1       3.948   3.444  17.918  0.00  0.00    +0.000 C 
ENDBRANCH  16  19
ENDBRANCH   9  12
ENDBRANCH   1  10
BRANCH   3  22
ATOM     22  C   UNL     1       9.351  12.747  22.543  0.00  0.00    +0.000 C 
BRANCH  22  23
ATOM     23  N   UNL     1       8.011  13.291  22.745  0.00  0.00    +0.000 N 
ATOM     24  C   UNL     1       7.057  12.433  23.279  0.00  0.00    +0.000 A 
ATOM     25  O   UNL     1       7.279  11.264  23.591  0.00  0.00    +0.000 OA
ATOM     26  N   UNL     1       5.803  12.937  23.457  0.00  0.00    +0.000 N 
ATOM     27  C   UNL     1       5.378  14.201  23.171  0.00  0.00    +0.000 A 
ATOM     28  O   UNL     1       4.208  14.538  23.308  0.00  0.00    +0.000 OA
ATOM     29  C   UNL     1       6.412  15.137  22.706  0.00  0.00    +0.000 A 
ATOM     30  C   UNL     1       6.076  16.487  22.521  0.00  0.00    +0.000 A 
ATOM     31  C   UNL     1       7.048  17.390  22.112  0.00  0.00    +0.000 A 
ATOM     32  C   UNL     1       8.342  16.941  21.870  0.00  0.00    +0.000 A 
ATOM     33  C   UNL     1       8.669  15.590  22.046  0.00  0.00    +0.000 A 
ATOM     34  C   UNL     1       7.711  14.664  22.485  0.00  0.00    +0.000 A 
ATOM     35  H   UNL     1       5.109  12.300  23.820  0.00  0.00    +0.000 HD
ENDBRANCH  22  23
ENDBRANCH   3  22
TORSDOF 5
ENDMDL
MODEL 8
REMARK VINA RESULT:      -8.4      2.461      3.727
REMARK  Name = 
REMARK  5 active torsions:
REMARK  status: ('A' for Active; 'I' for Inactive)
REMARK    1  A    between atoms: C_2  and  C_24
REMARK    2  A    between atoms: N_3  and  C_4
REMARK    3  A    between atoms: C_6  and  C_7
REMARK    4  A    between atoms: C_7  and  N_8
REMARK    5  A    between atoms: C_28  and  C_30
REMARK                            x       y       z     vdW  Elec       q    Type
REMARK                         _______ _______ _______ _____ _____    ______ ____
ROOT
ATOM      1  C   UNL     1       0.904   9.341  20.567  0.00  0.00    +0.000 A 
ATOM      2  C   UNL     1       0.381  10.092  19.519  0.00  0.00    +0.000 A 
ATOM      3  C   UNL     1      -0.349  11.257  19.780  0.00  0.00    +0.000 A 
ATOM      4  C   UNL     1      -0.415  11.681  21.104  0.00  0.00    +0.000 A 
ATOM      5  N   UNL     1       0.128  11.009  22.145  0.00  0.00    +0.000 NA
ATOM      6  C   UNL     1       0.748   9.838  21.864  0.00  0.00    +0.000 A 
ATOM      7  F   UNL     1       1.317   9.199  22.896  0.00  0.00    +0.000 F 
ENDROOT
BRANCH   1  10
ATOM      8  O   UNL     1       2.419   8.867  18.256  0.00  0.00    +0.000 OA
ATOM      9  C   UNL     1       2.232   7.956  19.058  0.00  0.00    +0.000 C 
ATOM     10  N   UNL     1       1.530   8.113  20.242  0.00  0.00    +0.000 N 
ATOM     11  H   UNL     1       1.832   7.538  21.018  0.00  0.00    +0.000 HD
BRANCH   9  12
ATOM     12  C   UNL     1       2.934   6.609  18.925  0.00  0.00    +0.000 C 
ATOM     13  C   UNL     1       2.189   5.570  18.084  0.00  0.00    +0.000 C 
ATOM     14  C   UNL     1       3.297   4.751  17.439  0.00  0.00    +0.000 C 
ATOM     15  N   UNL     1       4.341   5.722  17.208  0.00  0.00    +0.000 N 
ATOM     16  C   UNL     1       5.337   5.799  16.249  0.00  0.00    +0.000 C 
ATOM     17  O   UNL     1       6.182   6.692  16.307  0.00  0.00    +0.000 OA
ATOM     18  C   UNL     1       4.278   6.775  18.215  0.00  0.00    +0.000 C 
BRANCH  16  19
ATOM     19  C   UNL     1       5.441   4.888  15.075  0.00  0.00    +0.000 C 
ATOM     20  C   UNL     1       6.620   4.564  14.208  0.00  0.00    +0.000 C 
ATOM     21  C   UNL     1       6.108   3.538  15.184  0.00  0.00    +0.000 C 
ENDBRANCH  16  19
ENDBRANCH   9  12
ENDBRANCH   1  10
BRANCH   3  22
ATOM     22  C   UNL     1      -1.105  11.955  18.676  0.00  0.00    +0.000 C 
BRANCH  22  23
ATOM     23  N   UNL     1      -2.529  11.635  18.630  0.00  0.00    +0.000 N 
ATOM     24  C   UNL     1      -2.911  10.586  17.802  0.00  0.00    +0.000 A 
ATOM     25  O   UNL     1      -2.128   9.921  17.125  0.00  0.00    +0.000 OA
ATOM     26  N   UNL     1      -4.241  10.293  17.749  0.00  0.00    +0.000 N 
ATOM     27  C   UNL     1      -5.247  10.918  18.426  0.00  0.00    +0.000 A 
ATOM     28  O   UNL     1      -6.424  10.621  18.259  0.00  0.00    +0.000 OA
ATOM     29  C   UNL     1      -4.831  11.957  19.380  0.00  0.00    +0.000 A 
ATOM     30  C   UNL     1      -5.797  12.547  20.208  0.00  0.00    +0.000 A 
ATOM     31  C   UNL     1      -5.416  13.507  21.136  0.00  0.00    +0.000 A 
ATOM     32  C   UNL     1      -4.081  13.888  21.220  0.00  0.00    +0.000 A 
ATOM     33  C   UNL     1      -3.123  13.302  20.383  0.00  0.00    +0.000 A 
ATOM     34  C   UNL     1      -3.478  12.310  19.457  0.00  0.00    +0.000 A 
ATOM     35  H   UNL     1      -4.514   9.547  17.125  0.00  0.00    +0.000 HD
ENDBRANCH  22  23
ENDBRANCH   3  22
TORSDOF 5
ENDMDL
MODEL 9
REMARK VINA RESULT:      -8.4      3.186      4.884
REMARK  Name = 
REMARK  5 active torsions:
REMARK  status: ('A' for Active; 'I' for Inactive)
REMARK    1  A    between atoms: C_2  and  C_24
REMARK    2  A    between atoms: N_3  and  C_4
REMARK    3  A    between atoms: C_6  and  C_7
REMARK    4  A    between atoms: C_7  and  N_8
REMARK    5  A    between atoms: C_28  and  C_30
REMARK                            x       y       z     vdW  Elec       q    Type
REMARK                         _______ _______ _______ _____ _____    ______ ____
ROOT
ATOM      1  C   UNL     1       0.137  10.198  18.949  0.00  0.00    +0.000 A 
ATOM      2  C   UNL     1       0.354  11.234  19.852  0.00  0.00    +0.000 A 
ATOM      3  C   UNL     1      -0.346  12.440  19.725  0.00  0.00    +0.000 A 
ATOM      4  C   UNL     1      -1.336  12.499  18.749  0.00  0.00    +0.000 A 
ATOM      5  N   UNL     1      -1.616  11.493  17.888  0.00  0.00    +0.000 NA
ATOM      6  C   UNL     1      -0.855  10.376  17.982  0.00  0.00    +0.000 A 
ATOM      7  F   UNL     1      -1.165   9.369  17.152  0.00  0.00    +0.000 F 
ENDROOT
BRANCH   1  10
ATOM      8  O   UNL     1       2.253   9.557  17.225  0.00  0.00    +0.000 OA
ATOM      9  C   UNL     1       1.963   8.793  18.141  0.00  0.00    +0.000 C 
ATOM     10  N   UNL     1       0.960   9.051  19.062  0.00  0.00    +0.000 N 
ATOM     11  H   UNL     1       1.109   8.688  19.994  0.00  0.00    +0.000 HD
BRANCH   9  12
ATOM     12  C   UNL     1       2.822   7.579  18.480  0.00  0.00    +0.000 C 
ATOM     13  C   UNL     1       2.144   6.225  18.256  0.00  0.00    +0.000 C 
ATOM     14  C   UNL     1       3.285   5.301  17.860  0.00  0.00    +0.000 C 
ATOM     15  N   UNL     1       4.167   6.160  17.105  0.00  0.00    +0.000 N 
ATOM     16  C   UNL     1       5.050   5.901  16.071  0.00  0.00    +0.000 C 
ATOM     17  O   UNL     1       5.773   6.798  15.635  0.00  0.00    +0.000 OA
ATOM     18  C   UNL     1       4.060   7.533  17.584  0.00  0.00    +0.000 C 
BRANCH  16  19
ATOM     19  C   UNL     1       5.164   4.588  15.376  0.00  0.00    +0.000 C 
ATOM     20  C   UNL     1       6.116   4.140  14.309  0.00  0.00    +0.000 C 
ATOM     21  C   UNL     1       6.268   3.614  15.711  0.00  0.00    +0.000 C 
ENDBRANCH  16  19
ENDBRANCH   9  12
ENDBRANCH   1  10
BRANCH   3  22
ATOM     22  C   UNL     1       0.036  13.642  20.553  0.00  0.00    +0.000 C 
BRANCH  22  23
ATOM     23  N   UNL     1      -0.506  14.905  20.062  0.00  0.00    +0.000 N 
ATOM     24  C   UNL     1      -1.752  15.286  20.545  0.00  0.00    +0.000 A 
ATOM     25  O   UNL     1      -2.407  14.631  21.355  0.00  0.00    +0.000 OA
ATOM     26  N   UNL     1      -2.264  16.460  20.077  0.00  0.00    +0.000 N 
ATOM     27  C   UNL     1      -1.683  17.312  19.185  0.00  0.00    +0.000 A 
ATOM     28  O   UNL     1      -2.256  18.314  18.777  0.00  0.00    +0.000 OA
ATOM     29  C   UNL     1      -0.321  16.961  18.755  0.00  0.00    +0.000 A 
ATOM     30  C   UNL     1       0.390  17.858  17.944  0.00  0.00    +0.000 A 
ATOM     31  C   UNL     1       1.688  17.557  17.555  0.00  0.00    +0.000 A 
ATOM     32  C   UNL     1       2.264  16.357  17.959  0.00  0.00    +0.000 A 
ATOM     33  C   UNL     1       1.545  15.460  18.761  0.00  0.00    +0.000 A 
ATOM     34  C   UNL     1       0.243  15.755  19.189  0.00  0.00    +0.000 A 
ATOM     35  H   UNL     1      -3.181  16.716  20.413  0.00  0.00    +0.000 HD
ENDBRANCH  22  23
ENDBRANCH   3  22
TORSDOF 5
ENDMDL
