MODEL 1
REMARK VINA RESULT:      -6.8      0.000      0.000
REMARK  Name = 
REMARK  4 active torsions:
REMARK  status: ('A' for Active; 'I' for Inactive)
REMARK    1  A    between atoms: C_1  and  C_2
REMARK    2  A    between atoms: C_2  and  N_3
REMARK    3  A    between atoms: C_2  and  C_10
REMARK    4  A    between atoms: C_4  and  C_6
REMARK                            x       y       z     vdW  Elec       q    Type
REMARK                         _______ _______ _______ _____ _____    ______ ____
ROOT
ATOM      1  N   UNL     1       4.356   6.029  18.244  0.00  0.00    +0.000 N 
ATOM      2  C   UNL     1       5.404   6.288  17.284  0.00  0.00    +0.000 C 
ATOM      3  N   UNL     1       5.155   6.689  16.081  0.00  0.00    +0.000 NA
ATOM      4  H   UNL     1       4.623   5.743  19.195  0.00  0.00    +0.000 HD
ATOM      5  H   UNL     1       4.226   6.857  15.682  0.00  0.00    +0.000 HD
ENDROOT
BRANCH   2   6
ATOM      6  C   UNL     1       6.873   6.123  17.651  0.00  0.00    +0.000 C 
ATOM      7 CL   UNL     1       7.868   7.592  17.441  0.00  0.00    +0.000 Cl
ATOM      8 CL   UNL     1       6.999   5.631  19.359  0.00  0.00    +0.000 Cl
ATOM      9 CL   UNL     1       7.595   4.842  16.641  0.00  0.00    +0.000 Cl
ENDBRANCH   2   6
BRANCH   1  11
ATOM     10  C   UNL     1       2.447   7.529  18.560  0.00  0.00    +0.000 C 
ATOM     11  C   UNL     1       2.921   6.177  18.014  0.00  0.00    +0.000 C 
BRANCH  11  12
ATOM     12  C   UNL     1       2.149   5.052  18.674  0.00  0.00    +0.000 A 
ATOM     13  C   UNL     1       1.900   5.085  20.059  0.00  0.00    +0.000 A 
ATOM     14  C   UNL     1       1.228   4.028  20.682  0.00  0.00    +0.000 A 
ATOM     15  C   UNL     1       0.804   2.928  19.933  0.00  0.00    +0.000 A 
ATOM     16  C   UNL     1       1.037   2.888  18.557  0.00  0.00    +0.000 A 
ATOM     17  C   UNL     1       1.699   3.945  17.927  0.00  0.00    +0.000 A 
ENDBRANCH  11  12
ENDBRANCH   1  11
TORSDOF 3
ENDMDL
MODEL 2
REMARK VINA RESULT:      -6.8      0.438      1.806
REMARK  Name = 
REMARK  4 active torsions:
REMARK  status: ('A' for Active; 'I' for Inactive)
REMARK    1  A    between atoms: C_1  and  C_2
REMARK    2  A    between atoms: C_2  and  N_3
REMARK    3  A    between atoms: C_2  and  C_10
REMARK    4  A    between atoms: C_4  and  C_6
REMARK                            x       y       z     vdW  Elec       q    Type
REMARK                         _______ _______ _______ _____ _____    ______ ____
ROOT
ATOM      1  N   UNL     1       4.380   6.220  18.344  0.00  0.00    +0.000 N 
ATOM      2  C   UNL     1       5.415   5.774  17.439  0.00  0.00    +0.000 C 
ATOM      3  N   UNL     1       5.154   5.360  16.242  0.00  0.00    +0.000 NA
ATOM      4  H   UNL     1       4.657   6.567  19.270  0.00  0.00    +0.000 HD
ATOM      5  H   UNL     1       4.225   5.296  15.816  0.00  0.00    +0.000 HD
ENDROOT
BRANCH   2   6
ATOM      6  C   UNL     1       6.883   5.793  17.843  0.00  0.00    +0.000 C 
ATOM      7 CL   UNL     1       7.180   5.613  19.596  0.00  0.00    +0.000 Cl
ATOM      8 CL   UNL     1       7.736   4.464  17.017  0.00  0.00    +0.000 Cl
ATOM      9 CL   UNL     1       7.617   7.337  17.335  0.00  0.00    +0.000 Cl
ENDBRANCH   2   6
BRANCH   1  11
ATOM     10  C   UNL     1       2.367   7.595  18.564  0.00  0.00    +0.000 C 
ATOM     11  C   UNL     1       2.948   6.271  18.057  0.00  0.00    +0.000 C 
BRANCH  11  12
ATOM     12  C   UNL     1       2.226   5.106  18.705  0.00  0.00    +0.000 A 
ATOM     13  C   UNL     1       1.796   4.018  17.922  0.00  0.00    +0.000 A 
ATOM     14  C   UNL     1       1.088   2.963  18.506  0.00  0.00    +0.000 A 
ATOM     15  C   UNL     1       0.798   2.984  19.872  0.00  0.00    +0.000 A 
ATOM     16  C   UNL     1       1.226   4.053  20.661  0.00  0.00    +0.000 A 
ATOM     17  C   UNL     1       1.941   5.106  20.085  0.00  0.00    +0.000 A 
ENDBRANCH  11  12
ENDBRANCH   1  11
TORSDOF 3
ENDMDL
MODEL 3
REMARK VINA RESULT:      -6.8      0.201      1.329
REMARK  Name = 
REMARK  4 active torsions:
REMARK  status: ('A' for Active; 'I' for Inactive)
REMARK    1  A    between atoms: C_1  and  C_2
REMARK    2  A    between atoms: C_2  and  N_3
REMARK    3  A    between atoms: C_2  and  C_10
REMARK    4  A    between atoms: C_4  and  C_6
REMARK                            x       y       z     vdW  Elec       q    Type
REMARK                         _______ _______ _______ _____ _____    ______ ____
ROOT
ATOM      1  N   UNL     1       4.327   5.961  18.424  0.00  0.00    +0.000 N 
ATOM      2  C   UNL     1       5.366   6.168  17.442  0.00  0.00    +0.000 C 
ATOM      3  N   UNL     1       5.109   6.552  16.235  0.00  0.00    +0.000 NA
ATOM      4  H   UNL     1       4.601   5.686  19.376  0.00  0.00    +0.000 HD
ATOM      5  H   UNL     1       4.180   6.740  15.848  0.00  0.00    +0.000 HD
ENDROOT
BRANCH   2   6
ATOM      6  C   UNL     1       6.836   5.966  17.789  0.00  0.00    +0.000 C 
ATOM      7 CL   UNL     1       7.637   4.631  16.912  0.00  0.00    +0.000 Cl
ATOM      8 CL   UNL     1       7.735   7.461  17.425  0.00  0.00    +0.000 Cl
ATOM      9 CL   UNL     1       6.991   5.626  19.533  0.00  0.00    +0.000 Cl
ENDBRANCH   2   6
BRANCH   1  11
ATOM     10  C   UNL     1       2.447   7.472  18.845  0.00  0.00    +0.000 C 
ATOM     11  C   UNL     1       2.893   6.148  18.214  0.00  0.00    +0.000 C 
BRANCH  11  12
ATOM     12  C   UNL     1       2.105   4.999  18.810  0.00  0.00    +0.000 A 
ATOM     13  C   UNL     1       1.858   4.955  20.195  0.00  0.00    +0.000 A 
ATOM     14  C   UNL     1       1.171   3.874  20.757  0.00  0.00    +0.000 A 
ATOM     15  C   UNL     1       0.730   2.826  19.946  0.00  0.00    +0.000 A 
ATOM     16  C   UNL     1       0.961   2.862  18.570  0.00  0.00    +0.000 A 
ATOM     17  C   UNL     1       1.639   3.943  18.001  0.00  0.00    +0.000 A 
ENDBRANCH  11  12
ENDBRANCH   1  11
TORSDOF 3
ENDMDL
MODEL 4
REMARK VINA RESULT:      -6.7      0.567      1.903
REMARK  Name = 
REMARK  4 active torsions:
REMARK  status: ('A' for Active; 'I' for Inactive)
REMARK    1  A    between atoms: C_1  and  C_2
REMARK    2  A    between atoms: C_2  and  N_3
REMARK    3  A    between atoms: C_2  and  C_10
REMARK    4  A    between atoms: C_4  and  C_6
REMARK                            x       y       z     vdW  Elec       q    Type
REMARK                         _______ _______ _______ _____ _____    ______ ____
ROOT
ATOM      1  N   UNL     1       4.311   6.183  18.298  0.00  0.00    +0.000 N 
ATOM      2  C   UNL     1       5.335   5.582  17.474  0.00  0.00    +0.000 C 
ATOM      3  N   UNL     1       5.061   4.973  16.368  0.00  0.00    +0.000 NA
ATOM      4  H   UNL     1       4.599   6.681  19.150  0.00  0.00    +0.000 HD
ATOM      5  H   UNL     1       4.128   4.844  15.965  0.00  0.00    +0.000 HD
ENDROOT
BRANCH   2   6
ATOM      6  C   UNL     1       6.807   5.658  17.859  0.00  0.00    +0.000 C 
ATOM      7 CL   UNL     1       7.837   4.391  17.132  0.00  0.00    +0.000 Cl
ATOM      8 CL   UNL     1       7.464   7.236  17.355  0.00  0.00    +0.000 Cl
ATOM      9 CL   UNL     1       6.964   5.521  19.630  0.00  0.00    +0.000 Cl
ENDBRANCH   2   6
BRANCH   1  11
ATOM     10  C   UNL     1       2.272   7.526  18.482  0.00  0.00    +0.000 C 
ATOM     11  C   UNL     1       2.877   6.196  18.018  0.00  0.00    +0.000 C 
BRANCH  11  12
ATOM     12  C   UNL     1       2.181   5.041  18.710  0.00  0.00    +0.000 A 
ATOM     13  C   UNL     1       1.693   3.957  17.956  0.00  0.00    +0.000 A 
ATOM     14  C   UNL     1       1.009   2.911  18.582  0.00  0.00    +0.000 A 
ATOM     15  C   UNL     1       0.801   2.936  19.963  0.00  0.00    +0.000 A 
ATOM     16  C   UNL     1       1.287   4.002  20.723  0.00  0.00    +0.000 A 
ATOM     17  C   UNL     1       1.979   5.046  20.104  0.00  0.00    +0.000 A 
ENDBRANCH  11  12
ENDBRANCH   1  11
TORSDOF 3
ENDMDL
MODEL 5
REMARK VINA RESULT:      -6.6      0.639      1.385
REMARK  Name = 
REMARK  4 active torsions:
REMARK  status: ('A' for Active; 'I' for Inactive)
REMARK    1  A    between atoms: C_1  and  C_2
REMARK    2  A    between atoms: C_2  and  N_3
REMARK    3  A    between atoms: C_2  and  C_10
REMARK    4  A    between atoms: C_4  and  C_6
REMARK                            x       y       z     vdW  Elec       q    Type
REMARK                         _______ _______ _______ _____ _____    ______ ____
ROOT
ATOM      1  N   UNL     1       4.314   6.456  18.159  0.00  0.00    +0.000 N 
ATOM      2  C   UNL     1       5.308   5.651  17.486  0.00  0.00    +0.000 C 
ATOM      3  N   UNL     1       5.004   4.839  16.527  0.00  0.00    +0.000 NA
ATOM      4  H   UNL     1       4.626   7.105  18.893  0.00  0.00    +0.000 HD
ATOM      5  H   UNL     1       4.065   4.673  16.152  0.00  0.00    +0.000 HD
ENDROOT
BRANCH   2   6
ATOM      6  C   UNL     1       6.782   5.736  17.859  0.00  0.00    +0.000 C 
ATOM      7 CL   UNL     1       7.125   5.568  19.605  0.00  0.00    +0.000 Cl
ATOM      8 CL   UNL     1       7.676   4.447  17.013  0.00  0.00    +0.000 Cl
ATOM      9 CL   UNL     1       7.434   7.311  17.337  0.00  0.00    +0.000 Cl
ENDBRANCH   2   6
BRANCH   1  11
ATOM     10  C   UNL     1       2.292   7.830  18.283  0.00  0.00    +0.000 C 
ATOM     11  C   UNL     1       2.882   6.477  17.871  0.00  0.00    +0.000 C 
BRANCH  11  12
ATOM     12  C   UNL     1       2.167   5.356  18.599  0.00  0.00    +0.000 A 
ATOM     13  C   UNL     1       2.046   5.390  20.001  0.00  0.00    +0.000 A 
ATOM     14  C   UNL     1       1.429   4.337  20.683  0.00  0.00    +0.000 A 
ATOM     15  C   UNL     1       0.932   3.239  19.976  0.00  0.00    +0.000 A 
ATOM     16  C   UNL     1       1.038   3.198  18.585  0.00  0.00    +0.000 A 
ATOM     17  C   UNL     1       1.646   4.251  17.897  0.00  0.00    +0.000 A 
ENDBRANCH  11  12
ENDBRANCH   1  11
TORSDOF 3
ENDMDL
MODEL 6
REMARK VINA RESULT:      -6.5      0.640      1.366
REMARK  Name = 
REMARK  4 active torsions:
REMARK  status: ('A' for Active; 'I' for Inactive)
REMARK    1  A    between atoms: C_1  and  C_2
REMARK    2  A    between atoms: C_2  and  N_3
REMARK    3  A    between atoms: C_2  and  C_10
REMARK    4  A    between atoms: C_4  and  C_6
REMARK                            x       y       z     vdW  Elec       q    Type
REMARK                         _______ _______ _______ _____ _____    ______ ____
ROOT
ATOM      1  N   UNL     1       4.381   5.904  18.665  0.00  0.00    +0.000 N 
ATOM      2  C   UNL     1       5.322   6.151  17.596  0.00  0.00    +0.000 C 
ATOM      3  N   UNL     1       4.943   6.492  16.408  0.00  0.00    +0.000 NA
ATOM      4  H   UNL     1       4.749   5.668  19.595  0.00  0.00    +0.000 HD
ATOM      5  H   UNL     1       3.975   6.616  16.096  0.00  0.00    +0.000 HD
ENDROOT
BRANCH   2   6
ATOM      6  C   UNL     1       6.824   6.046  17.822  0.00  0.00    +0.000 C 
ATOM      7 CL   UNL     1       7.743   7.535  17.461  0.00  0.00    +0.000 Cl
ATOM      8 CL   UNL     1       7.132   5.628  19.528  0.00  0.00    +0.000 Cl
ATOM      9 CL   UNL     1       7.488   4.748  16.795  0.00  0.00    +0.000 Cl
ENDBRANCH   2   6
BRANCH   1  11
ATOM     10  C   UNL     1       2.407   6.998  19.613  0.00  0.00    +0.000 C 
ATOM     11  C   UNL     1       2.926   6.000  18.572  0.00  0.00    +0.000 C 
BRANCH  11  12
ATOM     12  C   UNL     1       2.280   4.646  18.786  0.00  0.00    +0.000 A 
ATOM     13  C   UNL     1       2.483   3.611  17.853  0.00  0.00    +0.000 A 
ATOM     14  C   UNL     1       1.853   2.375  18.020  0.00  0.00    +0.000 A 
ATOM     15  C   UNL     1       1.012   2.158  19.114  0.00  0.00    +0.000 A 
ATOM     16  C   UNL     1       0.810   3.173  20.051  0.00  0.00    +0.000 A 
ATOM     17  C   UNL     1       1.443   4.408  19.894  0.00  0.00    +0.000 A 
ENDBRANCH  11  12
ENDBRANCH   1  11
TORSDOF 3
ENDMDL
MODEL 7
REMARK VINA RESULT:      -6.4      3.355      5.902
REMARK  Name = 
REMARK  4 active torsions:
REMARK  status: ('A' for Active; 'I' for Inactive)
REMARK    1  A    between atoms: C_1  and  C_2
REMARK    2  A    between atoms: C_2  and  N_3
REMARK    3  A    between atoms: C_2  and  C_10
REMARK    4  A    between atoms: C_4  and  C_6
REMARK                            x       y       z     vdW  Elec       q    Type
REMARK                         _______ _______ _______ _____ _____    ______ ____
ROOT
ATOM      1  N   UNL     1       3.826   4.335  18.230  0.00  0.00    +0.000 N 
ATOM      2  C   UNL     1       2.416   4.021  18.279  0.00  0.00    +0.000 C 
ATOM      3  N   UNL     1       1.605   4.337  17.323  0.00  0.00    +0.000 NA
ATOM      4  H   UNL     1       4.423   4.027  19.009  0.00  0.00    +0.000 HD
ATOM      5  H   UNL     1       1.854   4.829  16.460  0.00  0.00    +0.000 HD
ENDROOT
BRANCH   2   6
ATOM      6  C   UNL     1       1.811   3.274  19.461  0.00  0.00    +0.000 C 
ATOM      7 CL   UNL     1       0.935   4.303  20.630  0.00  0.00    +0.000 Cl
ATOM      8 CL   UNL     1       0.661   2.054  18.856  0.00  0.00    +0.000 Cl
ATOM      9 CL   UNL     1       3.106   2.435  20.355  0.00  0.00    +0.000 Cl
ENDBRANCH   2   6
BRANCH   1  11
ATOM     10  C   UNL     1       4.906   4.010  16.057  0.00  0.00    +0.000 C 
ATOM     11  C   UNL     1       4.519   5.021  17.142  0.00  0.00    +0.000 C 
BRANCH  11  12
ATOM     12  C   UNL     1       5.757   5.732  17.653  0.00  0.00    +0.000 A 
ATOM     13  C   UNL     1       6.191   6.922  17.039  0.00  0.00    +0.000 A 
ATOM     14  C   UNL     1       7.357   7.557  17.476  0.00  0.00    +0.000 A 
ATOM     15  C   UNL     1       8.104   7.011  18.522  0.00  0.00    +0.000 A 
ATOM     16  C   UNL     1       7.679   5.836  19.144  0.00  0.00    +0.000 A 
ATOM     17  C   UNL     1       6.510   5.201  18.719  0.00  0.00    +0.000 A 
ENDBRANCH  11  12
ENDBRANCH   1  11
TORSDOF 3
ENDMDL
MODEL 8
REMARK VINA RESULT:      -6.4      3.430      5.756
REMARK  Name = 
REMARK  4 active torsions:
REMARK  status: ('A' for Active; 'I' for Inactive)
REMARK    1  A    between atoms: C_1  and  C_2
REMARK    2  A    between atoms: C_2  and  N_3
REMARK    3  A    between atoms: C_2  and  C_10
REMARK    4  A    between atoms: C_4  and  C_6
REMARK                            x       y       z     vdW  Elec       q    Type
REMARK                         _______ _______ _______ _____ _____    ______ ____
ROOT
ATOM      1  N   UNL     1       4.248   3.888  17.332  0.00  0.00    +0.000 N 
ATOM      2  C   UNL     1       3.160   4.007  18.275  0.00  0.00    +0.000 C 
ATOM      3  N   UNL     1       2.569   5.133  18.510  0.00  0.00    +0.000 NA
ATOM      4  H   UNL     1       4.653   2.958  17.167  0.00  0.00    +0.000 HD
ATOM      5  H   UNL     1       2.797   6.034  18.079  0.00  0.00    +0.000 HD
ENDROOT
BRANCH   2   6
ATOM      6  C   UNL     1       2.630   2.795  19.030  0.00  0.00    +0.000 C 
ATOM      7 CL   UNL     1       2.750   2.910  20.810  0.00  0.00    +0.000 Cl
ATOM      8 CL   UNL     1       0.911   2.556  18.624  0.00  0.00    +0.000 Cl
ATOM      9 CL   UNL     1       3.535   1.343  18.528  0.00  0.00    +0.000 Cl
ENDBRANCH   2   6
BRANCH   1  11
ATOM     10  C   UNL     1       5.338   4.414  15.204  0.00  0.00    +0.000 C 
ATOM     11  C   UNL     1       4.819   4.971  16.534  0.00  0.00    +0.000 C 
BRANCH  11  12
ATOM     12  C   UNL     1       5.945   5.658  17.283  0.00  0.00    +0.000 A 
ATOM     13  C   UNL     1       6.357   6.950  16.907  0.00  0.00    +0.000 A 
ATOM     14  C   UNL     1       7.425   7.570  17.563  0.00  0.00    +0.000 A 
ATOM     15  C   UNL     1       8.094   6.908  18.594  0.00  0.00    +0.000 A 
ATOM     16  C   UNL     1       7.689   5.629  18.982  0.00  0.00    +0.000 A 
ATOM     17  C   UNL     1       6.618   5.008  18.337  0.00  0.00    +0.000 A 
ENDBRANCH  11  12
ENDBRANCH   1  11
TORSDOF 3
ENDMDL
MODEL 9
REMARK VINA RESULT:      -6.3      3.192      5.853
REMARK  Name = 
REMARK  4 active torsions:
REMARK  status: ('A' for Active; 'I' for Inactive)
REMARK    1  A    between atoms: C_1  and  C_2
REMARK    2  A    between atoms: C_2  and  N_3
REMARK    3  A    between atoms: C_2  and  C_10
REMARK    4  A    between atoms: C_4  and  C_6
REMARK                            x       y       z     vdW  Elec       q    Type
REMARK                         _______ _______ _______ _____ _____    ______ ____
ROOT
ATOM      1  N   UNL     1       4.134   4.128  17.726  0.00  0.00    +0.000 N 
ATOM      2  C   UNL     1       2.903   4.540  18.362  0.00  0.00    +0.000 C 
ATOM      3  N   UNL     1       2.353   5.685  18.123  0.00  0.00    +0.000 NA
ATOM      4  H   UNL     1       4.502   3.191  17.935  0.00  0.00    +0.000 HD
ATOM      5  H   UNL     1       2.711   6.406  17.490  0.00  0.00    +0.000 HD
ENDROOT
BRANCH   2   6
ATOM      6  C   UNL     1       2.171   3.627  19.337  0.00  0.00    +0.000 C 
ATOM      7 CL   UNL     1       0.997   2.511  18.581  0.00  0.00    +0.000 Cl
ATOM      8 CL   UNL     1       3.361   2.635  20.219  0.00  0.00    +0.000 Cl
ATOM      9 CL   UNL     1       1.277   4.619  20.519  0.00  0.00    +0.000 Cl
ENDBRANCH   2   6
BRANCH   1  11
ATOM     10  C   UNL     1       5.490   3.970  15.694  0.00  0.00    +0.000 C 
ATOM     11  C   UNL     1       4.907   4.905  16.760  0.00  0.00    +0.000 C 
BRANCH  11  12
ATOM     12  C   UNL     1       6.022   5.666  17.447  0.00  0.00    +0.000 A 
ATOM     13  C   UNL     1       6.447   6.908  16.939  0.00  0.00    +0.000 A 
ATOM     14  C   UNL     1       7.507   7.594  17.541  0.00  0.00    +0.000 A 
ATOM     15  C   UNL     1       8.155   7.048  18.650  0.00  0.00    +0.000 A 
ATOM     16  C   UNL     1       7.738   5.821  19.170  0.00  0.00    +0.000 A 
ATOM     17  C   UNL     1       6.674   5.135  18.578  0.00  0.00    +0.000 A 
ENDBRANCH  11  12
ENDBRANCH   1  11
TORSDOF 3
ENDMDL
