MODEL 1
REMARK VINA RESULT:      -6.9      0.000      0.000
REMARK  Name = 
REMARK  8 active torsions:
REMARK  status: ('A' for Active; 'I' for Inactive)
REMARK    1  A    between atoms: C_1  and  C_2
REMARK    2  A    between atoms: C_2  and  C_3
REMARK    3  A    between atoms: C_2  and  C_4
REMARK    4  A    between atoms: C_2  and  O_5
REMARK    5  A    between atoms: O_5  and  C_6
REMARK    6  A    between atoms: N_8  and  C_9
REMARK    7  A    between atoms: C_9  and  C_10
REMARK    8  A    between atoms: C_9  and  C_13
REMARK                            x       y       z     vdW  Elec       q    Type
REMARK                         _______ _______ _______ _____ _____    ______ ____
ROOT
ATOM      1  C   UNL     1       4.245   3.110  19.315  0.00  0.00    +0.000 C 
ENDROOT
BRANCH   1   2
ATOM      2  C   UNL     1       2.761   3.230  18.849  0.00  0.00    +0.000 C 
ATOM      3  C   UNL     1       1.751   2.739  19.910  0.00  0.00    +0.000 C 
ATOM      4  C   UNL     1       1.513   3.718  21.060  0.00  0.00    +0.000 C 
ATOM      5  C   UNL     1       1.223   5.138  20.588  0.00  0.00    +0.000 C 
ATOM      6  C   UNL     1       2.251   5.626  19.574  0.00  0.00    +0.000 C 
ATOM      7  C   UNL     1       2.372   4.654  18.405  0.00  0.00    +0.000 C 
ENDBRANCH   1   2
BRANCH   1   8
ATOM      8  C   UNL     1       4.642   1.669  19.722  0.00  0.00    +0.000 C 
ATOM      9  N   UNL     1       4.390   0.681  18.814  0.00  0.00    +0.000 N 
ATOM     10  O   UNL     1       5.197   1.408  20.787  0.00  0.00    +0.000 OA
ATOM     11  H   UNL     1       4.783  -0.232  18.999  0.00  0.00    +0.000 HD
ATOM     12  H   UNL     1       4.248   0.933  17.834  0.00  0.00    +0.000 HD
ENDBRANCH   1   8
BRANCH   1  15
ATOM     13  C   UNL     1       6.164   4.546  18.619  0.00  0.00    +0.000 C 
ATOM     14  O   UNL     1       6.235   5.123  19.699  0.00  0.00    +0.000 OA
ATOM     15  N   UNL     1       5.230   3.597  18.340  0.00  0.00    +0.000 N 
ATOM     16  H   UNL     1       5.167   3.295  17.373  0.00  0.00    +0.000 HD
BRANCH  13  17
ATOM     17  O   UNL     1       6.985   4.752  17.558  0.00  0.00    +0.000 OA
BRANCH  17  19
ATOM     18  C   UNL     1       7.019   5.568  15.235  0.00  0.00    +0.000 C 
ATOM     19  C   UNL     1       6.732   5.908  16.708  0.00  0.00    +0.000 C 
ATOM     20  C   UNL     1       7.519   7.134  17.192  0.00  0.00    +0.000 C 
ATOM     21  C   UNL     1       5.231   6.231  16.818  0.00  0.00    +0.000 C 
ENDBRANCH  17  19
ENDBRANCH  13  17
ENDBRANCH   1  15
TORSDOF 5
ENDMDL
MODEL 2
REMARK VINA RESULT:      -6.7      1.251      1.716
REMARK  Name = 
REMARK  8 active torsions:
REMARK  status: ('A' for Active; 'I' for Inactive)
REMARK    1  A    between atoms: C_1  and  C_2
REMARK    2  A    between atoms: C_2  and  C_3
REMARK    3  A    between atoms: C_2  and  C_4
REMARK    4  A    between atoms: C_2  and  O_5
REMARK    5  A    between atoms: O_5  and  C_6
REMARK    6  A    between atoms: N_8  and  C_9
REMARK    7  A    between atoms: C_9  and  C_10
REMARK    8  A    between atoms: C_9  and  C_13
REMARK                            x       y       z     vdW  Elec       q    Type
REMARK                         _______ _______ _______ _____ _____    ______ ____
ROOT
ATOM      1  C   UNL     1       4.299   2.684  19.445  0.00  0.00    +0.000 C 
ENDROOT
BRANCH   1   2
ATOM      2  C   UNL     1       3.322   2.208  18.326  0.00  0.00    +0.000 C 
ATOM      3  C   UNL     1       1.944   1.773  18.869  0.00  0.00    +0.000 C 
ATOM      4  C   UNL     1       1.016   2.929  19.245  0.00  0.00    +0.000 C 
ATOM      5  C   UNL     1       0.908   3.990  18.156  0.00  0.00    +0.000 C 
ATOM      6  C   UNL     1       2.276   4.441  17.658  0.00  0.00    +0.000 C 
ATOM      7  C   UNL     1       3.116   3.251  17.209  0.00  0.00    +0.000 C 
ENDBRANCH   1   2
BRANCH   1   8
ATOM      8  C   UNL     1       4.902   1.517  20.265  0.00  0.00    +0.000 C 
ATOM      9  N   UNL     1       5.021   0.314  19.629  0.00  0.00    +0.000 N 
ATOM     10  O   UNL     1       5.303   1.652  21.418  0.00  0.00    +0.000 OA
ATOM     11  H   UNL     1       5.552  -0.408  20.096  0.00  0.00    +0.000 HD
ATOM     12  H   UNL     1       5.005   0.290  18.607  0.00  0.00    +0.000 HD
ENDBRANCH   1   8
BRANCH   1  15
ATOM     13  C   UNL     1       5.507   4.858  19.234  0.00  0.00    +0.000 C 
ATOM     14  O   UNL     1       4.656   5.489  19.850  0.00  0.00    +0.000 OA
ATOM     15  N   UNL     1       5.405   3.528  18.969  0.00  0.00    +0.000 N 
ATOM     16  H   UNL     1       6.087   3.140  18.327  0.00  0.00    +0.000 HD
BRANCH  13  17
ATOM     17  O   UNL     1       6.660   5.369  18.732  0.00  0.00    +0.000 OA
BRANCH  17  19
ATOM     18  C   UNL     1       5.209   6.580  17.154  0.00  0.00    +0.000 C 
ATOM     19  C   UNL     1       6.614   6.017  17.427  0.00  0.00    +0.000 C 
ATOM     20  C   UNL     1       7.092   5.067  16.319  0.00  0.00    +0.000 C 
ATOM     21  C   UNL     1       7.583   7.212  17.480  0.00  0.00    +0.000 C 
ENDBRANCH  17  19
ENDBRANCH  13  17
ENDBRANCH   1  15
TORSDOF 5
ENDMDL
MODEL 3
REMARK VINA RESULT:      -6.7      1.099      1.637
REMARK  Name = 
REMARK  8 active torsions:
REMARK  status: ('A' for Active; 'I' for Inactive)
REMARK    1  A    between atoms: C_1  and  C_2
REMARK    2  A    between atoms: C_2  and  C_3
REMARK    3  A    between atoms: C_2  and  C_4
REMARK    4  A    between atoms: C_2  and  O_5
REMARK    5  A    between atoms: O_5  and  C_6
REMARK    6  A    between atoms: N_8  and  C_9
REMARK    7  A    between atoms: C_9  and  C_10
REMARK    8  A    between atoms: C_9  and  C_13
REMARK                            x       y       z     vdW  Elec       q    Type
REMARK                         _______ _______ _______ _____ _____    ______ ____
ROOT
ATOM      1  C   UNL     1       4.260   3.381  18.925  0.00  0.00    +0.000 C 
ENDROOT
BRANCH   1   2
ATOM      2  C   UNL     1       2.756   3.694  18.659  0.00  0.00    +0.000 C 
ATOM      3  C   UNL     1       1.851   3.403  19.876  0.00  0.00    +0.000 C 
ATOM      4  C   UNL     1       1.918   4.455  20.983  0.00  0.00    +0.000 C 
ATOM      5  C   UNL     1       1.761   5.881  20.466  0.00  0.00    +0.000 C 
ATOM      6  C   UNL     1       2.690   6.169  19.292  0.00  0.00    +0.000 C 
ATOM      7  C   UNL     1       2.507   5.139  18.182  0.00  0.00    +0.000 C 
ENDBRANCH   1   2
BRANCH   1   8
ATOM      8  C   UNL     1       4.494   1.964  19.505  0.00  0.00    +0.000 C 
ATOM      9  N   UNL     1       4.215   0.908  18.685  0.00  0.00    +0.000 N 
ATOM     10  O   UNL     1       4.949   1.773  20.631  0.00  0.00    +0.000 OA
ATOM     11  H   UNL     1       4.509  -0.009  18.992  0.00  0.00    +0.000 HD
ATOM     12  H   UNL     1       4.164   1.064  17.677  0.00  0.00    +0.000 HD
ENDBRANCH   1   8
BRANCH   1  15
ATOM     13  C   UNL     1       6.104   4.493  17.662  0.00  0.00    +0.000 C 
ATOM     14  O   UNL     1       6.305   5.335  18.529  0.00  0.00    +0.000 OA
ATOM     15  N   UNL     1       5.133   3.545  17.753  0.00  0.00    +0.000 N 
ATOM     16  H   UNL     1       4.955   2.996  16.919  0.00  0.00    +0.000 HD
BRANCH  13  17
ATOM     17  O   UNL     1       6.800   4.370  16.503  0.00  0.00    +0.000 OA
BRANCH  17  19
ATOM     18  C   UNL     1       5.348   6.138  15.592  0.00  0.00    +0.000 C 
ATOM     19  C   UNL     1       6.200   4.895  15.283  0.00  0.00    +0.000 C 
ATOM     20  C   UNL     1       5.407   3.809  14.542  0.00  0.00    +0.000 C 
ATOM     21  C   UNL     1       7.354   5.348  14.370  0.00  0.00    +0.000 C 
ENDBRANCH  17  19
ENDBRANCH  13  17
ENDBRANCH   1  15
TORSDOF 5
ENDMDL
MODEL 4
REMARK VINA RESULT:      -6.7      0.886      1.736
REMARK  Name = 
REMARK  8 active torsions:
REMARK  status: ('A' for Active; 'I' for Inactive)
REMARK    1  A    between atoms: C_1  and  C_2
REMARK    2  A    between atoms: C_2  and  C_3
REMARK    3  A    between atoms: C_2  and  C_4
REMARK    4  A    between atoms: C_2  and  O_5
REMARK    5  A    between atoms: O_5  and  C_6
REMARK    6  A    between atoms: N_8  and  C_9
REMARK    7  A    between atoms: C_9  and  C_10
REMARK    8  A    between atoms: C_9  and  C_13
REMARK                            x       y       z     vdW  Elec       q    Type
REMARK                         _______ _______ _______ _____ _____    ______ ____
ROOT
ATOM      1  C   UNL     1       4.236   2.706  19.954  0.00  0.00    +0.000 C 
ENDROOT
BRANCH   1   2
ATOM      2  C   UNL     1       2.717   2.467  19.692  0.00  0.00    +0.000 C 
ATOM      3  C   UNL     1       1.829   3.643  20.156  0.00  0.00    +0.000 C 
ATOM      4  C   UNL     1       1.842   4.854  19.223  0.00  0.00    +0.000 C 
ATOM      5  C   UNL     1       1.612   4.487  17.761  0.00  0.00    +0.000 C 
ATOM      6  C   UNL     1       2.523   3.355  17.304  0.00  0.00    +0.000 C 
ATOM      7  C   UNL     1       2.393   2.143  18.220  0.00  0.00    +0.000 C 
ENDBRANCH   1   2
BRANCH   1   8
ATOM      8  C   UNL     1       4.965   1.452  20.496  0.00  0.00    +0.000 C 
ATOM      9  N   UNL     1       5.030   0.369  19.667  0.00  0.00    +0.000 N 
ATOM     10  O   UNL     1       5.507   1.423  21.599  0.00  0.00    +0.000 OA
ATOM     11  H   UNL     1       5.633  -0.393  19.944  0.00  0.00    +0.000 HD
ATOM     12  H   UNL     1       4.884   0.503  18.664  0.00  0.00    +0.000 HD
ENDBRANCH   1   8
BRANCH   1  15
ATOM     13  C   UNL     1       5.819   4.274  18.829  0.00  0.00    +0.000 C 
ATOM     14  O   UNL     1       5.984   4.961  19.830  0.00  0.00    +0.000 OA
ATOM     15  N   UNL     1       4.983   3.202  18.789  0.00  0.00    +0.000 N 
ATOM     16  H   UNL     1       4.807   2.797  17.875  0.00  0.00    +0.000 HD
BRANCH  13  17
ATOM     17  O   UNL     1       6.427   4.464  17.630  0.00  0.00    +0.000 OA
BRANCH  17  19
ATOM     18  C   UNL     1       7.321   6.724  17.234  0.00  0.00    +0.000 C 
ATOM     19  C   UNL     1       6.194   5.722  16.933  0.00  0.00    +0.000 C 
ATOM     20  C   UNL     1       4.804   6.287  17.259  0.00  0.00    +0.000 C 
ATOM     21  C   UNL     1       6.243   5.420  15.424  0.00  0.00    +0.000 C 
ENDBRANCH  17  19
ENDBRANCH  13  17
ENDBRANCH   1  15
TORSDOF 5
ENDMDL
MODEL 5
REMARK VINA RESULT:      -6.6      0.976      1.173
REMARK  Name = 
REMARK  8 active torsions:
REMARK  status: ('A' for Active; 'I' for Inactive)
REMARK    1  A    between atoms: C_1  and  C_2
REMARK    2  A    between atoms: C_2  and  C_3
REMARK    3  A    between atoms: C_2  and  C_4
REMARK    4  A    between atoms: C_2  and  O_5
REMARK    5  A    between atoms: O_5  and  C_6
REMARK    6  A    between atoms: N_8  and  C_9
REMARK    7  A    between atoms: C_9  and  C_10
REMARK    8  A    between atoms: C_9  and  C_13
REMARK                            x       y       z     vdW  Elec       q    Type
REMARK                         _______ _______ _______ _____ _____    ______ ____
ROOT
ATOM      1  C   UNL     1       4.295   3.323  19.082  0.00  0.00    +0.000 C 
ENDROOT
BRANCH   1   2
ATOM      2  C   UNL     1       2.783   3.580  18.795  0.00  0.00    +0.000 C 
ATOM      3  C   UNL     1       1.882   3.327  20.024  0.00  0.00    +0.000 C 
ATOM      4  C   UNL     1       1.914   4.438  21.073  0.00  0.00    +0.000 C 
ATOM      5  C   UNL     1       1.720   5.829  20.481  0.00  0.00    +0.000 C 
ATOM      6  C   UNL     1       2.645   6.082  19.297  0.00  0.00    +0.000 C 
ATOM      7  C   UNL     1       2.496   4.990  18.242  0.00  0.00    +0.000 C 
ENDBRANCH   1   2
BRANCH   1   8
ATOM      8  C   UNL     1       4.583   1.892  19.600  0.00  0.00    +0.000 C 
ATOM      9  N   UNL     1       4.254   0.859  18.770  0.00  0.00    +0.000 N 
ATOM     10  O   UNL     1       5.120   1.672  20.683  0.00  0.00    +0.000 OA
ATOM     11  H   UNL     1       4.578  -0.064  19.026  0.00  0.00    +0.000 HD
ATOM     12  H   UNL     1       4.128   1.045  17.773  0.00  0.00    +0.000 HD
ENDBRANCH   1   8
BRANCH   1  15
ATOM     13  C   UNL     1       6.099   4.590  17.911  0.00  0.00    +0.000 C 
ATOM     14  O   UNL     1       6.229   5.408  18.815  0.00  0.00    +0.000 OA
ATOM     15  N   UNL     1       5.184   3.584  17.941  0.00  0.00    +0.000 N 
ATOM     16  H   UNL     1       5.059   3.060  17.082  0.00  0.00    +0.000 HD
BRANCH  13  17
ATOM     17  O   UNL     1       6.828   4.554  16.767  0.00  0.00    +0.000 OA
BRANCH  17  19
ATOM     18  C   UNL     1       7.242   5.213  14.431  0.00  0.00    +0.000 C 
ATOM     19  C   UNL     1       6.191   4.994  15.532  0.00  0.00    +0.000 C 
ATOM     20  C   UNL     1       5.322   6.238  15.770  0.00  0.00    +0.000 C 
ATOM     21  C   UNL     1       5.271   3.852  15.065  0.00  0.00    +0.000 C 
ENDBRANCH  17  19
ENDBRANCH  13  17
ENDBRANCH   1  15
TORSDOF 5
ENDMDL
MODEL 6
REMARK VINA RESULT:      -6.5      0.994      1.229
REMARK  Name = 
REMARK  8 active torsions:
REMARK  status: ('A' for Active; 'I' for Inactive)
REMARK    1  A    between atoms: C_1  and  C_2
REMARK    2  A    between atoms: C_2  and  C_3
REMARK    3  A    between atoms: C_2  and  C_4
REMARK    4  A    between atoms: C_2  and  O_5
REMARK    5  A    between atoms: O_5  and  C_6
REMARK    6  A    between atoms: N_8  and  C_9
REMARK    7  A    between atoms: C_9  and  C_10
REMARK    8  A    between atoms: C_9  and  C_13
REMARK                            x       y       z     vdW  Elec       q    Type
REMARK                         _______ _______ _______ _____ _____    ______ ____
ROOT
ATOM      1  C   UNL     1       4.290   3.385  19.032  0.00  0.00    +0.000 C 
ENDROOT
BRANCH   1   2
ATOM      2  C   UNL     1       2.792   3.689  18.723  0.00  0.00    +0.000 C 
ATOM      3  C   UNL     1       1.853   3.377  19.909  0.00  0.00    +0.000 C 
ATOM      4  C   UNL     1       1.877   4.418  21.028  0.00  0.00    +0.000 C 
ATOM      5  C   UNL     1       1.723   5.848  20.520  0.00  0.00    +0.000 C 
ATOM      6  C   UNL     1       2.685   6.156  19.379  0.00  0.00    +0.000 C 
ATOM      7  C   UNL     1       2.545   5.136  18.253  0.00  0.00    +0.000 C 
ENDBRANCH   1   2
BRANCH   1   8
ATOM      8  C   UNL     1       4.524   1.951  19.567  0.00  0.00    +0.000 C 
ATOM      9  N   UNL     1       4.235   0.921  18.717  0.00  0.00    +0.000 N 
ATOM     10  O   UNL     1       4.987   1.724  20.682  0.00  0.00    +0.000 OA
ATOM     11  H   UNL     1       4.529  -0.006  18.993  0.00  0.00    +0.000 HD
ATOM     12  H   UNL     1       4.177   1.109  17.714  0.00  0.00    +0.000 HD
ENDBRANCH   1   8
BRANCH   1  15
ATOM     13  C   UNL     1       6.149   4.581  17.872  0.00  0.00    +0.000 C 
ATOM     14  O   UNL     1       6.293   5.405  18.769  0.00  0.00    +0.000 OA
ATOM     15  N   UNL     1       5.202   3.606  17.900  0.00  0.00    +0.000 N 
ATOM     16  H   UNL     1       5.072   3.076  17.045  0.00  0.00    +0.000 HD
BRANCH  13  17
ATOM     17  O   UNL     1       6.891   4.510  16.738  0.00  0.00    +0.000 OA
BRANCH  17  19
ATOM     18  C   UNL     1       5.286   3.807  15.009  0.00  0.00    +0.000 C 
ATOM     19  C   UNL     1       6.264   4.896  15.480  0.00  0.00    +0.000 C 
ATOM     20  C   UNL     1       7.318   5.239  14.418  0.00  0.00    +0.000 C 
ATOM     21  C   UNL     1       5.437   6.164  15.758  0.00  0.00    +0.000 C 
ENDBRANCH  17  19
ENDBRANCH  13  17
ENDBRANCH   1  15
TORSDOF 5
ENDMDL
MODEL 7
REMARK VINA RESULT:      -6.5      0.871      1.493
REMARK  Name = 
REMARK  8 active torsions:
REMARK  status: ('A' for Active; 'I' for Inactive)
REMARK    1  A    between atoms: C_1  and  C_2
REMARK    2  A    between atoms: C_2  and  C_3
REMARK    3  A    between atoms: C_2  and  C_4
REMARK    4  A    between atoms: C_2  and  O_5
REMARK    5  A    between atoms: O_5  and  C_6
REMARK    6  A    between atoms: N_8  and  C_9
REMARK    7  A    between atoms: C_9  and  C_10
REMARK    8  A    between atoms: C_9  and  C_13
REMARK                            x       y       z     vdW  Elec       q    Type
REMARK                         _______ _______ _______ _____ _____    ______ ____
ROOT
ATOM      1  C   UNL     1       4.240   2.770  20.012  0.00  0.00    +0.000 C 
ENDROOT
BRANCH   1   2
ATOM      2  C   UNL     1       2.692   2.640  19.873  0.00  0.00    +0.000 C 
ATOM      3  C   UNL     1       1.940   3.939  20.236  0.00  0.00    +0.000 C 
ATOM      4  C   UNL     1       1.988   5.023  19.159  0.00  0.00    +0.000 C 
ATOM      5  C   UNL     1       1.627   4.506  17.771  0.00  0.00    +0.000 C 
ATOM      6  C   UNL     1       2.407   3.248  17.407  0.00  0.00    +0.000 C 
ATOM      7  C   UNL     1       2.241   2.172  18.475  0.00  0.00    +0.000 C 
ENDBRANCH   1   2
BRANCH   1   8
ATOM      8  C   UNL     1       4.921   1.463  20.489  0.00  0.00    +0.000 C 
ATOM      9  N   UNL     1       4.967   0.431  19.595  0.00  0.00    +0.000 N 
ATOM     10  O   UNL     1       5.441   1.349  21.596  0.00  0.00    +0.000 OA
ATOM     11  H   UNL     1       5.541  -0.366  19.835  0.00  0.00    +0.000 HD
ATOM     12  H   UNL     1       4.844   0.630  18.601  0.00  0.00    +0.000 HD
ENDBRANCH   1   8
BRANCH   1  15
ATOM     13  C   UNL     1       5.768   4.290  18.753  0.00  0.00    +0.000 C 
ATOM     14  O   UNL     1       5.993   5.006  19.722  0.00  0.00    +0.000 OA
ATOM     15  N   UNL     1       4.925   3.224  18.793  0.00  0.00    +0.000 N 
ATOM     16  H   UNL     1       4.696   2.793  17.903  0.00  0.00    +0.000 HD
BRANCH  13  17
ATOM     17  O   UNL     1       6.311   4.438  17.518  0.00  0.00    +0.000 OA
BRANCH  17  19
ATOM     18  C   UNL     1       6.004   5.492  15.314  0.00  0.00    +0.000 C 
ATOM     19  C   UNL     1       6.120   5.710  16.832  0.00  0.00    +0.000 C 
ATOM     20  C   UNL     1       7.226   6.709  17.199  0.00  0.00    +0.000 C 
ATOM     21  C   UNL     1       4.777   6.287  17.314  0.00  0.00    +0.000 C 
ENDBRANCH  17  19
ENDBRANCH  13  17
ENDBRANCH   1  15
TORSDOF 5
ENDMDL
MODEL 8
REMARK VINA RESULT:      -6.4      2.859      4.474
REMARK  Name = 
REMARK  8 active torsions:
REMARK  status: ('A' for Active; 'I' for Inactive)
REMARK    1  A    between atoms: C_1  and  C_2
REMARK    2  A    between atoms: C_2  and  C_3
REMARK    3  A    between atoms: C_2  and  C_4
REMARK    4  A    between atoms: C_2  and  O_5
REMARK    5  A    between atoms: O_5  and  C_6
REMARK    6  A    between atoms: N_8  and  C_9
REMARK    7  A    between atoms: C_9  and  C_10
REMARK    8  A    between atoms: C_9  and  C_13
REMARK                            x       y       z     vdW  Elec       q    Type
REMARK                         _______ _______ _______ _____ _____    ______ ____
ROOT
ATOM      1  C   UNL     1       5.750   4.530  17.011  0.00  0.00    +0.000 C 
ENDROOT
BRANCH   1   2
ATOM      2  C   UNL     1       4.978   3.889  18.205  0.00  0.00    +0.000 C 
ATOM      3  C   UNL     1       4.378   4.935  19.170  0.00  0.00    +0.000 C 
ATOM      4  C   UNL     1       3.108   5.615  18.660  0.00  0.00    +0.000 C 
ATOM      5  C   UNL     1       2.066   4.629  18.143  0.00  0.00    +0.000 C 
ATOM      6  C   UNL     1       2.661   3.630  17.159  0.00  0.00    +0.000 C 
ATOM      7  C   UNL     1       3.866   2.917  17.763  0.00  0.00    +0.000 C 
ENDBRANCH   1   2
BRANCH   1   8
ATOM      8  C   UNL     1       7.136   5.093  17.413  0.00  0.00    +0.000 C 
ATOM      9  N   UNL     1       7.504   6.283  16.853  0.00  0.00    +0.000 N 
ATOM     10  O   UNL     1       7.869   4.537  18.228  0.00  0.00    +0.000 OA
ATOM     11  H   UNL     1       8.329   6.735  17.223  0.00  0.00    +0.000 HD
ATOM     12  H   UNL     1       6.783   6.888  16.457  0.00  0.00    +0.000 HD
ENDBRANCH   1   8
BRANCH   1  15
ATOM     13  C   UNL     1       6.000   4.073  14.570  0.00  0.00    +0.000 C 
ATOM     14  O   UNL     1       5.853   5.247  14.248  0.00  0.00    +0.000 OA
ATOM     15  N   UNL     1       5.935   3.639  15.857  0.00  0.00    +0.000 N 
ATOM     16  H   UNL     1       5.921   2.634  15.997  0.00  0.00    +0.000 HD
BRANCH  13  17
ATOM     17  O   UNL     1       6.245   3.045  13.719  0.00  0.00    +0.000 OA
BRANCH  17  19
ATOM     18  C   UNL     1       7.152   4.411  11.882  0.00  0.00    +0.000 C 
ATOM     19  C   UNL     1       6.164   3.304  12.287  0.00  0.00    +0.000 C 
ATOM     20  C   UNL     1       4.723   3.619  11.861  0.00  0.00    +0.000 C 
ATOM     21  C   UNL     1       6.602   2.016  11.568  0.00  0.00    +0.000 C 
ENDBRANCH  17  19
ENDBRANCH  13  17
ENDBRANCH   1  15
TORSDOF 5
ENDMDL
MODEL 9
REMARK VINA RESULT:      -6.3      1.440      1.836
REMARK  Name = 
REMARK  8 active torsions:
REMARK  status: ('A' for Active; 'I' for Inactive)
REMARK    1  A    between atoms: C_1  and  C_2
REMARK    2  A    between atoms: C_2  and  C_3
REMARK    3  A    between atoms: C_2  and  C_4
REMARK    4  A    between atoms: C_2  and  O_5
REMARK    5  A    between atoms: O_5  and  C_6
REMARK    6  A    between atoms: N_8  and  C_9
REMARK    7  A    between atoms: C_9  and  C_10
REMARK    8  A    between atoms: C_9  and  C_13
REMARK                            x       y       z     vdW  Elec       q    Type
REMARK                         _______ _______ _______ _____ _____    ______ ____
ROOT
ATOM      1  C   UNL     1       3.217   3.351  18.627  0.00  0.00    +0.000 C 
ENDROOT
BRANCH   1   2
ATOM      2  C   UNL     1       1.931   4.224  18.501  0.00  0.00    +0.000 C 
ATOM      3  C   UNL     1       1.170   4.380  19.836  0.00  0.00    +0.000 C 
ATOM      4  C   UNL     1       1.800   5.373  20.812  0.00  0.00    +0.000 C 
ATOM      5  C   UNL     1       2.136   6.715  20.170  0.00  0.00    +0.000 C 
ATOM      6  C   UNL     1       2.924   6.549  18.877  0.00  0.00    +0.000 C 
ATOM      7  C   UNL     1       2.197   5.622  17.907  0.00  0.00    +0.000 C 
ENDBRANCH   1   2
BRANCH   1   8
ATOM      8  C   UNL     1       2.920   1.832  18.682  0.00  0.00    +0.000 C 
ATOM      9  N   UNL     1       1.606   1.463  18.743  0.00  0.00    +0.000 N 
ATOM     10  O   UNL     1       3.802   0.979  18.629  0.00  0.00    +0.000 OA
ATOM     11  H   UNL     1       1.392   0.483  18.621  0.00  0.00    +0.000 HD
ATOM     12  H   UNL     1       0.889   2.132  18.454  0.00  0.00    +0.000 HD
ENDBRANCH   1   8
BRANCH   1  15
ATOM     13  C   UNL     1       5.474   4.042  17.816  0.00  0.00    +0.000 C 
ATOM     14  O   UNL     1       5.873   4.356  18.932  0.00  0.00    +0.000 OA
ATOM     15  N   UNL     1       4.217   3.584  17.575  0.00  0.00    +0.000 N 
ATOM     16  H   UNL     1       3.945   3.497  16.601  0.00  0.00    +0.000 HD
BRANCH  13  17
ATOM     17  O   UNL     1       6.203   4.097  16.672  0.00  0.00    +0.000 OA
BRANCH  17  19
ATOM     18  C   UNL     1       5.105   6.175  15.940  0.00  0.00    +0.000 C 
ATOM     19  C   UNL     1       6.429   5.401  16.063  0.00  0.00    +0.000 C 
ATOM     20  C   UNL     1       7.157   5.266  14.718  0.00  0.00    +0.000 C 
ATOM     21  C   UNL     1       7.336   6.197  17.018  0.00  0.00    +0.000 C 
ENDBRANCH  17  19
ENDBRANCH  13  17
ENDBRANCH   1  15
TORSDOF 5
ENDMDL
