MODEL 1
REMARK VINA RESULT:      -7.9      0.000      0.000
REMARK  Name = 
REMARK  8 active torsions:
REMARK  status: ('A' for Active; 'I' for Inactive)
REMARK    1  A    between atoms: C_1  and  O_2
REMARK    2  A    between atoms: O_2  and  C_3
REMARK    3  A    between atoms: C_7  and  N_8
REMARK    4  A    between atoms: C_9  and  C_11
REMARK    5  A    between atoms: C_11  and  C_12
REMARK    6  A    between atoms: C_14  and  C_15
REMARK    7  A    between atoms: C_22  and  C_23
REMARK    8  A    between atoms: C_26  and  C_27
REMARK                            x       y       z     vdW  Elec       q    Type
REMARK                         _______ _______ _______ _____ _____    ______ ____
ROOT
ATOM      1  C   UNL     1       4.324   5.726  17.425  0.00  0.00    +0.000 A 
ATOM      2  N   UNL     1       4.950   5.876  16.192  0.00  0.00    +0.000 NA
ATOM      3  C   UNL     1       5.212   4.708  15.646  0.00  0.00    +0.000 A 
ATOM      4  S   UNL     1       4.600   3.369  16.524  0.00  0.00    +0.000 S 
ATOM      5  C   UNL     1       3.979   4.414  17.746  0.00  0.00    +0.000 A 
ENDROOT
BRANCH   5   6
ATOM      6  C   UNL     1       3.229   3.850  18.886  0.00  0.00    +0.000 A 
ATOM      7  C   UNL     1       3.868   3.114  19.897  0.00  0.00    +0.000 A 
ATOM      8  C   UNL     1       3.166   2.654  21.016  0.00  0.00    +0.000 A 
ATOM      9  C   UNL     1       1.796   2.889  21.137  0.00  0.00    +0.000 A 
ATOM     10  C   UNL     1       1.034   2.414  22.337  0.00  0.00    +0.000 C 
ATOM     11  C   UNL     1       1.139   3.583  20.122  0.00  0.00    +0.000 A 
ATOM     12  C   UNL     1       1.847   4.064  19.018  0.00  0.00    +0.000 A 
ENDBRANCH   5   6
BRANCH   3  13
ATOM     13  C   UNL     1       5.944   4.522  14.382  0.00  0.00    +0.000 A 
ATOM     14  C   UNL     1       7.133   5.216  14.099  0.00  0.00    +0.000 A 
ATOM     15  C   UNL     1       7.787   5.054  12.876  0.00  0.00    +0.000 A 
ATOM     16  C   UNL     1       7.265   4.192  11.916  0.00  0.00    +0.000 A 
ATOM     17  C   UNL     1       6.089   3.492  12.177  0.00  0.00    +0.000 A 
ATOM     18  C   UNL     1       5.430   3.660  13.400  0.00  0.00    +0.000 A 
ENDBRANCH   3  13
BRANCH   1  19
ATOM     19  C   UNL     1       4.062   6.942  18.255  0.00  0.00    +0.000 C 
BRANCH  19  21
ATOM     20  N   UNL     1       2.437   8.615  18.945  0.00  0.00    +0.000 N 
ATOM     21  C   UNL     1       2.648   7.475  18.185  0.00  0.00    +0.000 C 
ATOM     22  O   UNL     1       1.839   6.965  17.409  0.00  0.00    +0.000 OA
ATOM     23  H   UNL     1       3.231   8.960  19.472  0.00  0.00    +0.000 HD
BRANCH  20  28
ATOM     24  C   UNL     1      -0.379  10.348  20.581  0.00  0.00    +0.000 A 
ATOM     25  C   UNL     1      -1.160  10.711  19.483  0.00  0.00    +0.000 A 
ATOM     26  C   UNL     1      -0.763  10.370  18.192  0.00  0.00    +0.000 A 
ATOM     27  C   UNL     1       0.426   9.673  17.993  0.00  0.00    +0.000 A 
ATOM     28  C   UNL     1       1.225   9.313  19.079  0.00  0.00    +0.000 A 
ATOM     29  C   UNL     1       0.807   9.638  20.376  0.00  0.00    +0.000 A 
BRANCH  24  31
ATOM     30  C   UNL     1      -0.596   9.904  22.905  0.00  0.00    +0.000 C 
ATOM     31  O   UNL     1      -0.881  10.740  21.791  0.00  0.00    +0.000 OA
ENDBRANCH  24  31
ENDBRANCH  20  28
ENDBRANCH  19  21
ENDBRANCH   1  19
TORSDOF 6
ENDMDL
MODEL 2
REMARK VINA RESULT:      -7.8      4.139      7.985
REMARK  Name = 
REMARK  8 active torsions:
REMARK  status: ('A' for Active; 'I' for Inactive)
REMARK    1  A    between atoms: C_1  and  O_2
REMARK    2  A    between atoms: O_2  and  C_3
REMARK    3  A    between atoms: C_7  and  N_8
REMARK    4  A    between atoms: C_9  and  C_11
REMARK    5  A    between atoms: C_11  and  C_12
REMARK    6  A    between atoms: C_14  and  C_15
REMARK    7  A    between atoms: C_22  and  C_23
REMARK    8  A    between atoms: C_26  and  C_27
REMARK                            x       y       z     vdW  Elec       q    Type
REMARK                         _______ _______ _______ _____ _____    ______ ____
ROOT
ATOM      1  C   UNL     1       6.209   4.974  17.798  0.00  0.00    +0.000 A 
ATOM      2  N   UNL     1       5.519   4.696  18.973  0.00  0.00    +0.000 NA
ATOM      3  C   UNL     1       4.351   4.146  18.721  0.00  0.00    +0.000 A 
ATOM      4  S   UNL     1       4.077   3.810  17.063  0.00  0.00    +0.000 S 
ATOM      5  C   UNL     1       5.605   4.488  16.640  0.00  0.00    +0.000 A 
ENDROOT
BRANCH   5   6
ATOM      6  C   UNL     1       6.050   4.481  15.233  0.00  0.00    +0.000 A 
ATOM      7  C   UNL     1       7.222   5.139  14.827  0.00  0.00    +0.000 A 
ATOM      8  C   UNL     1       7.682   5.058  13.508  0.00  0.00    +0.000 A 
ATOM      9  C   UNL     1       6.962   4.345  12.550  0.00  0.00    +0.000 A 
ATOM     10  C   UNL     1       7.449   4.240  11.137  0.00  0.00    +0.000 C 
ATOM     11  C   UNL     1       5.774   3.720  12.928  0.00  0.00    +0.000 A 
ATOM     12  C   UNL     1       5.330   3.779  14.251  0.00  0.00    +0.000 A 
ENDBRANCH   5   6
BRANCH   3  13
ATOM     13  C   UNL     1       3.346   3.810  19.743  0.00  0.00    +0.000 A 
ATOM     14  C   UNL     1       3.512   2.727  20.624  0.00  0.00    +0.000 A 
ATOM     15  C   UNL     1       2.526   2.403  21.559  0.00  0.00    +0.000 A 
ATOM     16  C   UNL     1       1.359   3.158  21.631  0.00  0.00    +0.000 A 
ATOM     17  C   UNL     1       1.175   4.237  20.767  0.00  0.00    +0.000 A 
ATOM     18  C   UNL     1       2.160   4.557  19.827  0.00  0.00    +0.000 A 
ENDBRANCH   3  13
BRANCH   1  19
ATOM     19  C   UNL     1       7.504   5.718  17.880  0.00  0.00    +0.000 C 
BRANCH  19  21
ATOM     20  N   UNL     1       8.419   7.923  18.344  0.00  0.00    +0.000 N 
ATOM     21  C   UNL     1       7.392   7.219  17.735  0.00  0.00    +0.000 C 
ATOM     22  O   UNL     1       6.510   7.701  17.024  0.00  0.00    +0.000 OA
ATOM     23  H   UNL     1       9.118   7.372  18.829  0.00  0.00    +0.000 HD
BRANCH  20  28
ATOM     24  C   UNL     1       9.637  11.234  19.420  0.00  0.00    +0.000 A 
ATOM     25  C   UNL     1       8.948  12.082  18.551  0.00  0.00    +0.000 A 
ATOM     26  C   UNL     1       8.064  11.560  17.611  0.00  0.00    +0.000 A 
ATOM     27  C   UNL     1       7.873  10.183  17.528  0.00  0.00    +0.000 A 
ATOM     28  C   UNL     1       8.563   9.320  18.381  0.00  0.00    +0.000 A 
ATOM     29  C   UNL     1       9.433   9.854  19.340  0.00  0.00    +0.000 A 
BRANCH  24  31
ATOM     30  C   UNL     1      11.855  11.891  19.967  0.00  0.00    +0.000 C 
ATOM     31  O   UNL     1      10.472  11.872  20.296  0.00  0.00    +0.000 OA
ENDBRANCH  24  31
ENDBRANCH  20  28
ENDBRANCH  19  21
ENDBRANCH   1  19
TORSDOF 6
ENDMDL
MODEL 3
REMARK VINA RESULT:      -7.7      4.358     10.880
REMARK  Name = 
REMARK  8 active torsions:
REMARK  status: ('A' for Active; 'I' for Inactive)
REMARK    1  A    between atoms: C_1  and  O_2
REMARK    2  A    between atoms: O_2  and  C_3
REMARK    3  A    between atoms: C_7  and  N_8
REMARK    4  A    between atoms: C_9  and  C_11
REMARK    5  A    between atoms: C_11  and  C_12
REMARK    6  A    between atoms: C_14  and  C_15
REMARK    7  A    between atoms: C_22  and  C_23
REMARK    8  A    between atoms: C_26  and  C_27
REMARK                            x       y       z     vdW  Elec       q    Type
REMARK                         _______ _______ _______ _____ _____    ______ ____
ROOT
ATOM      1  C   UNL     1       0.055  11.314  21.718  0.00  0.00    +0.000 A 
ATOM      2  N   UNL     1      -1.219  11.175  22.258  0.00  0.00    +0.000 NA
ATOM      3  C   UNL     1      -1.911  12.288  22.137  0.00  0.00    +0.000 A 
ATOM      4  S   UNL     1      -1.114  13.517  21.248  0.00  0.00    +0.000 S 
ATOM      5  C   UNL     1       0.275  12.515  21.046  0.00  0.00    +0.000 A 
ENDROOT
BRANCH   5   6
ATOM      6  C   UNL     1       1.428  13.003  20.265  0.00  0.00    +0.000 A 
ATOM      7  C   UNL     1       1.613  12.644  18.921  0.00  0.00    +0.000 A 
ATOM      8  C   UNL     1       2.662  13.176  18.163  0.00  0.00    +0.000 A 
ATOM      9  C   UNL     1       3.576  14.057  18.741  0.00  0.00    +0.000 A 
ATOM     10  C   UNL     1       4.697  14.644  17.939  0.00  0.00    +0.000 C 
ATOM     11  C   UNL     1       3.430  14.392  20.087  0.00  0.00    +0.000 A 
ATOM     12  C   UNL     1       2.367  13.880  20.835  0.00  0.00    +0.000 A 
ENDBRANCH   5   6
BRANCH   3  13
ATOM     13  C   UNL     1      -3.263  12.494  22.681  0.00  0.00    +0.000 A 
ATOM     14  C   UNL     1      -3.541  12.372  24.054  0.00  0.00    +0.000 A 
ATOM     15  C   UNL     1      -4.840  12.533  24.541  0.00  0.00    +0.000 A 
ATOM     16  C   UNL     1      -5.883  12.820  23.665  0.00  0.00    +0.000 A 
ATOM     17  C   UNL     1      -5.628  12.947  22.301  0.00  0.00    +0.000 A 
ATOM     18  C   UNL     1      -4.328  12.780  21.812  0.00  0.00    +0.000 A 
ENDBRANCH   3  13
BRANCH   1  19
ATOM     19  C   UNL     1       1.032  10.192  21.876  0.00  0.00    +0.000 C 
BRANCH  19  21
ATOM     20  N   UNL     1       1.740   8.014  21.058  0.00  0.00    +0.000 N 
ATOM     21  C   UNL     1       0.998   9.151  20.779  0.00  0.00    +0.000 C 
ATOM     22  O   UNL     1       0.259   9.310  19.807  0.00  0.00    +0.000 OA
ATOM     23  H   UNL     1       2.234   8.003  21.942  0.00  0.00    +0.000 HD
BRANCH  20  28
ATOM     24  C   UNL     1       1.519   4.522  19.891  0.00  0.00    +0.000 A 
ATOM     25  C   UNL     1       2.138   4.604  18.642  0.00  0.00    +0.000 A 
ATOM     26  C   UNL     1       2.646   5.818  18.186  0.00  0.00    +0.000 A 
ATOM     27  C   UNL     1       2.526   6.960  18.974  0.00  0.00    +0.000 A 
ATOM     28  C   UNL     1       1.899   6.898  20.219  0.00  0.00    +0.000 A 
ATOM     29  C   UNL     1       1.412   5.669  20.682  0.00  0.00    +0.000 A 
BRANCH  24  31
ATOM     30  C   UNL     1       1.685   2.641  21.333  0.00  0.00    +0.000 C 
ATOM     31  O   UNL     1       1.067   3.274  20.221  0.00  0.00    +0.000 OA
ENDBRANCH  24  31
ENDBRANCH  20  28
ENDBRANCH  19  21
ENDBRANCH   1  19
TORSDOF 6
ENDMDL
MODEL 4
REMARK VINA RESULT:      -7.7      3.971      7.552
REMARK  Name = 
REMARK  8 active torsions:
REMARK  status: ('A' for Active; 'I' for Inactive)
REMARK    1  A    between atoms: C_1  and  O_2
REMARK    2  A    between atoms: O_2  and  C_3
REMARK    3  A    between atoms: C_7  and  N_8
REMARK    4  A    between atoms: C_9  and  C_11
REMARK    5  A    between atoms: C_11  and  C_12
REMARK    6  A    between atoms: C_14  and  C_15
REMARK    7  A    between atoms: C_22  and  C_23
REMARK    8  A    between atoms: C_26  and  C_27
REMARK                            x       y       z     vdW  Elec       q    Type
REMARK                         _______ _______ _______ _____ _____    ______ ____
ROOT
ATOM      1  C   UNL     1       1.154  10.369  19.582  0.00  0.00    +0.000 A 
ATOM      2  N   UNL     1       1.646   9.166  19.086  0.00  0.00    +0.000 NA
ATOM      3  C   UNL     1       1.649   8.234  20.015  0.00  0.00    +0.000 A 
ATOM      4  S   UNL     1       0.937   8.718  21.497  0.00  0.00    +0.000 S 
ATOM      5  C   UNL     1       0.641  10.299  20.876  0.00  0.00    +0.000 A 
ENDROOT
BRANCH   5   6
ATOM      6  C   UNL     1      -0.049  11.301  21.711  0.00  0.00    +0.000 A 
ATOM      7  C   UNL     1       0.265  12.667  21.634  0.00  0.00    +0.000 A 
ATOM      8  C   UNL     1      -0.450  13.620  22.367  0.00  0.00    +0.000 A 
ATOM      9  C   UNL     1      -1.478  13.228  23.224  0.00  0.00    +0.000 A 
ATOM     10  C   UNL     1      -2.261  14.239  24.006  0.00  0.00    +0.000 C 
ATOM     11  C   UNL     1      -1.775  11.871  23.343  0.00  0.00    +0.000 A 
ATOM     12  C   UNL     1      -1.078  10.923  22.591  0.00  0.00    +0.000 A 
ENDBRANCH   5   6
BRANCH   3  13
ATOM     13  C   UNL     1       2.187   6.876  19.834  0.00  0.00    +0.000 A 
ATOM     14  C   UNL     1       1.825   5.811  20.679  0.00  0.00    +0.000 A 
ATOM     15  C   UNL     1       2.380   4.541  20.512  0.00  0.00    +0.000 A 
ATOM     16  C   UNL     1       3.303   4.311  19.497  0.00  0.00    +0.000 A 
ATOM     17  C   UNL     1       3.675   5.352  18.648  0.00  0.00    +0.000 A 
ATOM     18  C   UNL     1       3.124   6.626  18.819  0.00  0.00    +0.000 A 
ENDBRANCH   3  13
BRANCH   1  19
ATOM     19  C   UNL     1       1.193  11.580  18.705  0.00  0.00    +0.000 C 
BRANCH  19  21
ATOM     20  N   UNL     1      -1.049  11.005  17.959  0.00  0.00    +0.000 N 
ATOM     21  C   UNL     1      -0.151  12.036  18.180  0.00  0.00    +0.000 C 
ATOM     22  O   UNL     1      -0.398  13.240  18.096  0.00  0.00    +0.000 OA
ATOM     23  H   UNL     1      -0.717  10.067  18.151  0.00  0.00    +0.000 HD
BRANCH  20  28
ATOM     24  C   UNL     1      -4.671  11.703  17.933  0.00  0.00    +0.000 A 
ATOM     25  C   UNL     1      -4.998  11.442  16.601  0.00  0.00    +0.000 A 
ATOM     26  C   UNL     1      -4.018  11.019  15.706  0.00  0.00    +0.000 A 
ATOM     27  C   UNL     1      -2.703  10.866  16.137  0.00  0.00    +0.000 A 
ATOM     28  C   UNL     1      -2.358  11.134  17.462  0.00  0.00    +0.000 A 
ATOM     29  C   UNL     1      -3.352  11.536  18.363  0.00  0.00    +0.000 A 
BRANCH  24  31
ATOM     30  C   UNL     1      -6.981  12.247  18.060  0.00  0.00    +0.000 C 
ATOM     31  O   UNL     1      -5.723  12.108  18.708  0.00  0.00    +0.000 OA
ENDBRANCH  24  31
ENDBRANCH  20  28
ENDBRANCH  19  21
ENDBRANCH   1  19
TORSDOF 6
ENDMDL
MODEL 5
REMARK VINA RESULT:      -7.7      3.265      6.816
REMARK  Name = 
REMARK  8 active torsions:
REMARK  status: ('A' for Active; 'I' for Inactive)
REMARK    1  A    between atoms: C_1  and  O_2
REMARK    2  A    between atoms: O_2  and  C_3
REMARK    3  A    between atoms: C_7  and  N_8
REMARK    4  A    between atoms: C_9  and  C_11
REMARK    5  A    between atoms: C_11  and  C_12
REMARK    6  A    between atoms: C_14  and  C_15
REMARK    7  A    between atoms: C_22  and  C_23
REMARK    8  A    between atoms: C_26  and  C_27
REMARK                            x       y       z     vdW  Elec       q    Type
REMARK                         _______ _______ _______ _____ _____    ______ ____
ROOT
ATOM      1  C   UNL     1       1.598   8.765  20.212  0.00  0.00    +0.000 A 
ATOM      2  N   UNL     1       2.156   7.513  19.978  0.00  0.00    +0.000 NA
ATOM      3  C   UNL     1       2.317   7.297  18.690  0.00  0.00    +0.000 A 
ATOM      4  S   UNL     1       1.929   8.640  17.699  0.00  0.00    +0.000 S 
ATOM      5  C   UNL     1       1.470   9.566  19.078  0.00  0.00    +0.000 A 
ENDROOT
BRANCH   5   6
ATOM      6  C   UNL     1       1.029  10.966  18.913  0.00  0.00    +0.000 A 
ATOM      7  C   UNL     1      -0.277  11.284  18.508  0.00  0.00    +0.000 A 
ATOM      8  C   UNL     1      -0.712  12.612  18.434  0.00  0.00    +0.000 A 
ATOM      9  C   UNL     1       0.160  13.659  18.731  0.00  0.00    +0.000 A 
ATOM     10  C   UNL     1      -0.296  15.085  18.668  0.00  0.00    +0.000 C 
ATOM     11  C   UNL     1       1.472  13.361  19.096  0.00  0.00    +0.000 A 
ATOM     12  C   UNL     1       1.897  12.034  19.194  0.00  0.00    +0.000 A 
ENDBRANCH   5   6
BRANCH   3  13
ATOM     13  C   UNL     1       2.805   6.036  18.108  0.00  0.00    +0.000 A 
ATOM     14  C   UNL     1       1.975   4.909  17.966  0.00  0.00    +0.000 A 
ATOM     15  C   UNL     1       2.473   3.711  17.450  0.00  0.00    +0.000 A 
ATOM     16  C   UNL     1       3.807   3.618  17.064  0.00  0.00    +0.000 A 
ATOM     17  C   UNL     1       4.646   4.724  17.195  0.00  0.00    +0.000 A 
ATOM     18  C   UNL     1       4.149   5.922  17.719  0.00  0.00    +0.000 A 
ENDBRANCH   3  13
BRANCH   1  19
ATOM     19  C   UNL     1       1.224   9.139  21.611  0.00  0.00    +0.000 C 
BRANCH  19  21
ATOM     20  N   UNL     1      -0.012  11.123  22.280  0.00  0.00    +0.000 N 
ATOM     21  C   UNL     1      -0.106   9.845  21.754  0.00  0.00    +0.000 C 
ATOM     22  O   UNL     1      -1.128   9.320  21.310  0.00  0.00    +0.000 OA
ATOM     23  H   UNL     1       0.917  11.443  22.526  0.00  0.00    +0.000 HD
BRANCH  20  28
ATOM     24  C   UNL     1      -3.219  12.342  23.634  0.00  0.00    +0.000 A 
ATOM     25  C   UNL     1      -3.262  13.642  23.126  0.00  0.00    +0.000 A 
ATOM     26  C   UNL     1      -2.232  14.117  22.318  0.00  0.00    +0.000 A 
ATOM     27  C   UNL     1      -1.146  13.296  22.024  0.00  0.00    +0.000 A 
ATOM     28  C   UNL     1      -1.082  11.999  22.534  0.00  0.00    +0.000 A 
ATOM     29  C   UNL     1      -2.133  11.519  23.326  0.00  0.00    +0.000 A 
BRANCH  24  31
ATOM     30  C   UNL     1      -5.509  12.691  24.165  0.00  0.00    +0.000 C 
ATOM     31  O   UNL     1      -4.292  11.999  24.410  0.00  0.00    +0.000 OA
ENDBRANCH  24  31
ENDBRANCH  20  28
ENDBRANCH  19  21
ENDBRANCH   1  19
TORSDOF 6
ENDMDL
MODEL 6
REMARK VINA RESULT:      -7.7      0.437      1.317
REMARK  Name = 
REMARK  8 active torsions:
REMARK  status: ('A' for Active; 'I' for Inactive)
REMARK    1  A    between atoms: C_1  and  O_2
REMARK    2  A    between atoms: O_2  and  C_3
REMARK    3  A    between atoms: C_7  and  N_8
REMARK    4  A    between atoms: C_9  and  C_11
REMARK    5  A    between atoms: C_11  and  C_12
REMARK    6  A    between atoms: C_14  and  C_15
REMARK    7  A    between atoms: C_22  and  C_23
REMARK    8  A    between atoms: C_26  and  C_27
REMARK                            x       y       z     vdW  Elec       q    Type
REMARK                         _______ _______ _______ _____ _____    ______ ____
ROOT
ATOM      1  C   UNL     1       4.286   5.874  17.350  0.00  0.00    +0.000 A 
ATOM      2  N   UNL     1       4.890   5.972  16.101  0.00  0.00    +0.000 NA
ATOM      3  C   UNL     1       5.139   4.782  15.598  0.00  0.00    +0.000 A 
ATOM      4  S   UNL     1       4.541   3.482  16.541  0.00  0.00    +0.000 S 
ATOM      5  C   UNL     1       3.944   4.577  17.731  0.00  0.00    +0.000 A 
ENDROOT
BRANCH   5   6
ATOM      6  C   UNL     1       3.215   4.063  18.907  0.00  0.00    +0.000 A 
ATOM      7  C   UNL     1       1.837   4.273  19.070  0.00  0.00    +0.000 A 
ATOM      8  C   UNL     1       1.137   3.712  20.143  0.00  0.00    +0.000 A 
ATOM      9  C   UNL     1       1.806   2.953  21.104  0.00  0.00    +0.000 A 
ATOM     10  C   UNL     1       1.068   2.335  22.252  0.00  0.00    +0.000 C 
ATOM     11  C   UNL     1       3.183   2.769  20.979  0.00  0.00    +0.000 A 
ATOM     12  C   UNL     1       3.875   3.308  19.892  0.00  0.00    +0.000 A 
ENDBRANCH   5   6
BRANCH   3  13
ATOM     13  C   UNL     1       5.847   4.542  14.330  0.00  0.00    +0.000 A 
ATOM     14  C   UNL     1       5.358   3.649  13.360  0.00  0.00    +0.000 A 
ATOM     15  C   UNL     1       6.069   3.407  12.182  0.00  0.00    +0.000 A 
ATOM     16  C   UNL     1       7.279   4.056  11.952  0.00  0.00    +0.000 A 
ATOM     17  C   UNL     1       7.780   4.946  12.900  0.00  0.00    +0.000 A 
ATOM     18  C   UNL     1       7.072   5.183  14.083  0.00  0.00    +0.000 A 
ENDBRANCH   3  13
BRANCH   1  19
ATOM     19  C   UNL     1       4.042   7.124  18.134  0.00  0.00    +0.000 C 
BRANCH  19  21
ATOM     20  N   UNL     1       2.412   8.776  18.862  0.00  0.00    +0.000 N 
ATOM     21  C   UNL     1       2.613   7.619  18.126  0.00  0.00    +0.000 C 
ATOM     22  O   UNL     1       1.778   7.065  17.410  0.00  0.00    +0.000 OA
ATOM     23  H   UNL     1       3.223   9.156  19.336  0.00  0.00    +0.000 HD
BRANCH  20  28
ATOM     24  C   UNL     1      -0.403  10.400  20.606  0.00  0.00    +0.000 A 
ATOM     25  C   UNL     1      -1.211  10.786  19.535  0.00  0.00    +0.000 A 
ATOM     26  C   UNL     1      -0.832  10.497  18.226  0.00  0.00    +0.000 A 
ATOM     27  C   UNL     1       0.366   9.829  17.982  0.00  0.00    +0.000 A 
ATOM     28  C   UNL     1       1.191   9.446  19.041  0.00  0.00    +0.000 A 
ATOM     29  C   UNL     1       0.791   9.719  20.356  0.00  0.00    +0.000 A 
BRANCH  24  31
ATOM     30  C   UNL     1      -0.681  12.083  22.261  0.00  0.00    +0.000 C 
ATOM     31  O   UNL     1      -0.890  10.742  21.838  0.00  0.00    +0.000 OA
ENDBRANCH  24  31
ENDBRANCH  20  28
ENDBRANCH  19  21
ENDBRANCH   1  19
TORSDOF 6
ENDMDL
MODEL 7
REMARK VINA RESULT:      -7.5      3.215      6.656
REMARK  Name = 
REMARK  8 active torsions:
REMARK  status: ('A' for Active; 'I' for Inactive)
REMARK    1  A    between atoms: C_1  and  O_2
REMARK    2  A    between atoms: O_2  and  C_3
REMARK    3  A    between atoms: C_7  and  N_8
REMARK    4  A    between atoms: C_9  and  C_11
REMARK    5  A    between atoms: C_11  and  C_12
REMARK    6  A    between atoms: C_14  and  C_15
REMARK    7  A    between atoms: C_22  and  C_23
REMARK    8  A    between atoms: C_26  and  C_27
REMARK                            x       y       z     vdW  Elec       q    Type
REMARK                         _______ _______ _______ _____ _____    ______ ____
ROOT
ATOM      1  C   UNL     1       1.211   8.405  19.999  0.00  0.00    +0.000 A 
ATOM      2  N   UNL     1       1.912   7.234  19.734  0.00  0.00    +0.000 NA
ATOM      3  C   UNL     1       2.477   7.276  18.546  0.00  0.00    +0.000 A 
ATOM      4  S   UNL     1       2.308   8.779  17.741  0.00  0.00    +0.000 S 
ATOM      5  C   UNL     1       1.374   9.409  19.045  0.00  0.00    +0.000 A 
ENDROOT
BRANCH   5   6
ATOM      6  C   UNL     1       0.895  10.805  19.002  0.00  0.00    +0.000 A 
ATOM      7  C   UNL     1       1.742  11.884  19.297  0.00  0.00    +0.000 A 
ATOM      8  C   UNL     1       1.305  13.207  19.173  0.00  0.00    +0.000 A 
ATOM      9  C   UNL     1      -0.005  13.486  18.784  0.00  0.00    +0.000 A 
ATOM     10  C   UNL     1      -0.484  14.898  18.635  0.00  0.00    +0.000 C 
ATOM     11  C   UNL     1      -0.872  12.424  18.527  0.00  0.00    +0.000 A 
ATOM     12  C   UNL     1      -0.426  11.104  18.626  0.00  0.00    +0.000 A 
ENDBRANCH   5   6
BRANCH   3  13
ATOM     13  C   UNL     1       3.219   6.161  17.934  0.00  0.00    +0.000 A 
ATOM     14  C   UNL     1       2.678   4.868  17.838  0.00  0.00    +0.000 A 
ATOM     15  C   UNL     1       3.417   3.817  17.290  0.00  0.00    +0.000 A 
ATOM     16  C   UNL     1       4.710   4.043  16.827  0.00  0.00    +0.000 A 
ATOM     17  C   UNL     1       5.266   5.318  16.912  0.00  0.00    +0.000 A 
ATOM     18  C   UNL     1       4.527   6.369  17.467  0.00  0.00    +0.000 A 
ENDBRANCH   3  13
BRANCH   1  19
ATOM     19  C   UNL     1       0.396   8.492  21.250  0.00  0.00    +0.000 C 
BRANCH  19  21
ATOM     20  N   UNL     1      -0.873  10.450  21.934  0.00  0.00    +0.000 N 
ATOM     21  C   UNL     1       0.376   9.852  21.912  0.00  0.00    +0.000 C 
ATOM     22  O   UNL     1       1.390  10.276  22.468  0.00  0.00    +0.000 OA
ATOM     23  H   UNL     1      -1.629   9.934  21.498  0.00  0.00    +0.000 HD
BRANCH  20  28
ATOM     24  C   UNL     1      -2.705  13.041  23.816  0.00  0.00    +0.000 A 
ATOM     25  C   UNL     1      -1.903  14.163  23.601  0.00  0.00    +0.000 A 
ATOM     26  C   UNL     1      -0.755  14.069  22.817  0.00  0.00    +0.000 A 
ATOM     27  C   UNL     1      -0.398  12.847  22.253  0.00  0.00    +0.000 A 
ATOM     28  C   UNL     1      -1.182  11.713  22.468  0.00  0.00    +0.000 A 
ATOM     29  C   UNL     1      -2.348  11.820  23.238  0.00  0.00    +0.000 A 
BRANCH  24  31
ATOM     30  C   UNL     1      -5.067  12.923  24.049  0.00  0.00    +0.000 C 
ATOM     31  O   UNL     1      -3.802  13.268  24.600  0.00  0.00    +0.000 OA
ENDBRANCH  24  31
ENDBRANCH  20  28
ENDBRANCH  19  21
ENDBRANCH   1  19
TORSDOF 6
ENDMDL
MODEL 8
REMARK VINA RESULT:      -7.5      4.065      9.193
REMARK  Name = 
REMARK  8 active torsions:
REMARK  status: ('A' for Active; 'I' for Inactive)
REMARK    1  A    between atoms: C_1  and  O_2
REMARK    2  A    between atoms: O_2  and  C_3
REMARK    3  A    between atoms: C_7  and  N_8
REMARK    4  A    between atoms: C_9  and  C_11
REMARK    5  A    between atoms: C_11  and  C_12
REMARK    6  A    between atoms: C_14  and  C_15
REMARK    7  A    between atoms: C_22  and  C_23
REMARK    8  A    between atoms: C_26  and  C_27
REMARK                            x       y       z     vdW  Elec       q    Type
REMARK                         _______ _______ _______ _____ _____    ______ ____
ROOT
ATOM      1  C   UNL     1      -0.001  11.326  19.956  0.00  0.00    +0.000 A 
ATOM      2  N   UNL     1       1.247  11.922  20.109  0.00  0.00    +0.000 NA
ATOM      3  C   UNL     1       1.335  13.029  19.403  0.00  0.00    +0.000 A 
ATOM      4  S   UNL     1      -0.122  13.483  18.624  0.00  0.00    +0.000 S 
ATOM      5  C   UNL     1      -0.921  12.081  19.231  0.00  0.00    +0.000 A 
ENDROOT
BRANCH   5   6
ATOM      6  C   UNL     1      -2.350  11.861  18.934  0.00  0.00    +0.000 A 
ATOM      7  C   UNL     1      -2.765  11.024  17.885  0.00  0.00    +0.000 A 
ATOM      8  C   UNL     1      -4.119  10.755  17.662  0.00  0.00    +0.000 A 
ATOM      9  C   UNL     1      -5.099  11.343  18.462  0.00  0.00    +0.000 A 
ATOM     10  C   UNL     1      -6.553  11.054  18.243  0.00  0.00    +0.000 C 
ATOM     11  C   UNL     1      -4.705  12.209  19.482  0.00  0.00    +0.000 A 
ATOM     12  C   UNL     1      -3.351  12.456  19.720  0.00  0.00    +0.000 A 
ENDBRANCH   5   6
BRANCH   3  13
ATOM     13  C   UNL     1       2.552  13.849  19.284  0.00  0.00    +0.000 A 
ATOM     14  C   UNL     1       3.043  14.279  18.038  0.00  0.00    +0.000 A 
ATOM     15  C   UNL     1       4.222  15.022  17.948  0.00  0.00    +0.000 A 
ATOM     16  C   UNL     1       4.929  15.350  19.101  0.00  0.00    +0.000 A 
ATOM     17  C   UNL     1       4.459  14.935  20.345  0.00  0.00    +0.000 A 
ATOM     18  C   UNL     1       3.281  14.186  20.436  0.00  0.00    +0.000 A 
ENDBRANCH   3  13
BRANCH   1  19
ATOM     19  C   UNL     1      -0.244   9.990  20.582  0.00  0.00    +0.000 C 
BRANCH  19  21
ATOM     20  N   UNL     1       1.239   8.653  19.194  0.00  0.00    +0.000 N 
ATOM     21  C   UNL     1       0.911   9.017  20.490  0.00  0.00    +0.000 C 
ATOM     22  O   UNL     1       1.537   8.712  21.506  0.00  0.00    +0.000 OA
ATOM     23  H   UNL     1       0.674   9.053  18.455  0.00  0.00    +0.000 HD
BRANCH  20  28
ATOM     24  C   UNL     1       3.366   5.639  19.225  0.00  0.00    +0.000 A 
ATOM     25  C   UNL     1       4.224   5.890  18.152  0.00  0.00    +0.000 A 
ATOM     26  C   UNL     1       4.109   7.069  17.420  0.00  0.00    +0.000 A 
ATOM     27  C   UNL     1       3.127   7.999  17.751  0.00  0.00    +0.000 A 
ATOM     28  C   UNL     1       2.254   7.759  18.813  0.00  0.00    +0.000 A 
ATOM     29  C   UNL     1       2.390   6.582  19.560  0.00  0.00    +0.000 A 
BRANCH  24  31
ATOM     30  C   UNL     1       4.643   3.640  19.365  0.00  0.00    +0.000 C 
ATOM     31  O   UNL     1       3.585   4.449  19.862  0.00  0.00    +0.000 OA
ENDBRANCH  24  31
ENDBRANCH  20  28
ENDBRANCH  19  21
ENDBRANCH   1  19
TORSDOF 6
ENDMDL
MODEL 9
REMARK VINA RESULT:      -7.5      4.964      9.203
REMARK  Name = 
REMARK  8 active torsions:
REMARK  status: ('A' for Active; 'I' for Inactive)
REMARK    1  A    between atoms: C_1  and  O_2
REMARK    2  A    between atoms: O_2  and  C_3
REMARK    3  A    between atoms: C_7  and  N_8
REMARK    4  A    between atoms: C_9  and  C_11
REMARK    5  A    between atoms: C_11  and  C_12
REMARK    6  A    between atoms: C_14  and  C_15
REMARK    7  A    between atoms: C_22  and  C_23
REMARK    8  A    between atoms: C_26  and  C_27
REMARK                            x       y       z     vdW  Elec       q    Type
REMARK                         _______ _______ _______ _____ _____    ______ ____
ROOT
ATOM      1  C   UNL     1      -0.645  11.309  18.222  0.00  0.00    +0.000 A 
ATOM      2  N   UNL     1      -0.879  12.679  18.273  0.00  0.00    +0.000 NA
ATOM      3  C   UNL     1      -0.079  13.266  19.138  0.00  0.00    +0.000 A 
ATOM      4  S   UNL     1       1.086  12.223  19.837  0.00  0.00    +0.000 S 
ATOM      5  C   UNL     1       0.455  10.878  18.962  0.00  0.00    +0.000 A 
ENDROOT
BRANCH   5   6
ATOM      6  C   UNL     1       1.090   9.552  19.091  0.00  0.00    +0.000 A 
ATOM      7  C   UNL     1       1.723   8.929  18.004  0.00  0.00    +0.000 A 
ATOM      8  C   UNL     1       2.394   7.710  18.154  0.00  0.00    +0.000 A 
ATOM      9  C   UNL     1       2.419   7.064  19.390  0.00  0.00    +0.000 A 
ATOM     10  C   UNL     1       3.144   5.765  19.568  0.00  0.00    +0.000 C 
ATOM     11  C   UNL     1       1.759   7.650  20.470  0.00  0.00    +0.000 A 
ATOM     12  C   UNL     1       1.112   8.879  20.324  0.00  0.00    +0.000 A 
ENDBRANCH   5   6
BRANCH   3  13
ATOM     13  C   UNL     1      -0.132  14.695  19.487  0.00  0.00    +0.000 A 
ATOM     14  C   UNL     1      -1.266  15.278  20.078  0.00  0.00    +0.000 A 
ATOM     15  C   UNL     1      -1.307  16.645  20.362  0.00  0.00    +0.000 A 
ATOM     16  C   UNL     1      -0.214  17.452  20.063  0.00  0.00    +0.000 A 
ATOM     17  C   UNL     1       0.922  16.894  19.479  0.00  0.00    +0.000 A 
ATOM     18  C   UNL     1       0.960  15.526  19.188  0.00  0.00    +0.000 A 
ENDBRANCH   3  13
BRANCH   1  19
ATOM     19  C   UNL     1      -1.544  10.454  17.387  0.00  0.00    +0.000 C 
BRANCH  19  21
ATOM     20  N   UNL     1      -3.550  11.738  17.881  0.00  0.00    +0.000 N 
ATOM     21  C   UNL     1      -3.002  10.468  17.792  0.00  0.00    +0.000 C 
ATOM     22  O   UNL     1      -3.618   9.407  17.898  0.00  0.00    +0.000 OA
ATOM     23  H   UNL     1      -2.927  12.513  17.686  0.00  0.00    +0.000 HD
BRANCH  20  28
ATOM     24  C   UNL     1      -6.407  12.638  20.033  0.00  0.00    +0.000 A 
ATOM     25  C   UNL     1      -7.449  12.696  19.106  0.00  0.00    +0.000 A 
ATOM     26  C   UNL     1      -7.211  12.423  17.761  0.00  0.00    +0.000 A 
ATOM     27  C   UNL     1      -5.925  12.101  17.335  0.00  0.00    +0.000 A 
ATOM     28  C   UNL     1      -4.870  12.051  18.247  0.00  0.00    +0.000 A 
ATOM     29  C   UNL     1      -5.120  12.303  19.602  0.00  0.00    +0.000 A 
BRANCH  24  31
ATOM     30  C   UNL     1      -7.679  12.026  21.945  0.00  0.00    +0.000 C 
ATOM     31  O   UNL     1      -6.773  12.925  21.320  0.00  0.00    +0.000 OA
ENDBRANCH  24  31
ENDBRANCH  20  28
ENDBRANCH  19  21
ENDBRANCH   1  19
TORSDOF 6
ENDMDL
