MODEL 1
REMARK VINA RESULT:      -7.4      0.000      0.000
REMARK  Name = 
REMARK  7 active torsions:
REMARK  status: ('A' for Active; 'I' for Inactive)
REMARK    1  A    between atoms: C_1  and  O_2
REMARK    2  A    between atoms: O_2  and  C_3
REMARK    3  A    between atoms: C_6  and  C_7
REMARK    4  A    between atoms: C_9  and  N_10
REMARK    5  A    between atoms: N_10  and  C_11
REMARK    6  A    between atoms: C_11  and  C_12
REMARK    7  A    between atoms: C_15  and  N_16
REMARK                            x       y       z     vdW  Elec       q    Type
REMARK                         _______ _______ _______ _____ _____    ______ ____
ROOT
ATOM      1  N   UNL     1       1.998   3.366  17.941  0.00  0.00    +0.000 N 
ATOM      2  H   UNL     1       1.126   2.867  17.810  0.00  0.00    +0.000 HD
ENDROOT
BRANCH   1   9
ATOM      3  C   UNL     1       1.587   4.645  20.050  0.00  0.00    +0.000 A 
ATOM      4  C   UNL     1       1.700   5.882  20.703  0.00  0.00    +0.000 A 
ATOM      5  C   UNL     1       2.082   7.032  20.007  0.00  0.00    +0.000 A 
ATOM      6  C   UNL     1       2.334   6.975  18.639  0.00  0.00    +0.000 A 
ATOM      7  C   UNL     1       2.678   8.212  17.865  0.00  0.00    +0.000 C 
ATOM      8  C   UNL     1       2.238   5.735  17.991  0.00  0.00    +0.000 A 
ATOM      9  C   UNL     1       1.883   4.550  18.671  0.00  0.00    +0.000 A 
BRANCH   3  11
ATOM     10  C   UNL     1       2.120   2.866  21.569  0.00  0.00    +0.000 C 
ATOM     11  O   UNL     1       1.199   3.496  20.692  0.00  0.00    +0.000 OA
ENDBRANCH   3  11
ENDBRANCH   1   9
BRANCH   1  12
ATOM     12  C   UNL     1       3.184   2.531  17.913  0.00  0.00    +0.000 C 
BRANCH  12  13
ATOM     13  C   UNL     1       4.389   3.447  17.852  0.00  0.00    +0.000 A 
ATOM     14  C   UNL     1       4.978   3.903  19.040  0.00  0.00    +0.000 A 
ATOM     15  C   UNL     1       5.987   4.867  19.010  0.00  0.00    +0.000 A 
ATOM     16  C   UNL     1       6.399   5.387  17.775  0.00  0.00    +0.000 A 
ATOM     17  C   UNL     1       5.853   4.907  16.576  0.00  0.00    +0.000 A 
ATOM     18  C   UNL     1       4.848   3.935  16.619  0.00  0.00    +0.000 A 
BRANCH  16  19
ATOM     19  N   UNL     1       7.370   6.483  17.739  0.00  0.00    +0.000 N 
ATOM     20  O   UNL     1       7.434   7.166  16.706  0.00  0.00    +0.000 OA
ATOM     21  O   UNL     1       8.086   6.653  18.736  0.00  0.00    +0.000 OA
ENDBRANCH  16  19
ENDBRANCH  12  13
ENDBRANCH   1  12
TORSDOF 5
ENDMDL
MODEL 2
REMARK VINA RESULT:      -7.1      0.781      1.081
REMARK  Name = 
REMARK  7 active torsions:
REMARK  status: ('A' for Active; 'I' for Inactive)
REMARK    1  A    between atoms: C_1  and  O_2
REMARK    2  A    between atoms: O_2  and  C_3
REMARK    3  A    between atoms: C_6  and  C_7
REMARK    4  A    between atoms: C_9  and  N_10
REMARK    5  A    between atoms: N_10  and  C_11
REMARK    6  A    between atoms: C_11  and  C_12
REMARK    7  A    between atoms: C_15  and  N_16
REMARK                            x       y       z     vdW  Elec       q    Type
REMARK                         _______ _______ _______ _____ _____    ______ ____
ROOT
ATOM      1  N   UNL     1       2.681   3.761  17.376  0.00  0.00    +0.000 N 
ATOM      2  H   UNL     1       1.903   3.252  16.972  0.00  0.00    +0.000 HD
ENDROOT
BRANCH   1   9
ATOM      3  C   UNL     1       2.065   4.478  19.690  0.00  0.00    +0.000 A 
ATOM      4  C   UNL     1       1.905   5.559  20.571  0.00  0.00    +0.000 A 
ATOM      5  C   UNL     1       1.967   6.878  20.112  0.00  0.00    +0.000 A 
ATOM      6  C   UNL     1       2.166   7.143  18.761  0.00  0.00    +0.000 A 
ATOM      7  C   UNL     1       2.167   8.550  18.242  0.00  0.00    +0.000 C 
ATOM      8  C   UNL     1       2.344   6.063  17.884  0.00  0.00    +0.000 A 
ATOM      9  C   UNL     1       2.316   4.720  18.320  0.00  0.00    +0.000 A 
BRANCH   3  11
ATOM     10  C   UNL     1       1.260   2.862  21.271  0.00  0.00    +0.000 C 
ATOM     11  O   UNL     1       1.995   3.169  20.096  0.00  0.00    +0.000 OA
ENDBRANCH   3  11
ENDBRANCH   1   9
BRANCH   1  12
ATOM     12  C   UNL     1       3.939   3.038  17.385  0.00  0.00    +0.000 C 
BRANCH  12  13
ATOM     13  C   UNL     1       5.055   4.059  17.470  0.00  0.00    +0.000 A 
ATOM     14  C   UNL     1       5.649   4.336  18.710  0.00  0.00    +0.000 A 
ATOM     15  C   UNL     1       6.567   5.380  18.840  0.00  0.00    +0.000 A 
ATOM     16  C   UNL     1       6.880   6.160  17.717  0.00  0.00    +0.000 A 
ATOM     17  C   UNL     1       6.329   5.865  16.463  0.00  0.00    +0.000 A 
ATOM     18  C   UNL     1       5.417   4.812  16.344  0.00  0.00    +0.000 A 
BRANCH  16  19
ATOM     19  N   UNL     1       7.748   7.331  17.869  0.00  0.00    +0.000 N 
ATOM     20  O   UNL     1       8.533   7.348  18.827  0.00  0.00    +0.000 OA
ATOM     21  O   UNL     1       7.634   8.245  17.039  0.00  0.00    +0.000 OA
ENDBRANCH  16  19
ENDBRANCH  12  13
ENDBRANCH   1  12
TORSDOF 5
ENDMDL
MODEL 3
REMARK VINA RESULT:      -7.0      2.731      5.494
REMARK  Name = 
REMARK  7 active torsions:
REMARK  status: ('A' for Active; 'I' for Inactive)
REMARK    1  A    between atoms: C_1  and  O_2
REMARK    2  A    between atoms: O_2  and  C_3
REMARK    3  A    between atoms: C_6  and  C_7
REMARK    4  A    between atoms: C_9  and  N_10
REMARK    5  A    between atoms: N_10  and  C_11
REMARK    6  A    between atoms: C_11  and  C_12
REMARK    7  A    between atoms: C_15  and  N_16
REMARK                            x       y       z     vdW  Elec       q    Type
REMARK                         _______ _______ _______ _____ _____    ______ ____
ROOT
ATOM      1  N   UNL     1       4.057   3.641  18.283  0.00  0.00    +0.000 N 
ATOM      2  H   UNL     1       4.226   2.721  18.674  0.00  0.00    +0.000 HD
ENDROOT
BRANCH   1   9
ATOM      3  C   UNL     1       6.327   4.602  17.863  0.00  0.00    +0.000 A 
ATOM      4  C   UNL     1       7.329   4.848  16.913  0.00  0.00    +0.000 A 
ATOM      5  C   UNL     1       7.101   4.633  15.551  0.00  0.00    +0.000 A 
ATOM      6  C   UNL     1       5.858   4.190  15.109  0.00  0.00    +0.000 A 
ATOM      7  C   UNL     1       5.575   4.019  13.647  0.00  0.00    +0.000 C 
ATOM      8  C   UNL     1       4.862   3.927  16.060  0.00  0.00    +0.000 A 
ATOM      9  C   UNL     1       5.070   4.107  17.445  0.00  0.00    +0.000 A 
BRANCH   3  11
ATOM     10  C   UNL     1       7.645   5.546  19.632  0.00  0.00    +0.000 C 
ATOM     11  O   UNL     1       6.504   4.816  19.207  0.00  0.00    +0.000 OA
ENDBRANCH   3  11
ENDBRANCH   1   9
BRANCH   1  12
ATOM     12  C   UNL     1       2.656   3.996  18.154  0.00  0.00    +0.000 C 
BRANCH  12  13
ATOM     13  C   UNL     1       2.443   5.297  18.900  0.00  0.00    +0.000 A 
ATOM     14  C   UNL     1       1.934   5.273  20.207  0.00  0.00    +0.000 A 
ATOM     15  C   UNL     1       1.584   6.460  20.855  0.00  0.00    +0.000 A 
ATOM     16  C   UNL     1       1.733   7.679  20.178  0.00  0.00    +0.000 A 
ATOM     17  C   UNL     1       2.283   7.721  18.890  0.00  0.00    +0.000 A 
ATOM     18  C   UNL     1       2.638   6.527  18.255  0.00  0.00    +0.000 A 
BRANCH  16  19
ATOM     19  N   UNL     1       1.257   8.916  20.803  0.00  0.00    +0.000 N 
ATOM     20  O   UNL     1       0.967   9.864  20.059  0.00  0.00    +0.000 OA
ATOM     21  O   UNL     1       1.190   8.949  22.040  0.00  0.00    +0.000 OA
ENDBRANCH  16  19
ENDBRANCH  12  13
ENDBRANCH   1  12
TORSDOF 5
ENDMDL
MODEL 4
REMARK VINA RESULT:      -6.9      2.139      2.770
REMARK  Name = 
REMARK  7 active torsions:
REMARK  status: ('A' for Active; 'I' for Inactive)
REMARK    1  A    between atoms: C_1  and  O_2
REMARK    2  A    between atoms: O_2  and  C_3
REMARK    3  A    between atoms: C_6  and  C_7
REMARK    4  A    between atoms: C_9  and  N_10
REMARK    5  A    between atoms: N_10  and  C_11
REMARK    6  A    between atoms: C_11  and  C_12
REMARK    7  A    between atoms: C_15  and  N_16
REMARK                            x       y       z     vdW  Elec       q    Type
REMARK                         _______ _______ _______ _____ _____    ______ ____
ROOT
ATOM      1  N   UNL     1       3.372   3.848  17.593  0.00  0.00    +0.000 N 
ATOM      2  H   UNL     1       2.731   3.124  17.293  0.00  0.00    +0.000 HD
ENDROOT
BRANCH   1   9
ATOM      3  C   UNL     1       2.348   4.648  19.729  0.00  0.00    +0.000 A 
ATOM      4  C   UNL     1       1.979   5.763  20.498  0.00  0.00    +0.000 A 
ATOM      5  C   UNL     1       2.026   7.054  19.966  0.00  0.00    +0.000 A 
ATOM      6  C   UNL     1       2.421   7.255  18.646  0.00  0.00    +0.000 A 
ATOM      7  C   UNL     1       2.412   8.626  18.039  0.00  0.00    +0.000 C 
ATOM      8  C   UNL     1       2.807   6.144  17.884  0.00  0.00    +0.000 A 
ATOM      9  C   UNL     1       2.798   4.830  18.402  0.00  0.00    +0.000 A 
BRANCH   3  11
ATOM     10  C   UNL     1       1.544   3.104  21.381  0.00  0.00    +0.000 C 
ATOM     11  O   UNL     1       2.301   3.363  20.208  0.00  0.00    +0.000 OA
ENDBRANCH   3  11
ENDBRANCH   1   9
BRANCH   1  12
ATOM     12  C   UNL     1       4.762   3.436  17.664  0.00  0.00    +0.000 C 
BRANCH  12  13
ATOM     13  C   UNL     1       5.483   4.049  16.481  0.00  0.00    +0.000 A 
ATOM     14  C   UNL     1       5.096   3.707  15.177  0.00  0.00    +0.000 A 
ATOM     15  C   UNL     1       5.842   4.136  14.078  0.00  0.00    +0.000 A 
ATOM     16  C   UNL     1       6.995   4.904  14.292  0.00  0.00    +0.000 A 
ATOM     17  C   UNL     1       7.368   5.292  15.586  0.00  0.00    +0.000 A 
ATOM     18  C   UNL     1       6.608   4.864  16.678  0.00  0.00    +0.000 A 
BRANCH  16  19
ATOM     19  N   UNL     1       7.851   5.257  13.156  0.00  0.00    +0.000 N 
ATOM     20  O   UNL     1       7.558   4.792  12.045  0.00  0.00    +0.000 OA
ATOM     21  O   UNL     1       8.829   5.985  13.376  0.00  0.00    +0.000 OA
ENDBRANCH  16  19
ENDBRANCH  12  13
ENDBRANCH   1  12
TORSDOF 5
ENDMDL
MODEL 5
REMARK VINA RESULT:      -6.9      3.710      6.686
REMARK  Name = 
REMARK  7 active torsions:
REMARK  status: ('A' for Active; 'I' for Inactive)
REMARK    1  A    between atoms: C_1  and  O_2
REMARK    2  A    between atoms: O_2  and  C_3
REMARK    3  A    between atoms: C_6  and  C_7
REMARK    4  A    between atoms: C_9  and  N_10
REMARK    5  A    between atoms: N_10  and  C_11
REMARK    6  A    between atoms: C_11  and  C_12
REMARK    7  A    between atoms: C_15  and  N_16
REMARK                            x       y       z     vdW  Elec       q    Type
REMARK                         _______ _______ _______ _____ _____    ______ ____
ROOT
ATOM      1  N   UNL     1       3.199   7.231  18.288  0.00  0.00    +0.000 N 
ATOM      2  H   UNL     1       3.587   7.363  19.215  0.00  0.00    +0.000 HD
ENDROOT
BRANCH   1   9
ATOM      3  C   UNL     1       4.246   5.332  17.043  0.00  0.00    +0.000 A 
ATOM      4  C   UNL     1       4.252   3.946  16.824  0.00  0.00    +0.000 A 
ATOM      5  C   UNL     1       3.252   3.127  17.355  0.00  0.00    +0.000 A 
ATOM      6  C   UNL     1       2.212   3.681  18.096  0.00  0.00    +0.000 A 
ATOM      7  C   UNL     1       1.095   2.826  18.615  0.00  0.00    +0.000 C 
ATOM      8  C   UNL     1       2.215   5.063  18.330  0.00  0.00    +0.000 A 
ATOM      9  C   UNL     1       3.227   5.913  17.832  0.00  0.00    +0.000 A 
BRANCH   3  11
ATOM     10  C   UNL     1       6.453   6.263  17.185  0.00  0.00    +0.000 C 
ATOM     11  O   UNL     1       5.199   6.173  16.526  0.00  0.00    +0.000 OA
ENDBRANCH   3  11
ENDBRANCH   1   9
BRANCH   1  12
ATOM     12  C   UNL     1       2.201   8.212  17.904  0.00  0.00    +0.000 C 
BRANCH  12  13
ATOM     13  C   UNL     1       1.508   8.679  19.168  0.00  0.00    +0.000 A 
ATOM     14  C   UNL     1       0.743   9.854  19.148  0.00  0.00    +0.000 A 
ATOM     15  C   UNL     1       0.226  10.386  20.331  0.00  0.00    +0.000 A 
ATOM     16  C   UNL     1       0.490   9.738  21.545  0.00  0.00    +0.000 A 
ATOM     17  C   UNL     1       1.213   8.538  21.575  0.00  0.00    +0.000 A 
ATOM     18  C   UNL     1       1.720   8.011  20.383  0.00  0.00    +0.000 A 
BRANCH  16  19
ATOM     19  N   UNL     1       0.055  10.352  22.803  0.00  0.00    +0.000 N 
ATOM     20  O   UNL     1       0.148   9.677  23.838  0.00  0.00    +0.000 OA
ATOM     21  O   UNL     1      -0.401  11.503  22.755  0.00  0.00    +0.000 OA
ENDBRANCH  16  19
ENDBRANCH  12  13
ENDBRANCH   1  12
TORSDOF 5
ENDMDL
MODEL 6
REMARK VINA RESULT:      -6.9      0.324      1.322
REMARK  Name = 
REMARK  7 active torsions:
REMARK  status: ('A' for Active; 'I' for Inactive)
REMARK    1  A    between atoms: C_1  and  O_2
REMARK    2  A    between atoms: O_2  and  C_3
REMARK    3  A    between atoms: C_6  and  C_7
REMARK    4  A    between atoms: C_9  and  N_10
REMARK    5  A    between atoms: N_10  and  C_11
REMARK    6  A    between atoms: C_11  and  C_12
REMARK    7  A    between atoms: C_15  and  N_16
REMARK                            x       y       z     vdW  Elec       q    Type
REMARK                         _______ _______ _______ _____ _____    ______ ____
ROOT
ATOM      1  N   UNL     1       2.093   3.268  18.170  0.00  0.00    +0.000 N 
ATOM      2  H   UNL     1       1.361   2.579  18.294  0.00  0.00    +0.000 HD
ENDROOT
BRANCH   1   9
ATOM      3  C   UNL     1       1.575   4.585  20.231  0.00  0.00    +0.000 A 
ATOM      4  C   UNL     1       1.590   5.850  20.839  0.00  0.00    +0.000 A 
ATOM      5  C   UNL     1       1.885   7.001  20.103  0.00  0.00    +0.000 A 
ATOM      6  C   UNL     1       2.146   6.914  18.738  0.00  0.00    +0.000 A 
ATOM      7  C   UNL     1       2.397   8.145  17.921  0.00  0.00    +0.000 C 
ATOM      8  C   UNL     1       2.149   5.648  18.135  0.00  0.00    +0.000 A 
ATOM      9  C   UNL     1       1.884   4.464  18.857  0.00  0.00    +0.000 A 
BRANCH   3  11
ATOM     10  C   UNL     1       2.284   2.837  21.714  0.00  0.00    +0.000 C 
ATOM     11  O   UNL     1       1.275   3.433  20.913  0.00  0.00    +0.000 OA
ENDBRANCH   3  11
ENDBRANCH   1   9
BRANCH   1  12
ATOM     12  C   UNL     1       3.400   2.714  17.864  0.00  0.00    +0.000 C 
BRANCH  12  13
ATOM     13  C   UNL     1       4.392   3.859  17.857  0.00  0.00    +0.000 A 
ATOM     14  C   UNL     1       4.702   4.503  16.650  0.00  0.00    +0.000 A 
ATOM     15  C   UNL     1       5.724   5.452  16.593  0.00  0.00    +0.000 A 
ATOM     16  C   UNL     1       6.450   5.747  17.756  0.00  0.00    +0.000 A 
ATOM     17  C   UNL     1       6.121   5.145  18.978  0.00  0.00    +0.000 A 
ATOM     18  C   UNL     1       5.090   4.202  19.025  0.00  0.00    +0.000 A 
BRANCH  16  19
ATOM     19  N   UNL     1       7.601   6.650  17.681  0.00  0.00    +0.000 N 
ATOM     20  O   UNL     1       8.239   6.861  18.723  0.00  0.00    +0.000 OA
ATOM     21  O   UNL     1       7.859   7.167  16.585  0.00  0.00    +0.000 OA
ENDBRANCH  16  19
ENDBRANCH  12  13
ENDBRANCH   1  12
TORSDOF 5
ENDMDL
MODEL 7
REMARK VINA RESULT:      -6.8      2.047      2.655
REMARK  Name = 
REMARK  7 active torsions:
REMARK  status: ('A' for Active; 'I' for Inactive)
REMARK    1  A    between atoms: C_1  and  O_2
REMARK    2  A    between atoms: O_2  and  C_3
REMARK    3  A    between atoms: C_6  and  C_7
REMARK    4  A    between atoms: C_9  and  N_10
REMARK    5  A    between atoms: N_10  and  C_11
REMARK    6  A    between atoms: C_11  and  C_12
REMARK    7  A    between atoms: C_15  and  N_16
REMARK                            x       y       z     vdW  Elec       q    Type
REMARK                         _______ _______ _______ _____ _____    ______ ____
ROOT
ATOM      1  N   UNL     1       3.388   4.352  18.536  0.00  0.00    +0.000 N 
ATOM      2  H   UNL     1       2.843   3.498  18.528  0.00  0.00    +0.000 HD
ENDROOT
BRANCH   1   9
ATOM      3  C   UNL     1       2.193   5.580  20.358  0.00  0.00    +0.000 A 
ATOM      4  C   UNL     1       1.721   6.821  20.810  0.00  0.00    +0.000 A 
ATOM      5  C   UNL     1       1.738   7.945  19.979  0.00  0.00    +0.000 A 
ATOM      6  C   UNL     1       2.204   7.845  18.671  0.00  0.00    +0.000 A 
ATOM      7  C   UNL     1       2.166   9.024  17.746  0.00  0.00    +0.000 C 
ATOM      8  C   UNL     1       2.692   6.608  18.226  0.00  0.00    +0.000 A 
ATOM      9  C   UNL     1       2.716   5.461  19.049  0.00  0.00    +0.000 A 
BRANCH   3  11
ATOM     10  C   UNL     1       1.204   3.453  20.866  0.00  0.00    +0.000 C 
ATOM     11  O   UNL     1       2.179   4.448  21.135  0.00  0.00    +0.000 OA
ENDBRANCH   3  11
ENDBRANCH   1   9
BRANCH   1  12
ATOM     12  C   UNL     1       4.823   4.153  18.613  0.00  0.00    +0.000 C 
BRANCH  12  13
ATOM     13  C   UNL     1       5.406   4.489  17.255  0.00  0.00    +0.000 A 
ATOM     14  C   UNL     1       5.145   3.652  16.160  0.00  0.00    +0.000 A 
ATOM     15  C   UNL     1       5.795   3.854  14.941  0.00  0.00    +0.000 A 
ATOM     16  C   UNL     1       6.723   4.897  14.825  0.00  0.00    +0.000 A 
ATOM     17  C   UNL     1       6.959   5.770  15.896  0.00  0.00    +0.000 A 
ATOM     18  C   UNL     1       6.296   5.563  17.110  0.00  0.00    +0.000 A 
BRANCH  16  19
ATOM     19  N   UNL     1       7.497   5.043  13.589  0.00  0.00    +0.000 N 
ATOM     20  O   UNL     1       8.485   5.792  13.611  0.00  0.00    +0.000 OA
ATOM     21  O   UNL     1       7.109   4.424  12.589  0.00  0.00    +0.000 OA
ENDBRANCH  16  19
ENDBRANCH  12  13
ENDBRANCH   1  12
TORSDOF 5
ENDMDL
MODEL 8
REMARK VINA RESULT:      -6.8      1.445      2.834
REMARK  Name = 
REMARK  7 active torsions:
REMARK  status: ('A' for Active; 'I' for Inactive)
REMARK    1  A    between atoms: C_1  and  O_2
REMARK    2  A    between atoms: O_2  and  C_3
REMARK    3  A    between atoms: C_6  and  C_7
REMARK    4  A    between atoms: C_9  and  N_10
REMARK    5  A    between atoms: N_10  and  C_11
REMARK    6  A    between atoms: C_11  and  C_12
REMARK    7  A    between atoms: C_15  and  N_16
REMARK                            x       y       z     vdW  Elec       q    Type
REMARK                         _______ _______ _______ _____ _____    ______ ____
ROOT
ATOM      1  N   UNL     1       2.847   3.896  17.173  0.00  0.00    +0.000 N 
ATOM      2  H   UNL     1       2.038   3.545  16.674  0.00  0.00    +0.000 HD
ENDROOT
BRANCH   1   9
ATOM      3  C   UNL     1       2.405   5.713  18.833  0.00  0.00    +0.000 A 
ATOM      4  C   UNL     1       1.937   6.028  20.117  0.00  0.00    +0.000 A 
ATOM      5  C   UNL     1       1.657   5.025  21.049  0.00  0.00    +0.000 A 
ATOM      6  C   UNL     1       1.863   3.687  20.723  0.00  0.00    +0.000 A 
ATOM      7  C   UNL     1       1.633   2.603  21.733  0.00  0.00    +0.000 C 
ATOM      8  C   UNL     1       2.313   3.372  19.434  0.00  0.00    +0.000 A 
ATOM      9  C   UNL     1       2.577   4.360  18.460  0.00  0.00    +0.000 A 
BRANCH   3  11
ATOM     10  C   UNL     1       2.542   8.035  18.240  0.00  0.00    +0.000 C 
ATOM     11  O   UNL     1       2.707   6.668  17.894  0.00  0.00    +0.000 OA
ENDBRANCH   3  11
ENDBRANCH   1   9
BRANCH   1  12
ATOM     12  C   UNL     1       4.112   3.318  16.758  0.00  0.00    +0.000 C 
BRANCH  12  13
ATOM     13  C   UNL     1       5.184   4.371  16.956  0.00  0.00    +0.000 A 
ATOM     14  C   UNL     1       6.034   4.296  18.070  0.00  0.00    +0.000 A 
ATOM     15  C   UNL     1       6.922   5.334  18.356  0.00  0.00    +0.000 A 
ATOM     16  C   UNL     1       6.948   6.462  17.524  0.00  0.00    +0.000 A 
ATOM     17  C   UNL     1       6.138   6.530  16.382  0.00  0.00    +0.000 A 
ATOM     18  C   UNL     1       5.258   5.480  16.101  0.00  0.00    +0.000 A 
BRANCH  16  19
ATOM     19  N   UNL     1       7.789   7.607  17.883  0.00  0.00    +0.000 N 
ATOM     20  O   UNL     1       7.704   8.628  17.184  0.00  0.00    +0.000 OA
ATOM     21  O   UNL     1       8.550   7.483  18.853  0.00  0.00    +0.000 OA
ENDBRANCH  16  19
ENDBRANCH  12  13
ENDBRANCH   1  12
TORSDOF 5
ENDMDL
MODEL 9
REMARK VINA RESULT:      -6.8      2.872      3.798
REMARK  Name = 
REMARK  7 active torsions:
REMARK  status: ('A' for Active; 'I' for Inactive)
REMARK    1  A    between atoms: C_1  and  O_2
REMARK    2  A    between atoms: O_2  and  C_3
REMARK    3  A    between atoms: C_6  and  C_7
REMARK    4  A    between atoms: C_9  and  N_10
REMARK    5  A    between atoms: N_10  and  C_11
REMARK    6  A    between atoms: C_11  and  C_12
REMARK    7  A    between atoms: C_15  and  N_16
REMARK                            x       y       z     vdW  Elec       q    Type
REMARK                         _______ _______ _______ _____ _____    ______ ____
ROOT
ATOM      1  N   UNL     1       5.579   4.062  18.846  0.00  0.00    +0.000 N 
ATOM      2  H   UNL     1       6.104   3.409  19.415  0.00  0.00    +0.000 HD
ENDROOT
BRANCH   1   9
ATOM      3  C   UNL     1       3.371   3.220  19.664  0.00  0.00    +0.000 A 
ATOM      4  C   UNL     1       2.133   3.559  20.231  0.00  0.00    +0.000 A 
ATOM      5  C   UNL     1       1.745   4.894  20.370  0.00  0.00    +0.000 A 
ATOM      6  C   UNL     1       2.575   5.917  19.922  0.00  0.00    +0.000 A 
ATOM      7  C   UNL     1       2.144   7.351  20.001  0.00  0.00    +0.000 C 
ATOM      8  C   UNL     1       3.820   5.579  19.372  0.00  0.00    +0.000 A 
ATOM      9  C   UNL     1       4.254   4.242  19.245  0.00  0.00    +0.000 A 
BRANCH   3  11
ATOM     10  C   UNL     1       3.558   1.297  18.241  0.00  0.00    +0.000 C 
ATOM     11  O   UNL     1       3.784   1.922  19.495  0.00  0.00    +0.000 OA
ENDBRANCH   3  11
ENDBRANCH   1   9
BRANCH   1  12
ATOM     12  C   UNL     1       6.383   5.077  18.190  0.00  0.00    +0.000 C 
BRANCH  12  13
ATOM     13  C   UNL     1       6.287   4.843  16.696  0.00  0.00    +0.000 A 
ATOM     14  C   UNL     1       5.320   3.962  16.191  0.00  0.00    +0.000 A 
ATOM     15  C   UNL     1       5.314   3.612  14.839  0.00  0.00    +0.000 A 
ATOM     16  C   UNL     1       6.296   4.142  13.991  0.00  0.00    +0.000 A 
ATOM     17  C   UNL     1       7.240   5.060  14.472  0.00  0.00    +0.000 A 
ATOM     18  C   UNL     1       7.231   5.409  15.826  0.00  0.00    +0.000 A 
BRANCH  16  19
ATOM     19  N   UNL     1       6.372   3.690  12.600  0.00  0.00    +0.000 N 
ATOM     20  O   UNL     1       5.541   2.853  12.218  0.00  0.00    +0.000 OA
ATOM     21  O   UNL     1       7.275   4.155  11.890  0.00  0.00    +0.000 OA
ENDBRANCH  16  19
ENDBRANCH  12  13
ENDBRANCH   1  12
TORSDOF 5
ENDMDL
