MODEL 1
REMARK VINA RESULT:      -8.3      0.000      0.000
REMARK  Name = 
REMARK  8 active torsions:
REMARK  status: ('A' for Active; 'I' for Inactive)
REMARK    1  A    between atoms: C_1  and  C_2
REMARK    2  A    between atoms: C_2  and  C_3
REMARK    3  A    between atoms: C_2  and  N_4
REMARK    4  A    between atoms: N_4  and  C_5
REMARK    5  A    between atoms: C_16  and  C_17
REMARK    6  A    between atoms: C_20  and  C_21
REMARK    7  A    between atoms: C_21  and  O_22
REMARK    8  A    between atoms: C_21  and  C_23
REMARK                            x       y       z     vdW  Elec       q    Type
REMARK                         _______ _______ _______ _____ _____    ______ ____
ROOT
ATOM      1  C   UNL     1       1.996   5.925  20.450  0.00  0.00    +0.000 A 
ATOM      2  C   UNL     1       0.984   4.981  20.635  0.00  0.00    +0.000 A 
ATOM      3  C   UNL     1       0.975   3.755  19.964  0.00  0.00    +0.000 A 
ATOM      4  C   UNL     1       1.977   3.488  19.027  0.00  0.00    +0.000 A 
ATOM      5  C   UNL     1       2.248   2.423  18.158  0.00  0.00    +0.000 A 
ATOM      6  N   UNL     1       3.310   2.641  17.394  0.00  0.00    +0.000 NA
ATOM      7  N   UNL     1       3.774   3.869  17.784  0.00  0.00    +0.000 N 
ATOM      8  C   UNL     1       4.940   4.393  17.147  0.00  0.00    +0.000 A 
ATOM      9  C   UNL     1       5.454   3.694  16.054  0.00  0.00    +0.000 A 
ATOM     10  N   UNL     1       6.565   4.081  15.382  0.00  0.00    +0.000 NA
ATOM     11  C   UNL     1       7.159   5.194  15.861  0.00  0.00    +0.000 A 
ATOM     12  C   UNL     1       6.670   5.919  16.952  0.00  0.00    +0.000 A 
ATOM     13  N   UNL     1       5.540   5.524  17.605  0.00  0.00    +0.000 NA
ATOM     14  C   UNL     1       2.986   4.424  18.795  0.00  0.00    +0.000 A 
ATOM     15  C   UNL     1       3.012   5.649  19.507  0.00  0.00    +0.000 A 
ENDROOT
BRANCH  12  16
ATOM     16  C   UNL     1       7.391   7.080  17.504  0.00  0.00    +0.000 A 
ATOM     17  C   UNL     1       8.240   6.966  18.619  0.00  0.00    +0.000 A 
ATOM     18  C   UNL     1       8.810   8.093  19.217  0.00  0.00    +0.000 A 
ATOM     19  C   UNL     1       8.555   9.372  18.711  0.00  0.00    +0.000 A 
ATOM     20  C   UNL     1       7.770   9.492  17.556  0.00  0.00    +0.000 A 
ATOM     21  C   UNL     1       7.198   8.362  16.965  0.00  0.00    +0.000 A 
BRANCH  19  22
ATOM     22  C   UNL     1       9.091  10.590  19.432  0.00  0.00    +0.000 C 
BRANCH  22  23
ATOM     23  C   UNL     1      10.260  11.298  18.694  0.00  0.00    +0.000 C 
ATOM     24  F   UNL     1      10.090  12.633  18.570  0.00  0.00    +0.000 F 
ATOM     25  F   UNL     1      11.434  11.104  19.341  0.00  0.00    +0.000 F 
ATOM     26  F   UNL     1      10.402  10.804  17.438  0.00  0.00    +0.000 F 
ENDBRANCH  22  23
BRANCH  22  27
ATOM     27  O   UNL     1       9.398  10.193  20.783  0.00  0.00    +0.000 OA
ATOM     28  H   UNL     1       9.649   9.253  20.759  0.00  0.00    +0.000 HD
ENDBRANCH  22  27
ENDBRANCH  19  22
ENDBRANCH  12  16
BRANCH   1  29
ATOM     29  N   UNL     1       1.980   7.176  21.078  0.00  0.00    +0.000 N 
ATOM     30  H   UNL     1       2.347   7.142  22.027  0.00  0.00    +0.000 HD
BRANCH  29  32
ATOM     31  C   UNL     1       0.785   9.085  22.060  0.00  0.00    +0.000 C 
ATOM     32  C   UNL     1       0.920   8.164  20.849  0.00  0.00    +0.000 C 
ATOM     33  C   UNL     1       1.247   8.988  19.601  0.00  0.00    +0.000 C 
ENDBRANCH  29  32
ENDBRANCH   1  29
TORSDOF 6
ENDMDL
MODEL 2
REMARK VINA RESULT:      -7.8      1.086      1.539
REMARK  Name = 
REMARK  8 active torsions:
REMARK  status: ('A' for Active; 'I' for Inactive)
REMARK    1  A    between atoms: C_1  and  C_2
REMARK    2  A    between atoms: C_2  and  C_3
REMARK    3  A    between atoms: C_2  and  N_4
REMARK    4  A    between atoms: N_4  and  C_5
REMARK    5  A    between atoms: C_16  and  C_17
REMARK    6  A    between atoms: C_20  and  C_21
REMARK    7  A    between atoms: C_21  and  O_22
REMARK    8  A    between atoms: C_21  and  C_23
REMARK                            x       y       z     vdW  Elec       q    Type
REMARK                         _______ _______ _______ _____ _____    ______ ____
ROOT
ATOM      1  C   UNL     1       1.935   6.057  20.522  0.00  0.00    +0.000 A 
ATOM      2  C   UNL     1       0.966   5.069  20.706  0.00  0.00    +0.000 A 
ATOM      3  C   UNL     1       1.026   3.835  20.054  0.00  0.00    +0.000 A 
ATOM      4  C   UNL     1       2.055   3.601  19.138  0.00  0.00    +0.000 A 
ATOM      5  C   UNL     1       2.389   2.537  18.291  0.00  0.00    +0.000 A 
ATOM      6  N   UNL     1       3.454   2.793  17.540  0.00  0.00    +0.000 NA
ATOM      7  N   UNL     1       3.853   4.047  17.918  0.00  0.00    +0.000 N 
ATOM      8  C   UNL     1       5.003   4.616  17.293  0.00  0.00    +0.000 A 
ATOM      9  C   UNL     1       5.568   3.926  16.219  0.00  0.00    +0.000 A 
ATOM     10  N   UNL     1       6.671   4.354  15.560  0.00  0.00    +0.000 NA
ATOM     11  C   UNL     1       7.204   5.501  16.031  0.00  0.00    +0.000 A 
ATOM     12  C   UNL     1       6.663   6.219  17.103  0.00  0.00    +0.000 A 
ATOM     13  N   UNL     1       5.542   5.780  17.743  0.00  0.00    +0.000 NA
ATOM     14  C   UNL     1       3.023   4.579  18.908  0.00  0.00    +0.000 A 
ATOM     15  C   UNL     1       2.979   5.815  19.601  0.00  0.00    +0.000 A 
ENDROOT
BRANCH  12  16
ATOM     16  C   UNL     1       7.320   7.420  17.647  0.00  0.00    +0.000 A 
ATOM     17  C   UNL     1       7.027   8.709  17.168  0.00  0.00    +0.000 A 
ATOM     18  C   UNL     1       7.752   9.825  17.592  0.00  0.00    +0.000 A 
ATOM     19  C   UNL     1       8.791   9.687  18.520  0.00  0.00    +0.000 A 
ATOM     20  C   UNL     1       9.043   8.419  19.061  0.00  0.00    +0.000 A 
ATOM     21  C   UNL     1       8.318   7.305  18.628  0.00  0.00    +0.000 A 
BRANCH  19  22
ATOM     22  C   UNL     1       9.637  10.887  18.891  0.00  0.00    +0.000 C 
BRANCH  22  23
ATOM     23  C   UNL     1       9.550  11.283  20.390  0.00  0.00    +0.000 C 
ATOM     24  F   UNL     1      10.751  11.567  20.943  0.00  0.00    +0.000 F 
ATOM     25  F   UNL     1       8.765  12.372  20.562  0.00  0.00    +0.000 F 
ATOM     26  F   UNL     1       9.013  10.274  21.122  0.00  0.00    +0.000 F 
ENDBRANCH  22  23
BRANCH  22  27
ATOM     27  O   UNL     1       9.303  11.950  17.977  0.00  0.00    +0.000 OA
ATOM     28  H   UNL     1       8.349  11.887  17.794  0.00  0.00    +0.000 HD
ENDBRANCH  22  27
ENDBRANCH  19  22
ENDBRANCH  12  16
BRANCH   1  29
ATOM     29  N   UNL     1       1.850   7.315  21.131  0.00  0.00    +0.000 N 
ATOM     30  H   UNL     1       2.236   7.321  22.073  0.00  0.00    +0.000 HD
BRANCH  29  32
ATOM     31  C   UNL     1       0.382   8.973  22.195  0.00  0.00    +0.000 C 
ATOM     32  C   UNL     1       0.725   8.229  20.906  0.00  0.00    +0.000 C 
ATOM     33  C   UNL     1       1.089   9.231  19.807  0.00  0.00    +0.000 C 
ENDBRANCH  29  32
ENDBRANCH   1  29
TORSDOF 6
ENDMDL
MODEL 3
REMARK VINA RESULT:      -7.8      6.010      9.865
REMARK  Name = 
REMARK  8 active torsions:
REMARK  status: ('A' for Active; 'I' for Inactive)
REMARK    1  A    between atoms: C_1  and  C_2
REMARK    2  A    between atoms: C_2  and  C_3
REMARK    3  A    between atoms: C_2  and  N_4
REMARK    4  A    between atoms: N_4  and  C_5
REMARK    5  A    between atoms: C_16  and  C_17
REMARK    6  A    between atoms: C_20  and  C_21
REMARK    7  A    between atoms: C_21  and  O_22
REMARK    8  A    between atoms: C_21  and  C_23
REMARK                            x       y       z     vdW  Elec       q    Type
REMARK                         _______ _______ _______ _____ _____    ______ ____
ROOT
ATOM      1  C   UNL     1       4.375  14.882  18.018  0.00  0.00    +0.000 A 
ATOM      2  C   UNL     1       4.273  16.272  18.100  0.00  0.00    +0.000 A 
ATOM      3  C   UNL     1       3.088  16.913  18.473  0.00  0.00    +0.000 A 
ATOM      4  C   UNL     1       1.947  16.142  18.712  0.00  0.00    +0.000 A 
ATOM      5  C   UNL     1       0.618  16.436  19.045  0.00  0.00    +0.000 A 
ATOM      6  N   UNL     1      -0.144  15.352  19.118  0.00  0.00    +0.000 NA
ATOM      7  N   UNL     1       0.705  14.310  18.857  0.00  0.00    +0.000 N 
ATOM      8  C   UNL     1       0.183  12.981  18.874  0.00  0.00    +0.000 A 
ATOM      9  C   UNL     1      -1.198  12.827  19.005  0.00  0.00    +0.000 A 
ATOM     10  N   UNL     1      -1.808  11.618  19.055  0.00  0.00    +0.000 NA
ATOM     11  C   UNL     1      -0.974  10.559  18.987  0.00  0.00    +0.000 A 
ATOM     12  C   UNL     1       0.413  10.678  18.854  0.00  0.00    +0.000 A 
ATOM     13  N   UNL     1       1.007  11.903  18.788  0.00  0.00    +0.000 NA
ATOM     14  C   UNL     1       2.007  14.752  18.609  0.00  0.00    +0.000 A 
ATOM     15  C   UNL     1       3.221  14.105  18.268  0.00  0.00    +0.000 A 
ENDROOT
BRANCH  12  16
ATOM     16  C   UNL     1       1.301   9.502  18.871  0.00  0.00    +0.000 A 
ATOM     17  C   UNL     1       2.090   9.151  17.761  0.00  0.00    +0.000 A 
ATOM     18  C   UNL     1       2.822   7.961  17.736  0.00  0.00    +0.000 A 
ATOM     19  C   UNL     1       2.795   7.087  18.829  0.00  0.00    +0.000 A 
ATOM     20  C   UNL     1       2.072   7.461  19.970  0.00  0.00    +0.000 A 
ATOM     21  C   UNL     1       1.337   8.650  19.986  0.00  0.00    +0.000 A 
BRANCH  19  22
ATOM     22  C   UNL     1       3.506   5.753  18.747  0.00  0.00    +0.000 C 
BRANCH  22  23
ATOM     23  C   UNL     1       2.737   4.675  17.936  0.00  0.00    +0.000 C 
ATOM     24  F   UNL     1       1.495   5.061  17.567  0.00  0.00    +0.000 F 
ATOM     25  F   UNL     1       3.405   4.346  16.806  0.00  0.00    +0.000 F 
ATOM     26  F   UNL     1       2.591   3.540  18.667  0.00  0.00    +0.000 F 
ENDBRANCH  22  23
BRANCH  22  27
ATOM     27  O   UNL     1       3.840   5.357  20.091  0.00  0.00    +0.000 OA
ATOM     28  H   UNL     1       3.206   4.668  20.357  0.00  0.00    +0.000 HD
ENDBRANCH  22  27
ENDBRANCH  19  22
ENDBRANCH  12  16
BRANCH   1  29
ATOM     29  N   UNL     1       5.543  14.239  17.593  0.00  0.00    +0.000 N 
ATOM     30  H   UNL     1       5.367  13.303  17.235  0.00  0.00    +0.000 HD
BRANCH  29  32
ATOM     31  C   UNL     1       7.834  13.369  17.782  0.00  0.00    +0.000 C 
ATOM     32  C   UNL     1       6.836  14.424  18.260  0.00  0.00    +0.000 C 
ATOM     33  C   UNL     1       7.375  15.824  17.957  0.00  0.00    +0.000 C 
ENDBRANCH  29  32
ENDBRANCH   1  29
TORSDOF 6
ENDMDL
MODEL 4
REMARK VINA RESULT:      -7.7      0.626      1.288
REMARK  Name = 
REMARK  8 active torsions:
REMARK  status: ('A' for Active; 'I' for Inactive)
REMARK    1  A    between atoms: C_1  and  C_2
REMARK    2  A    between atoms: C_2  and  C_3
REMARK    3  A    between atoms: C_2  and  N_4
REMARK    4  A    between atoms: N_4  and  C_5
REMARK    5  A    between atoms: C_16  and  C_17
REMARK    6  A    between atoms: C_20  and  C_21
REMARK    7  A    between atoms: C_21  and  O_22
REMARK    8  A    between atoms: C_21  and  C_23
REMARK                            x       y       z     vdW  Elec       q    Type
REMARK                         _______ _______ _______ _____ _____    ______ ____
ROOT
ATOM      1  C   UNL     1       2.053   5.806  20.450  0.00  0.00    +0.000 A 
ATOM      2  C   UNL     1       1.145   4.756  20.595  0.00  0.00    +0.000 A 
ATOM      3  C   UNL     1       1.293   3.543  19.916  0.00  0.00    +0.000 A 
ATOM      4  C   UNL     1       2.349   3.396  19.014  0.00  0.00    +0.000 A 
ATOM      5  C   UNL     1       2.764   2.374  18.150  0.00  0.00    +0.000 A 
ATOM      6  N   UNL     1       3.822   2.713  17.424  0.00  0.00    +0.000 NA
ATOM      7  N   UNL     1       4.136   3.981  17.837  0.00  0.00    +0.000 N 
ATOM      8  C   UNL     1       5.258   4.635  17.245  0.00  0.00    +0.000 A 
ATOM      9  C   UNL     1       5.883   4.006  16.166  0.00  0.00    +0.000 A 
ATOM     10  N   UNL     1       6.968   4.518  15.537  0.00  0.00    +0.000 NA
ATOM     11  C   UNL     1       7.420   5.684  16.043  0.00  0.00    +0.000 A 
ATOM     12  C   UNL     1       6.818   6.341  17.120  0.00  0.00    +0.000 A 
ATOM     13  N   UNL     1       5.716   5.819  17.730  0.00  0.00    +0.000 NA
ATOM     14  C   UNL     1       3.258   4.437  18.823  0.00  0.00    +0.000 A 
ATOM     15  C   UNL     1       3.126   5.651  19.543  0.00  0.00    +0.000 A 
ENDROOT
BRANCH  12  16
ATOM     16  C   UNL     1       7.389   7.568  17.703  0.00  0.00    +0.000 A 
ATOM     17  C   UNL     1       7.055   8.846  17.220  0.00  0.00    +0.000 A 
ATOM     18  C   UNL     1       7.704   9.992  17.685  0.00  0.00    +0.000 A 
ATOM     19  C   UNL     1       8.705   9.896  18.659  0.00  0.00    +0.000 A 
ATOM     20  C   UNL     1       8.995   8.637  19.202  0.00  0.00    +0.000 A 
ATOM     21  C   UNL     1       8.346   7.493  18.727  0.00  0.00    +0.000 A 
BRANCH  19  22
ATOM     22  C   UNL     1       9.473  11.132  19.076  0.00  0.00    +0.000 C 
BRANCH  22  23
ATOM     23  C   UNL     1      10.328  11.759  17.941  0.00  0.00    +0.000 C 
ATOM     24  F   UNL     1      10.836  10.848  17.082  0.00  0.00    +0.000 F 
ATOM     25  F   UNL     1       9.599  12.635  17.209  0.00  0.00    +0.000 F 
ATOM     26  F   UNL     1      11.383  12.440  18.457  0.00  0.00    +0.000 F 
ENDBRANCH  22  23
BRANCH  22  27
ATOM     27  O   UNL     1      10.218  10.798  20.264  0.00  0.00    +0.000 OA
ATOM     28  H   UNL     1       9.642  10.248  20.823  0.00  0.00    +0.000 HD
ENDBRANCH  22  27
ENDBRANCH  19  22
ENDBRANCH  12  16
BRANCH   1  29
ATOM     29  N   UNL     1       1.880   7.042  21.085  0.00  0.00    +0.000 N 
ATOM     30  H   UNL     1       1.986   6.981  22.096  0.00  0.00    +0.000 HD
BRANCH  29  32
ATOM     31  C   UNL     1       0.602   9.039  21.730  0.00  0.00    +0.000 C 
ATOM     32  C   UNL     1       0.922   8.047  20.613  0.00  0.00    +0.000 C 
ATOM     33  C   UNL     1       1.508   8.790  19.409  0.00  0.00    +0.000 C 
ENDBRANCH  29  32
ENDBRANCH   1  29
TORSDOF 6
ENDMDL
MODEL 5
REMARK VINA RESULT:      -7.5      5.906      9.895
REMARK  Name = 
REMARK  8 active torsions:
REMARK  status: ('A' for Active; 'I' for Inactive)
REMARK    1  A    between atoms: C_1  and  C_2
REMARK    2  A    between atoms: C_2  and  C_3
REMARK    3  A    between atoms: C_2  and  N_4
REMARK    4  A    between atoms: N_4  and  C_5
REMARK    5  A    between atoms: C_16  and  C_17
REMARK    6  A    between atoms: C_20  and  C_21
REMARK    7  A    between atoms: C_21  and  O_22
REMARK    8  A    between atoms: C_21  and  C_23
REMARK                            x       y       z     vdW  Elec       q    Type
REMARK                         _______ _______ _______ _____ _____    ______ ____
ROOT
ATOM      1  C   UNL     1       4.317  14.777  18.204  0.00  0.00    +0.000 A 
ATOM      2  C   UNL     1       4.366  16.168  18.322  0.00  0.00    +0.000 A 
ATOM      3  C   UNL     1       3.277  16.916  18.777  0.00  0.00    +0.000 A 
ATOM      4  C   UNL     1       2.077  16.261  19.064  0.00  0.00    +0.000 A 
ATOM      5  C   UNL     1       0.806  16.682  19.479  0.00  0.00    +0.000 A 
ATOM      6  N   UNL     1      -0.060  15.681  19.573  0.00  0.00    +0.000 NA
ATOM      7  N   UNL     1       0.659  14.565  19.240  0.00  0.00    +0.000 N 
ATOM      8  C   UNL     1       0.003  13.297  19.258  0.00  0.00    +0.000 A 
ATOM      9  C   UNL     1      -1.378  13.283  19.465  0.00  0.00    +0.000 A 
ATOM     10  N   UNL     1      -2.107  12.143  19.524  0.00  0.00    +0.000 NA
ATOM     11  C   UNL     1      -1.394  11.005  19.384  0.00  0.00    +0.000 A 
ATOM     12  C   UNL     1      -0.012  10.983  19.174  0.00  0.00    +0.000 A 
ATOM     13  N   UNL     1       0.703  12.143  19.101  0.00  0.00    +0.000 NA
ATOM     14  C   UNL     1       1.985  14.876  18.927  0.00  0.00    +0.000 A 
ATOM     15  C   UNL     1       3.104  14.117  18.503  0.00  0.00    +0.000 A 
ENDROOT
BRANCH  12  16
ATOM     16  C   UNL     1       0.748   9.723  19.114  0.00  0.00    +0.000 A 
ATOM     17  C   UNL     1       0.898   8.890  20.237  0.00  0.00    +0.000 A 
ATOM     18  C   UNL     1       1.732   7.770  20.207  0.00  0.00    +0.000 A 
ATOM     19  C   UNL     1       2.438   7.441  19.044  0.00  0.00    +0.000 A 
ATOM     20  C   UNL     1       2.239   8.220  17.896  0.00  0.00    +0.000 A 
ATOM     21  C   UNL     1       1.408   9.342  17.934  0.00  0.00    +0.000 A 
BRANCH  19  22
ATOM     22  C   UNL     1       3.419   6.288  19.057  0.00  0.00    +0.000 C 
BRANCH  22  23
ATOM     23  C   UNL     1       3.226   5.280  17.892  0.00  0.00    +0.000 C 
ATOM     24  F   UNL     1       3.657   4.032  18.182  0.00  0.00    +0.000 F 
ATOM     25  F   UNL     1       1.922   5.182  17.543  0.00  0.00    +0.000 F 
ATOM     26  F   UNL     1       3.912   5.683  16.792  0.00  0.00    +0.000 F 
ENDBRANCH  22  23
BRANCH  22  27
ATOM     27  O   UNL     1       3.369   5.693  20.369  0.00  0.00    +0.000 OA
ATOM     28  H   UNL     1       2.863   4.865  20.294  0.00  0.00    +0.000 HD
ENDBRANCH  22  27
ENDBRANCH  19  22
ENDBRANCH  12  16
BRANCH   1  29
ATOM     29  N   UNL     1       5.387  14.029  17.697  0.00  0.00    +0.000 N 
ATOM     30  H   UNL     1       5.221  13.026  17.747  0.00  0.00    +0.000 HD
BRANCH  29  32
ATOM     31  C   UNL     1       7.099  14.724  19.317  0.00  0.00    +0.000 C 
ATOM     32  C   UNL     1       6.785  14.444  17.848  0.00  0.00    +0.000 C 
ATOM     33  C   UNL     1       7.708  13.343  17.320  0.00  0.00    +0.000 C 
ENDBRANCH  29  32
ENDBRANCH   1  29
TORSDOF 6
ENDMDL
MODEL 6
REMARK VINA RESULT:      -7.4      5.685      9.554
REMARK  Name = 
REMARK  8 active torsions:
REMARK  status: ('A' for Active; 'I' for Inactive)
REMARK    1  A    between atoms: C_1  and  C_2
REMARK    2  A    between atoms: C_2  and  C_3
REMARK    3  A    between atoms: C_2  and  N_4
REMARK    4  A    between atoms: N_4  and  C_5
REMARK    5  A    between atoms: C_16  and  C_17
REMARK    6  A    between atoms: C_20  and  C_21
REMARK    7  A    between atoms: C_21  and  O_22
REMARK    8  A    between atoms: C_21  and  C_23
REMARK                            x       y       z     vdW  Elec       q    Type
REMARK                         _______ _______ _______ _____ _____    ______ ____
ROOT
ATOM      1  C   UNL     1       4.046  14.858  18.081  0.00  0.00    +0.000 A 
ATOM      2  C   UNL     1       3.895  16.246  18.130  0.00  0.00    +0.000 A 
ATOM      3  C   UNL     1       2.678  16.852  18.454  0.00  0.00    +0.000 A 
ATOM      4  C   UNL     1       1.558  16.048  18.676  0.00  0.00    +0.000 A 
ATOM      5  C   UNL     1       0.210  16.302  18.963  0.00  0.00    +0.000 A 
ATOM      6  N   UNL     1      -0.517  15.195  19.038  0.00  0.00    +0.000 NA
ATOM      7  N   UNL     1       0.374  14.177  18.824  0.00  0.00    +0.000 N 
ATOM      8  C   UNL     1      -0.103  12.832  18.855  0.00  0.00    +0.000 A 
ATOM      9  C   UNL     1      -1.481  12.633  18.948  0.00  0.00    +0.000 A 
ATOM     10  N   UNL     1      -2.051  11.405  19.007  0.00  0.00    +0.000 NA
ATOM     11  C   UNL     1      -1.180  10.374  18.986  0.00  0.00    +0.000 A 
ATOM     12  C   UNL     1       0.205  10.538  18.891  0.00  0.00    +0.000 A 
ATOM     13  N   UNL     1       0.759  11.782  18.816  0.00  0.00    +0.000 NA
ATOM     14  C   UNL     1       1.667  14.659  18.605  0.00  0.00    +0.000 A 
ATOM     15  C   UNL     1       2.912  14.047  18.314  0.00  0.00    +0.000 A 
ENDROOT
BRANCH  12  16
ATOM     16  C   UNL     1       1.132   9.394  18.959  0.00  0.00    +0.000 A 
ATOM     17  C   UNL     1       1.833   8.938  17.829  0.00  0.00    +0.000 A 
ATOM     18  C   UNL     1       2.601   7.772  17.872  0.00  0.00    +0.000 A 
ATOM     19  C   UNL     1       2.699   7.027  19.053  0.00  0.00    +0.000 A 
ATOM     20  C   UNL     1       2.065   7.512  20.205  0.00  0.00    +0.000 A 
ATOM     21  C   UNL     1       1.293   8.677  20.155  0.00  0.00    +0.000 A 
BRANCH  19  22
ATOM     22  C   UNL     1       3.447   5.711  19.056  0.00  0.00    +0.000 C 
BRANCH  22  23
ATOM     23  C   UNL     1       4.528   5.595  17.948  0.00  0.00    +0.000 C 
ATOM     24  F   UNL     1       4.017   5.370  16.717  0.00  0.00    +0.000 F 
ATOM     25  F   UNL     1       5.271   6.724  17.871  0.00  0.00    +0.000 F 
ATOM     26  F   UNL     1       5.376   4.568  18.212  0.00  0.00    +0.000 F 
ENDBRANCH  22  23
BRANCH  22  27
ATOM     27  O   UNL     1       2.465   4.656  19.039  0.00  0.00    +0.000 OA
ATOM     28  H   UNL     1       1.642   5.031  18.677  0.00  0.00    +0.000 HD
ENDBRANCH  22  27
ENDBRANCH  19  22
ENDBRANCH  12  16
BRANCH   1  29
ATOM     29  N   UNL     1       5.248  14.247  17.704  0.00  0.00    +0.000 N 
ATOM     30  H   UNL     1       5.181  13.232  17.681  0.00  0.00    +0.000 HD
BRANCH  29  32
ATOM     31  C   UNL     1       6.638  14.981  19.593  0.00  0.00    +0.000 C 
ATOM     32  C   UNL     1       6.561  14.782  18.080  0.00  0.00    +0.000 C 
ATOM     33  C   UNL     1       7.659  13.818  17.625  0.00  0.00    +0.000 C 
ENDBRANCH  29  32
ENDBRANCH   1  29
TORSDOF 6
ENDMDL
MODEL 7
REMARK VINA RESULT:      -7.3      8.084     12.257
REMARK  Name = 
REMARK  8 active torsions:
REMARK  status: ('A' for Active; 'I' for Inactive)
REMARK    1  A    between atoms: C_1  and  C_2
REMARK    2  A    between atoms: C_2  and  C_3
REMARK    3  A    between atoms: C_2  and  N_4
REMARK    4  A    between atoms: N_4  and  C_5
REMARK    5  A    between atoms: C_16  and  C_17
REMARK    6  A    between atoms: C_20  and  C_21
REMARK    7  A    between atoms: C_21  and  O_22
REMARK    8  A    between atoms: C_21  and  C_23
REMARK                            x       y       z     vdW  Elec       q    Type
REMARK                         _______ _______ _______ _____ _____    ______ ____
ROOT
ATOM      1  C   UNL     1      -5.863  12.400  17.350  0.00  0.00    +0.000 A 
ATOM      2  C   UNL     1      -6.960  13.020  16.748  0.00  0.00    +0.000 A 
ATOM      3  C   UNL     1      -7.683  14.035  17.380  0.00  0.00    +0.000 A 
ATOM      4  C   UNL     1      -7.339  14.401  18.684  0.00  0.00    +0.000 A 
ATOM      5  C   UNL     1      -7.857  15.311  19.615  0.00  0.00    +0.000 A 
ATOM      6  N   UNL     1      -7.219  15.274  20.779  0.00  0.00    +0.000 NA
ATOM      7  N   UNL     1      -6.235  14.338  20.607  0.00  0.00    +0.000 N 
ATOM      8  C   UNL     1      -5.349  14.069  21.694  0.00  0.00    +0.000 A 
ATOM      9  C   UNL     1      -5.631  14.665  22.924  0.00  0.00    +0.000 A 
ATOM     10  N   UNL     1      -4.853  14.502  24.022  0.00  0.00    +0.000 NA
ATOM     11  C   UNL     1      -3.764  13.728  23.836  0.00  0.00    +0.000 A 
ATOM     12  C   UNL     1      -3.453  13.115  22.618  0.00  0.00    +0.000 A 
ATOM     13  N   UNL     1      -4.257  13.277  21.529  0.00  0.00    +0.000 NA
ATOM     14  C   UNL     1      -6.268  13.780  19.326  0.00  0.00    +0.000 A 
ATOM     15  C   UNL     1      -5.513  12.778  18.666  0.00  0.00    +0.000 A 
ENDROOT
BRANCH  12  16
ATOM     16  C   UNL     1      -2.210  12.349  22.426  0.00  0.00    +0.000 A 
ATOM     17  C   UNL     1      -1.420  12.490  21.271  0.00  0.00    +0.000 A 
ATOM     18  C   UNL     1      -0.320  11.661  21.036  0.00  0.00    +0.000 A 
ATOM     19  C   UNL     1       0.031  10.667  21.956  0.00  0.00    +0.000 A 
ATOM     20  C   UNL     1      -0.703  10.566  23.146  0.00  0.00    +0.000 A 
ATOM     21  C   UNL     1      -1.806  11.394  23.373  0.00  0.00    +0.000 A 
BRANCH  19  22
ATOM     22  C   UNL     1       1.159   9.709  21.639  0.00  0.00    +0.000 C 
BRANCH  22  23
ATOM     23  C   UNL     1       0.727   8.486  20.783  0.00  0.00    +0.000 C 
ATOM     24  F   UNL     1       1.575   7.437  20.875  0.00  0.00    +0.000 F 
ATOM     25  F   UNL     1      -0.499   8.043  21.148  0.00  0.00    +0.000 F 
ATOM     26  F   UNL     1       0.663   8.821  19.469  0.00  0.00    +0.000 F 
ENDBRANCH  22  23
BRANCH  22  27
ATOM     27  O   UNL     1       1.797   9.364  22.884  0.00  0.00    +0.000 OA
ATOM     28  H   UNL     1       2.614   8.881  22.668  0.00  0.00    +0.000 HD
ENDBRANCH  22  27
ENDBRANCH  19  22
ENDBRANCH  12  16
BRANCH   1  29
ATOM     29  N   UNL     1      -5.170  11.346  16.743  0.00  0.00    +0.000 N 
ATOM     30  H   UNL     1      -5.712  10.484  16.718  0.00  0.00    +0.000 HD
BRANCH  29  32
ATOM     31  C   UNL     1      -3.407   9.956  17.742  0.00  0.00    +0.000 C 
ATOM     32  C   UNL     1      -3.720  11.173  16.873  0.00  0.00    +0.000 C 
ATOM     33  C   UNL     1      -3.097  10.997  15.486  0.00  0.00    +0.000 C 
ENDBRANCH  29  32
ENDBRANCH   1  29
TORSDOF 6
ENDMDL
MODEL 8
REMARK VINA RESULT:      -7.3      6.278      9.991
REMARK  Name = 
REMARK  8 active torsions:
REMARK  status: ('A' for Active; 'I' for Inactive)
REMARK    1  A    between atoms: C_1  and  C_2
REMARK    2  A    between atoms: C_2  and  C_3
REMARK    3  A    between atoms: C_2  and  N_4
REMARK    4  A    between atoms: N_4  and  C_5
REMARK    5  A    between atoms: C_16  and  C_17
REMARK    6  A    between atoms: C_20  and  C_21
REMARK    7  A    between atoms: C_21  and  O_22
REMARK    8  A    between atoms: C_21  and  C_23
REMARK                            x       y       z     vdW  Elec       q    Type
REMARK                         _______ _______ _______ _____ _____    ______ ____
ROOT
ATOM      1  C   UNL     1      -4.763  11.578  17.182  0.00  0.00    +0.000 A 
ATOM      2  C   UNL     1      -5.871  12.427  17.216  0.00  0.00    +0.000 A 
ATOM      3  C   UNL     1      -6.119  13.288  18.288  0.00  0.00    +0.000 A 
ATOM      4  C   UNL     1      -5.266  13.256  19.394  0.00  0.00    +0.000 A 
ATOM      5  C   UNL     1      -5.238  13.919  20.629  0.00  0.00    +0.000 A 
ATOM      6  N   UNL     1      -4.240  13.515  21.405  0.00  0.00    +0.000 NA
ATOM      7  N   UNL     1      -3.573  12.582  20.657  0.00  0.00    +0.000 N 
ATOM      8  C   UNL     1      -2.418  11.955  21.217  0.00  0.00    +0.000 A 
ATOM      9  C   UNL     1      -2.122  12.216  22.556  0.00  0.00    +0.000 A 
ATOM     10  N   UNL     1      -1.043  11.697  23.191  0.00  0.00    +0.000 NA
ATOM     11  C   UNL     1      -0.255  10.916  22.424  0.00  0.00    +0.000 A 
ATOM     12  C   UNL     1      -0.522  10.633  21.081  0.00  0.00    +0.000 A 
ATOM     13  N   UNL     1      -1.623  11.150  20.464  0.00  0.00    +0.000 NA
ATOM     14  C   UNL     1      -4.167  12.398  19.406  0.00  0.00    +0.000 A 
ATOM     15  C   UNL     1      -3.898  11.554  18.300  0.00  0.00    +0.000 A 
ENDROOT
BRANCH  12  16
ATOM     16  C   UNL     1       0.406   9.847  20.250  0.00  0.00    +0.000 A 
ATOM     17  C   UNL     1       0.559  10.092  18.873  0.00  0.00    +0.000 A 
ATOM     18  C   UNL     1       1.336   9.255  18.068  0.00  0.00    +0.000 A 
ATOM     19  C   UNL     1       1.993   8.148  18.618  0.00  0.00    +0.000 A 
ATOM     20  C   UNL     1       1.908   7.938  20.001  0.00  0.00    +0.000 A 
ATOM     21  C   UNL     1       1.125   8.775  20.801  0.00  0.00    +0.000 A 
BRANCH  19  22
ATOM     22  C   UNL     1       2.743   7.191  17.717  0.00  0.00    +0.000 C 
BRANCH  22  23
ATOM     23  C   UNL     1       2.529   5.693  18.068  0.00  0.00    +0.000 C 
ATOM     24  F   UNL     1       1.387   5.178  17.560  0.00  0.00    +0.000 F 
ATOM     25  F   UNL     1       3.550   4.934  17.605  0.00  0.00    +0.000 F 
ATOM     26  F   UNL     1       2.471   5.520  19.412  0.00  0.00    +0.000 F 
ENDBRANCH  22  23
BRANCH  22  27
ATOM     27  O   UNL     1       4.124   7.604  17.700  0.00  0.00    +0.000 OA
ATOM     28  H   UNL     1       4.654   6.859  18.034  0.00  0.00    +0.000 HD
ENDBRANCH  22  27
ENDBRANCH  19  22
ENDBRANCH  12  16
BRANCH   1  29
ATOM     29  N   UNL     1      -4.540  10.675  16.136  0.00  0.00    +0.000 N 
ATOM     30  H   UNL     1      -4.965   9.766  16.306  0.00  0.00    +0.000 HD
BRANCH  29  32
ATOM     31  C   UNL     1      -2.259   9.765  16.049  0.00  0.00    +0.000 C 
ATOM     32  C   UNL     1      -3.295  10.653  15.361  0.00  0.00    +0.000 C 
ATOM     33  C   UNL     1      -3.577  10.128  13.951  0.00  0.00    +0.000 C 
ENDBRANCH  29  32
ENDBRANCH   1  29
TORSDOF 6
ENDMDL
MODEL 9
REMARK VINA RESULT:      -7.2      8.457     10.670
REMARK  Name = 
REMARK  8 active torsions:
REMARK  status: ('A' for Active; 'I' for Inactive)
REMARK    1  A    between atoms: C_1  and  C_2
REMARK    2  A    between atoms: C_2  and  C_3
REMARK    3  A    between atoms: C_2  and  N_4
REMARK    4  A    between atoms: N_4  and  C_5
REMARK    5  A    between atoms: C_16  and  C_17
REMARK    6  A    between atoms: C_20  and  C_21
REMARK    7  A    between atoms: C_21  and  O_22
REMARK    8  A    between atoms: C_21  and  C_23
REMARK                            x       y       z     vdW  Elec       q    Type
REMARK                         _______ _______ _______ _____ _____    ______ ____
ROOT
ATOM      1  C   UNL     1      -4.811  11.718  17.655  0.00  0.00    +0.000 A 
ATOM      2  C   UNL     1      -6.163  11.371  17.675  0.00  0.00    +0.000 A 
ATOM      3  C   UNL     1      -6.949  11.498  18.823  0.00  0.00    +0.000 A 
ATOM      4  C   UNL     1      -6.351  11.928  20.010  0.00  0.00    +0.000 A 
ATOM      5  C   UNL     1      -6.803  12.119  21.322  0.00  0.00    +0.000 A 
ATOM      6  N   UNL     1      -5.837  12.498  22.149  0.00  0.00    +0.000 NA
ATOM      7  N   UNL     1      -4.720  12.589  21.361  0.00  0.00    +0.000 N 
ATOM      8  C   UNL     1      -3.491  12.996  21.961  0.00  0.00    +0.000 A 
ATOM      9  C   UNL     1      -3.458  13.129  23.350  0.00  0.00    +0.000 A 
ATOM     10  N   UNL     1      -2.357  13.528  24.032  0.00  0.00    +0.000 NA
ATOM     11  C   UNL     1      -1.285  13.809  23.262  0.00  0.00    +0.000 A 
ATOM     12  C   UNL     1      -1.282  13.685  21.870  0.00  0.00    +0.000 A 
ATOM     13  N   UNL     1      -2.395  13.265  21.203  0.00  0.00    +0.000 NA
ATOM     14  C   UNL     1      -4.995  12.255  20.032  0.00  0.00    +0.000 A 
ATOM     15  C   UNL     1      -4.210  12.161  18.856  0.00  0.00    +0.000 A 
ENDROOT
BRANCH  12  16
ATOM     16  C   UNL     1      -0.122  14.083  21.053  0.00  0.00    +0.000 A 
ATOM     17  C   UNL     1      -0.137  13.999  19.650  0.00  0.00    +0.000 A 
ATOM     18  C   UNL     1       1.012  14.247  18.894  0.00  0.00    +0.000 A 
ATOM     19  C   UNL     1       2.213  14.597  19.520  0.00  0.00    +0.000 A 
ATOM     20  C   UNL     1       2.222  14.757  20.913  0.00  0.00    +0.000 A 
ATOM     21  C   UNL     1       1.071  14.502  21.664  0.00  0.00    +0.000 A 
BRANCH  19  22
ATOM     22  C   UNL     1       3.474  14.759  18.699  0.00  0.00    +0.000 C 
BRANCH  22  23
ATOM     23  C   UNL     1       3.570  16.115  17.947  0.00  0.00    +0.000 C 
ATOM     24  F   UNL     1       2.615  17.001  18.309  0.00  0.00    +0.000 F 
ATOM     25  F   UNL     1       4.767  16.708  18.163  0.00  0.00    +0.000 F 
ATOM     26  F   UNL     1       3.443  15.930  16.608  0.00  0.00    +0.000 F 
ENDBRANCH  22  23
BRANCH  22  27
ATOM     27  O   UNL     1       3.587  13.601  17.848  0.00  0.00    +0.000 OA
ATOM     28  H   UNL     1       3.230  12.842  18.342  0.00  0.00    +0.000 HD
ENDBRANCH  22  27
ENDBRANCH  19  22
ENDBRANCH  12  16
BRANCH   1  29
ATOM     29  N   UNL     1      -4.006  11.541  16.523  0.00  0.00    +0.000 N 
ATOM     30  H   UNL     1      -4.291  12.131  15.744  0.00  0.00    +0.000 HD
BRANCH  29  32
ATOM     31  C   UNL     1      -3.238  10.162  14.640  0.00  0.00    +0.000 C 
ATOM     32  C   UNL     1      -3.437  10.241  16.153  0.00  0.00    +0.000 C 
ATOM     33  C   UNL     1      -2.095  10.046  16.864  0.00  0.00    +0.000 C 
ENDBRANCH  29  32
ENDBRANCH   1  29
TORSDOF 6
ENDMDL
