MODEL 1
REMARK VINA RESULT:      -6.8      0.000      0.000
REMARK  Name = 
REMARK  5 active torsions:
REMARK  status: ('A' for Active; 'I' for Inactive)
REMARK    1  A    between atoms: C_1  and  O_2
REMARK    2  A    between atoms: O_2  and  C_3
REMARK    3  A    between atoms: C_6  and  C_7
REMARK    4  A    between atoms: C_29  and  O_30
REMARK    5  A    between atoms: O_30  and  C_31
REMARK                            x       y       z     vdW  Elec       q    Type
REMARK                         _______ _______ _______ _____ _____    ______ ____
ROOT
ATOM      1  C   UNL     1      -0.950  12.167  19.812  0.00  0.00    +0.000 C 
ATOM      2  C   UNL     1      -0.170  13.273  19.164  0.00  0.00    +0.000 A 
ATOM      3  N   UNL     1      -0.792  14.284  18.457  0.00  0.00    +0.000 N 
ATOM      4  C   UNL     1      -0.062  15.451  18.575  0.00  0.00    +0.000 A 
ATOM      5  C   UNL     1      -0.415  16.777  18.289  0.00  0.00    +0.000 A 
ATOM      6  C   UNL     1       0.569  17.757  18.445  0.00  0.00    +0.000 A 
ATOM      7  C   UNL     1       1.857  17.420  18.854  0.00  0.00    +0.000 A 
ATOM      8  C   UNL     1       2.155  16.111  19.256  0.00  0.00    +0.000 A 
ATOM      9  C   UNL     1       1.163  15.119  19.160  0.00  0.00    +0.000 A 
ATOM     10  C   UNL     1       0.935  13.852  19.765  0.00  0.00    +0.000 A 
ATOM     11  C   UNL     1       1.256  13.373  21.153  0.00  0.00    +0.000 C 
ATOM     12  C   UNL     1      -0.116  13.283  21.945  0.00  0.00    +0.000 C 
ATOM     13  N   UNL     1      -1.216  12.662  21.166  0.00  0.00    +0.000 N 
ATOM     14  C   UNL     1      -2.541  12.788  21.530  0.00  0.00    +0.000 A 
ATOM     15  N   UNL     1      -3.469  12.761  20.564  0.00  0.00    +0.000 NA
ATOM     16  C   UNL     1      -4.750  12.689  20.932  0.00  0.00    +0.000 A 
ATOM     17 CL   UNL     1      -5.860  12.643  19.622  0.00  0.00    +0.000 Cl
ATOM     18  C   UNL     1      -5.181  12.631  22.219  0.00  0.00    +0.000 A 
ATOM     19  C   UNL     1      -4.160  12.688  23.123  0.00  0.00    +0.000 A 
ATOM     20 CL   UNL     1      -4.493  12.580  24.805  0.00  0.00    +0.000 Cl
ATOM     21  N   UNL     1      -2.853  12.790  22.830  0.00  0.00    +0.000 NA
ATOM     22  H   UNL     1      -1.762  14.260  18.176  0.00  0.00    +0.000 HD
ENDROOT
BRANCH   1  26
ATOM     23  C   UNL     1       1.313   8.455  20.293  0.00  0.00    +0.000 A 
ATOM     24  C   UNL     1       0.295   8.774  21.213  0.00  0.00    +0.000 A 
ATOM     25  C   UNL     1      -0.534   9.908  21.042  0.00  0.00    +0.000 A 
ATOM     26  C   UNL     1      -0.366  10.741  19.934  0.00  0.00    +0.000 A 
ATOM     27  C   UNL     1       0.600  10.337  18.983  0.00  0.00    +0.000 A 
ATOM     28  C   UNL     1       1.458   9.250  19.160  0.00  0.00    +0.000 A 
BRANCH  23  30
ATOM     29  C   UNL     1       1.700   6.119  20.575  0.00  0.00    +0.000 C 
ATOM     30  O   UNL     1       2.208   7.436  20.461  0.00  0.00    +0.000 OA
ENDBRANCH  23  30
BRANCH  28  31
ATOM     31  O   UNL     1       2.352   9.136  18.129  0.00  0.00    +0.000 OA
ATOM     32  C   UNL     1       2.460   7.896  17.450  0.00  0.00    +0.000 C 
ENDBRANCH  28  31
ENDBRANCH   1  26
TORSDOF 3
ENDMDL
MODEL 2
REMARK VINA RESULT:      -6.8      1.040      1.903
REMARK  Name = 
REMARK  5 active torsions:
REMARK  status: ('A' for Active; 'I' for Inactive)
REMARK    1  A    between atoms: C_1  and  O_2
REMARK    2  A    between atoms: O_2  and  C_3
REMARK    3  A    between atoms: C_6  and  C_7
REMARK    4  A    between atoms: C_29  and  O_30
REMARK    5  A    between atoms: O_30  and  C_31
REMARK                            x       y       z     vdW  Elec       q    Type
REMARK                         _______ _______ _______ _____ _____    ______ ____
ROOT
ATOM      1  C   UNL     1      -0.479  12.842  19.754  0.00  0.00    +0.000 C 
ATOM      2  C   UNL     1       0.103  14.078  19.133  0.00  0.00    +0.000 A 
ATOM      3  N   UNL     1      -0.674  14.969  18.419  0.00  0.00    +0.000 N 
ATOM      4  C   UNL     1      -0.170  16.247  18.563  0.00  0.00    +0.000 A 
ATOM      5  C   UNL     1      -0.750  17.491  18.278  0.00  0.00    +0.000 A 
ATOM      6  C   UNL     1       0.038  18.631  18.466  0.00  0.00    +0.000 A 
ATOM      7  C   UNL     1       1.355  18.526  18.905  0.00  0.00    +0.000 A 
ATOM      8  C   UNL     1       1.875  17.288  19.306  0.00  0.00    +0.000 A 
ATOM      9  C   UNL     1       1.081  16.134  19.178  0.00  0.00    +0.000 A 
ATOM     10  C   UNL     1       1.071  14.840  19.767  0.00  0.00    +0.000 A 
ATOM     11  C   UNL     1       1.440  14.411  21.159  0.00  0.00    +0.000 C 
ATOM     12  C   UNL     1       0.088  14.066  21.916  0.00  0.00    +0.000 C 
ATOM     13  N   UNL     1      -0.862  13.266  21.104  0.00  0.00    +0.000 N 
ATOM     14  C   UNL     1      -2.197  13.146  21.435  0.00  0.00    +0.000 A 
ATOM     15  N   UNL     1      -3.082  12.964  20.446  0.00  0.00    +0.000 NA
ATOM     16  C   UNL     1      -4.337  12.658  20.780  0.00  0.00    +0.000 A 
ATOM     17 CL   UNL     1      -5.389  12.428  19.442  0.00  0.00    +0.000 Cl
ATOM     18  C   UNL     1      -4.781  12.508  22.055  0.00  0.00    +0.000 A 
ATOM     19  C   UNL     1      -3.809  12.738  22.986  0.00  0.00    +0.000 A 
ATOM     20 CL   UNL     1      -4.157  12.552  24.657  0.00  0.00    +0.000 Cl
ATOM     21  N   UNL     1      -2.535  13.077  22.727  0.00  0.00    +0.000 NA
ATOM     22  H   UNL     1      -1.617  14.774  18.113  0.00  0.00    +0.000 HD
ENDROOT
BRANCH   1  26
ATOM     23  C   UNL     1       1.241   8.843  20.172  0.00  0.00    +0.000 A 
ATOM     24  C   UNL     1       1.394   9.543  18.960  0.00  0.00    +0.000 A 
ATOM     25  C   UNL     1       0.948  10.879  18.810  0.00  0.00    +0.000 A 
ATOM     26  C   UNL     1       0.349  11.544  19.881  0.00  0.00    +0.000 A 
ATOM     27  C   UNL     1       0.299  10.843  21.109  0.00  0.00    +0.000 A 
ATOM     28  C   UNL     1       0.689   9.511  21.261  0.00  0.00    +0.000 A 
BRANCH  23  30
ATOM     29  C   UNL     1       2.466   6.937  19.429  0.00  0.00    +0.000 C 
ATOM     30  O   UNL     1       1.556   7.524  20.342  0.00  0.00    +0.000 OA
ENDBRANCH  23  30
BRANCH  28  31
ATOM     31  O   UNL     1       0.454   9.056  22.530  0.00  0.00    +0.000 OA
ATOM     32  C   UNL     1      -0.444   9.773  23.361  0.00  0.00    +0.000 C 
ENDBRANCH  28  31
ENDBRANCH   1  26
TORSDOF 3
ENDMDL
MODEL 3
REMARK VINA RESULT:      -6.8      3.791      6.965
REMARK  Name = 
REMARK  5 active torsions:
REMARK  status: ('A' for Active; 'I' for Inactive)
REMARK    1  A    between atoms: C_1  and  O_2
REMARK    2  A    between atoms: O_2  and  C_3
REMARK    3  A    between atoms: C_6  and  C_7
REMARK    4  A    between atoms: C_29  and  O_30
REMARK    5  A    between atoms: O_30  and  C_31
REMARK                            x       y       z     vdW  Elec       q    Type
REMARK                         _______ _______ _______ _____ _____    ______ ____
ROOT
ATOM      1  C   UNL     1       0.420  11.804  18.851  0.00  0.00    +0.000 C 
ATOM      2  C   UNL     1       0.744  10.397  18.443  0.00  0.00    +0.000 A 
ATOM      3  N   UNL     1       1.791  10.110  17.590  0.00  0.00    +0.000 N 
ATOM      4  C   UNL     1       2.324   8.874  17.904  0.00  0.00    +0.000 A 
ATOM      5  C   UNL     1       3.538   8.285  17.528  0.00  0.00    +0.000 A 
ATOM      6  C   UNL     1       3.781   6.975  17.951  0.00  0.00    +0.000 A 
ATOM      7  C   UNL     1       2.837   6.279  18.703  0.00  0.00    +0.000 A 
ATOM      8  C   UNL     1       1.688   6.926  19.176  0.00  0.00    +0.000 A 
ATOM      9  C   UNL     1       1.450   8.263  18.809  0.00  0.00    +0.000 A 
ATOM     10  C   UNL     1       0.672   9.334  19.328  0.00  0.00    +0.000 A 
ATOM     11  C   UNL     1       0.339   9.683  20.751  0.00  0.00    +0.000 C 
ATOM     12  C   UNL     1       1.193  10.967  21.129  0.00  0.00    +0.000 C 
ATOM     13  N   UNL     1       1.198  12.011  20.075  0.00  0.00    +0.000 N 
ATOM     14  C   UNL     1       2.125  13.035  20.055  0.00  0.00    +0.000 A 
ATOM     15  N   UNL     1       2.475  13.549  18.868  0.00  0.00    +0.000 NA
ATOM     16  C   UNL     1       3.219  14.656  18.864  0.00  0.00    +0.000 A 
ATOM     17 CL   UNL     1       3.600  15.246  17.296  0.00  0.00    +0.000 Cl
ATOM     18  C   UNL     1       3.639  15.309  19.979  0.00  0.00    +0.000 A 
ATOM     19  C   UNL     1       3.249  14.691  21.132  0.00  0.00    +0.000 A 
ATOM     20 CL   UNL     1       3.639  15.385  22.654  0.00  0.00    +0.000 Cl
ATOM     21  N   UNL     1       2.527  13.561  21.216  0.00  0.00    +0.000 NA
ATOM     22  H   UNL     1       2.285  10.807  17.049  0.00  0.00    +0.000 HD
ENDROOT
BRANCH   1  26
ATOM     23  C   UNL     1      -3.805  12.366  19.834  0.00  0.00    +0.000 A 
ATOM     24  C   UNL     1      -2.818  13.007  20.608  0.00  0.00    +0.000 A 
ATOM     25  C   UNL     1      -1.446  12.942  20.268  0.00  0.00    +0.000 A 
ATOM     26  C   UNL     1      -1.035  12.241  19.134  0.00  0.00    +0.000 A 
ATOM     27  C   UNL     1      -2.061  11.691  18.328  0.00  0.00    +0.000 A 
ATOM     28  C   UNL     1      -3.413  11.704  18.673  0.00  0.00    +0.000 A 
BRANCH  23  30
ATOM     29  C   UNL     1      -5.496  12.692  21.483  0.00  0.00    +0.000 C 
ATOM     30  O   UNL     1      -5.128  12.307  20.170  0.00  0.00    +0.000 OA
ENDBRANCH  23  30
BRANCH  28  31
ATOM     31  O   UNL     1      -4.176  11.027  17.761  0.00  0.00    +0.000 OA
ATOM     32  C   UNL     1      -3.889  11.177  16.380  0.00  0.00    +0.000 C 
ENDBRANCH  28  31
ENDBRANCH   1  26
TORSDOF 3
ENDMDL
MODEL 4
REMARK VINA RESULT:      -6.7      3.433      5.422
REMARK  Name = 
REMARK  5 active torsions:
REMARK  status: ('A' for Active; 'I' for Inactive)
REMARK    1  A    between atoms: C_1  and  O_2
REMARK    2  A    between atoms: O_2  and  C_3
REMARK    3  A    between atoms: C_6  and  C_7
REMARK    4  A    between atoms: C_29  and  O_30
REMARK    5  A    between atoms: O_30  and  C_31
REMARK                            x       y       z     vdW  Elec       q    Type
REMARK                         _______ _______ _______ _____ _____    ______ ____
ROOT
ATOM      1  C   UNL     1      -1.161  12.766  20.466  0.00  0.00    +0.000 C 
ATOM      2  C   UNL     1      -0.634  14.142  20.747  0.00  0.00    +0.000 A 
ATOM      3  N   UNL     1       0.104  14.421  21.880  0.00  0.00    +0.000 N 
ATOM      4  C   UNL     1       1.015  15.424  21.609  0.00  0.00    +0.000 A 
ATOM      5  C   UNL     1       2.144  15.845  22.325  0.00  0.00    +0.000 A 
ATOM      6  C   UNL     1       2.848  16.947  21.832  0.00  0.00    +0.000 A 
ATOM      7  C   UNL     1       2.429  17.609  20.681  0.00  0.00    +0.000 A 
ATOM      8  C   UNL     1       1.376  17.097  19.911  0.00  0.00    +0.000 A 
ATOM      9  C   UNL     1       0.688  15.955  20.358  0.00  0.00    +0.000 A 
ATOM     10  C   UNL     1      -0.125  14.958  19.751  0.00  0.00    +0.000 A 
ATOM     11  C   UNL     1      -0.041  14.350  18.379  0.00  0.00    +0.000 C 
ATOM     12  C   UNL     1       0.520  12.876  18.554  0.00  0.00    +0.000 C 
ATOM     13  N   UNL     1      -0.101  12.131  19.677  0.00  0.00    +0.000 N 
ATOM     14  C   UNL     1       0.462  10.985  20.204  0.00  0.00    +0.000 A 
ATOM     15  N   UNL     1       0.247  10.712  21.498  0.00  0.00    +0.000 NA
ATOM     16  C   UNL     1       0.628   9.517  21.953  0.00  0.00    +0.000 A 
ATOM     17 CL   UNL     1       0.294   9.256  23.618  0.00  0.00    +0.000 Cl
ATOM     18  C   UNL     1       1.210   8.551  21.195  0.00  0.00    +0.000 A 
ATOM     19  C   UNL     1       1.404   8.939  19.901  0.00  0.00    +0.000 A 
ATOM     20 CL   UNL     1       2.085   7.843  18.767  0.00  0.00    +0.000 Cl
ATOM     21  N   UNL     1       1.076  10.132  19.378  0.00  0.00    +0.000 NA
ATOM     22  H   UNL     1       0.187  13.793  22.668  0.00  0.00    +0.000 HD
ENDROOT
BRANCH   1  26
ATOM     23  C   UNL     1      -4.909  11.512  18.591  0.00  0.00    +0.000 A 
ATOM     24  C   UNL     1      -4.932  12.474  19.620  0.00  0.00    +0.000 A 
ATOM     25  C   UNL     1      -3.741  12.989  20.185  0.00  0.00    +0.000 A 
ATOM     26  C   UNL     1      -2.498  12.557  19.720  0.00  0.00    +0.000 A 
ATOM     27  C   UNL     1      -2.513  11.665  18.622  0.00  0.00    +0.000 A 
ATOM     28  C   UNL     1      -3.676  11.111  18.085  0.00  0.00    +0.000 A 
BRANCH  23  30
ATOM     29  C   UNL     1      -6.791  10.095  18.950  0.00  0.00    +0.000 C 
ATOM     30  O   UNL     1      -6.022  10.906  18.081  0.00  0.00    +0.000 OA
ENDBRANCH  23  30
BRANCH  28  31
ATOM     31  O   UNL     1      -3.398  10.213  17.090  0.00  0.00    +0.000 OA
ATOM     32  C   UNL     1      -3.068  10.700  15.799  0.00  0.00    +0.000 C 
ENDBRANCH  28  31
ENDBRANCH   1  26
TORSDOF 3
ENDMDL
MODEL 5
REMARK VINA RESULT:      -6.6      2.473      3.101
REMARK  Name = 
REMARK  5 active torsions:
REMARK  status: ('A' for Active; 'I' for Inactive)
REMARK    1  A    between atoms: C_1  and  O_2
REMARK    2  A    between atoms: O_2  and  C_3
REMARK    3  A    between atoms: C_6  and  C_7
REMARK    4  A    between atoms: C_29  and  O_30
REMARK    5  A    between atoms: O_30  and  C_31
REMARK                            x       y       z     vdW  Elec       q    Type
REMARK                         _______ _______ _______ _____ _____    ______ ____
ROOT
ATOM      1  C   UNL     1      -1.245  14.022  21.254  0.00  0.00    +0.000 C 
ATOM      2  C   UNL     1      -0.793  14.719  20.004  0.00  0.00    +0.000 A 
ATOM      3  N   UNL     1      -1.401  15.875  19.556  0.00  0.00    +0.000 N 
ATOM      4  C   UNL     1      -0.474  16.668  18.906  0.00  0.00    +0.000 A 
ATOM      5  C   UNL     1      -0.531  18.019  18.539  0.00  0.00    +0.000 A 
ATOM      6  C   UNL     1       0.549  18.540  17.819  0.00  0.00    +0.000 A 
ATOM      7  C   UNL     1       1.631  17.736  17.469  0.00  0.00    +0.000 A 
ATOM      8  C   UNL     1       1.728  16.425  17.953  0.00  0.00    +0.000 A 
ATOM      9  C   UNL     1       0.679  15.897  18.727  0.00  0.00    +0.000 A 
ATOM     10  C   UNL     1       0.544  14.835  19.663  0.00  0.00    +0.000 A 
ATOM     11  C   UNL     1       1.528  14.302  20.666  0.00  0.00    +0.000 C 
ATOM     12  C   UNL     1       1.037  14.774  22.099  0.00  0.00    +0.000 C 
ATOM     13  N   UNL     1      -0.422  14.614  22.312  0.00  0.00    +0.000 N 
ATOM     14  C   UNL     1      -1.094  15.256  23.333  0.00  0.00    +0.000 A 
ATOM     15  N   UNL     1      -2.383  15.571  23.144  0.00  0.00    +0.000 NA
ATOM     16  C   UNL     1      -3.077  16.014  24.193  0.00  0.00    +0.000 A 
ATOM     17 CL   UNL     1      -4.721  16.374  23.853  0.00  0.00    +0.000 Cl
ATOM     18  C   UNL     1      -2.572  16.160  25.447  0.00  0.00    +0.000 A 
ATOM     19  C   UNL     1      -1.249  15.835  25.526  0.00  0.00    +0.000 A 
ATOM     20 CL   UNL     1      -0.435  15.906  27.037  0.00  0.00    +0.000 Cl
ATOM     21  N   UNL     1      -0.479  15.411  24.510  0.00  0.00    +0.000 NA
ATOM     22  H   UNL     1      -2.278  16.227  19.915  0.00  0.00    +0.000 HD
ENDROOT
BRANCH   1  26
ATOM     23  C   UNL     1      -0.350   9.742  21.370  0.00  0.00    +0.000 A 
ATOM     24  C   UNL     1      -0.545  10.446  22.575  0.00  0.00    +0.000 A 
ATOM     25  C   UNL     1      -0.940  11.805  22.587  0.00  0.00    +0.000 A 
ATOM     26  C   UNL     1      -1.159  12.485  21.388  0.00  0.00    +0.000 A 
ATOM     27  C   UNL     1      -1.047  11.721  20.202  0.00  0.00    +0.000 A 
ATOM     28  C   UNL     1      -0.613  10.395  20.169  0.00  0.00    +0.000 A 
BRANCH  23  30
ATOM     29  C   UNL     1       1.518   8.289  21.084  0.00  0.00    +0.000 C 
ATOM     30  O   UNL     1       0.129   8.464  21.297  0.00  0.00    +0.000 OA
ENDBRANCH  23  30
BRANCH  28  31
ATOM     31  O   UNL     1      -0.513   9.925  18.887  0.00  0.00    +0.000 OA
ATOM     32  C   UNL     1      -1.434  10.388  17.914  0.00  0.00    +0.000 C 
ENDBRANCH  28  31
ENDBRANCH   1  26
TORSDOF 3
ENDMDL
MODEL 6
REMARK VINA RESULT:      -6.5      2.961      4.047
REMARK  Name = 
REMARK  5 active torsions:
REMARK  status: ('A' for Active; 'I' for Inactive)
REMARK    1  A    between atoms: C_1  and  O_2
REMARK    2  A    between atoms: O_2  and  C_3
REMARK    3  A    between atoms: C_6  and  C_7
REMARK    4  A    between atoms: C_29  and  O_30
REMARK    5  A    between atoms: O_30  and  C_31
REMARK                            x       y       z     vdW  Elec       q    Type
REMARK                         _______ _______ _______ _____ _____    ______ ____
ROOT
ATOM      1  C   UNL     1      -1.579  13.077  19.945  0.00  0.00    +0.000 C 
ATOM      2  C   UNL     1      -0.192  13.648  19.892  0.00  0.00    +0.000 A 
ATOM      3  N   UNL     1       0.050  14.989  20.115  0.00  0.00    +0.000 N 
ATOM      4  C   UNL     1       1.294  15.148  20.696  0.00  0.00    +0.000 A 
ATOM      5  C   UNL     1       1.857  16.250  21.353  0.00  0.00    +0.000 A 
ATOM      6  C   UNL     1       3.183  16.139  21.784  0.00  0.00    +0.000 A 
ATOM      7  C   UNL     1       3.916  14.978  21.551  0.00  0.00    +0.000 A 
ATOM      8  C   UNL     1       3.299  13.844  21.008  0.00  0.00    +0.000 A 
ATOM      9  C   UNL     1       1.949  13.915  20.617  0.00  0.00    +0.000 A 
ATOM     10  C   UNL     1       0.907  12.974  20.394  0.00  0.00    +0.000 A 
ATOM     11  C   UNL     1       0.621  11.670  21.085  0.00  0.00    +0.000 C 
ATOM     12  C   UNL     1      -0.652  11.898  22.005  0.00  0.00    +0.000 C 
ATOM     13  N   UNL     1      -1.740  12.657  21.341  0.00  0.00    +0.000 N 
ATOM     14  C   UNL     1      -2.770  13.243  22.049  0.00  0.00    +0.000 A 
ATOM     15  N   UNL     1      -3.337  14.348  21.546  0.00  0.00    +0.000 NA
ATOM     16  C   UNL     1      -4.449  14.798  22.128  0.00  0.00    +0.000 A 
ATOM     17 CL   UNL     1      -5.107  16.208  21.400  0.00  0.00    +0.000 Cl
ATOM     18  C   UNL     1      -5.057  14.209  23.191  0.00  0.00    +0.000 A 
ATOM     19  C   UNL     1      -4.388  13.107  23.640  0.00  0.00    +0.000 A 
ATOM     20 CL   UNL     1      -5.020  12.191  24.948  0.00  0.00    +0.000 Cl
ATOM     21  N   UNL     1      -3.250  12.612  23.125  0.00  0.00    +0.000 NA
ATOM     22  H   UNL     1      -0.673  15.695  20.148  0.00  0.00    +0.000 HD
ENDROOT
BRANCH   1  26
ATOM     23  C   UNL     1      -2.867  10.215  16.898  0.00  0.00    +0.000 A 
ATOM     24  C   UNL     1      -1.534  10.193  17.356  0.00  0.00    +0.000 A 
ATOM     25  C   UNL     1      -1.097  11.026  18.413  0.00  0.00    +0.000 A 
ATOM     26  C   UNL     1      -1.992  11.892  19.043  0.00  0.00    +0.000 A 
ATOM     27  C   UNL     1      -3.341  11.818  18.622  0.00  0.00    +0.000 A 
ATOM     28  C   UNL     1      -3.780  11.039  17.550  0.00  0.00    +0.000 A 
BRANCH  23  30
ATOM     29  C   UNL     1      -3.102  10.062  14.530  0.00  0.00    +0.000 C 
ATOM     30  O   UNL     1      -3.319   9.512  15.817  0.00  0.00    +0.000 OA
ENDBRANCH  23  30
BRANCH  28  31
ATOM     31  O   UNL     1      -5.114  11.221  17.304  0.00  0.00    +0.000 OA
ATOM     32  C   UNL     1      -6.054  10.825  18.289  0.00  0.00    +0.000 C 
ENDBRANCH  28  31
ENDBRANCH   1  26
TORSDOF 3
ENDMDL
MODEL 7
REMARK VINA RESULT:      -6.5      3.673      6.849
REMARK  Name = 
REMARK  5 active torsions:
REMARK  status: ('A' for Active; 'I' for Inactive)
REMARK    1  A    between atoms: C_1  and  O_2
REMARK    2  A    between atoms: O_2  and  C_3
REMARK    3  A    between atoms: C_6  and  C_7
REMARK    4  A    between atoms: C_29  and  O_30
REMARK    5  A    between atoms: O_30  and  C_31
REMARK                            x       y       z     vdW  Elec       q    Type
REMARK                         _______ _______ _______ _____ _____    ______ ____
ROOT
ATOM      1  C   UNL     1      -2.233  13.397  20.698  0.00  0.00    +0.000 C 
ATOM      2  C   UNL     1      -1.715  12.044  20.304  0.00  0.00    +0.000 A 
ATOM      3  N   UNL     1      -0.987  11.853  19.146  0.00  0.00    +0.000 N 
ATOM      4  C   UNL     1      -0.080  10.828  19.330  0.00  0.00    +0.000 A 
ATOM      5  C   UNL     1       1.042  10.459  18.575  0.00  0.00    +0.000 A 
ATOM      6  C   UNL     1       1.743   9.317  18.972  0.00  0.00    +0.000 A 
ATOM      7  C   UNL     1       1.328   8.567  20.070  0.00  0.00    +0.000 A 
ATOM      8  C   UNL     1       0.284   9.022  20.886  0.00  0.00    +0.000 A 
ATOM      9  C   UNL     1      -0.401  10.199  20.537  0.00  0.00    +0.000 A 
ATOM     10  C   UNL     1      -1.204  11.149  21.228  0.00  0.00    +0.000 A 
ATOM     11  C   UNL     1      -1.108  11.645  22.643  0.00  0.00    +0.000 C 
ATOM     12  C   UNL     1      -0.539  13.125  22.582  0.00  0.00    +0.000 C 
ATOM     13  N   UNL     1      -1.164  13.961  21.528  0.00  0.00    +0.000 N 
ATOM     14  C   UNL     1      -0.598  15.142  21.090  0.00  0.00    +0.000 A 
ATOM     15  N   UNL     1      -0.820  15.520  19.824  0.00  0.00    +0.000 NA
ATOM     16  C   UNL     1      -0.435  16.745  19.462  0.00  0.00    +0.000 A 
ATOM     17 CL   UNL     1      -0.779  17.140  17.826  0.00  0.00    +0.000 Cl
ATOM     18  C   UNL     1       0.157  17.644  20.291  0.00  0.00    +0.000 A 
ATOM     19  C   UNL     1       0.358  17.152  21.548  0.00  0.00    +0.000 A 
ATOM     20 CL   UNL     1       1.053  18.151  22.761  0.00  0.00    +0.000 Cl
ATOM     21  N   UNL     1       0.027  15.923  21.977  0.00  0.00    +0.000 NA
ATOM     22  H   UNL     1      -0.906  12.542  18.411  0.00  0.00    +0.000 HD
ENDROOT
BRANCH   1  26
ATOM     23  C   UNL     1      -5.868  13.186  23.121  0.00  0.00    +0.000 A 
ATOM     24  C   UNL     1      -4.866  14.121  23.448  0.00  0.00    +0.000 A 
ATOM     25  C   UNL     1      -3.721  14.300  22.635  0.00  0.00    +0.000 A 
ATOM     26  C   UNL     1      -3.563  13.552  21.468  0.00  0.00    +0.000 A 
ATOM     27  C   UNL     1      -4.633  12.693  21.121  0.00  0.00    +0.000 A 
ATOM     28  C   UNL     1      -5.746  12.469  21.934  0.00  0.00    +0.000 A 
BRANCH  23  30
ATOM     29  C   UNL     1      -7.858  13.938  24.196  0.00  0.00    +0.000 C 
ATOM     30  O   UNL     1      -6.939  12.897  23.919  0.00  0.00    +0.000 OA
ENDBRANCH  23  30
BRANCH  28  31
ATOM     31  O   UNL     1      -6.584  11.527  21.400  0.00  0.00    +0.000 OA
ATOM     32  C   UNL     1      -7.488  11.915  20.379  0.00  0.00    +0.000 C 
ENDBRANCH  28  31
ENDBRANCH   1  26
TORSDOF 3
ENDMDL
MODEL 8
REMARK VINA RESULT:      -6.5      2.301      6.150
REMARK  Name = 
REMARK  5 active torsions:
REMARK  status: ('A' for Active; 'I' for Inactive)
REMARK    1  A    between atoms: C_1  and  O_2
REMARK    2  A    between atoms: O_2  and  C_3
REMARK    3  A    between atoms: C_6  and  C_7
REMARK    4  A    between atoms: C_29  and  O_30
REMARK    5  A    between atoms: O_30  and  C_31
REMARK                            x       y       z     vdW  Elec       q    Type
REMARK                         _______ _______ _______ _____ _____    ______ ____
ROOT
ATOM      1  C   UNL     1      -0.611  13.174  20.763  0.00  0.00    +0.000 C 
ATOM      2  C   UNL     1       0.360  12.034  20.669  0.00  0.00    +0.000 A 
ATOM      3  N   UNL     1       0.431  11.057  21.643  0.00  0.00    +0.000 N 
ATOM      4  C   UNL     1       0.802   9.855  21.071  0.00  0.00    +0.000 A 
ATOM      5  C   UNL     1       0.735   8.549  21.575  0.00  0.00    +0.000 A 
ATOM      6  C   UNL     1       1.255   7.522  20.782  0.00  0.00    +0.000 A 
ATOM      7  C   UNL     1       1.833   7.795  19.545  0.00  0.00    +0.000 A 
ATOM      8  C   UNL     1       1.776   9.086  19.004  0.00  0.00    +0.000 A 
ATOM      9  C   UNL     1       1.207  10.125  19.761  0.00  0.00    +0.000 A 
ATOM     10  C   UNL     1       0.645  11.400  19.472  0.00  0.00    +0.000 A 
ATOM     11  C   UNL     1      -0.148  11.856  18.280  0.00  0.00    +0.000 C 
ATOM     12  C   UNL     1      -1.655  12.010  18.751  0.00  0.00    +0.000 C 
ATOM     13  N   UNL     1      -1.804  12.687  20.063  0.00  0.00    +0.000 N 
ATOM     14  C   UNL     1      -2.971  12.624  20.799  0.00  0.00    +0.000 A 
ATOM     15  N   UNL     1      -2.884  12.699  22.133  0.00  0.00    +0.000 NA
ATOM     16  C   UNL     1      -4.016  12.831  22.825  0.00  0.00    +0.000 A 
ATOM     17 CL   UNL     1      -3.799  12.936  24.526  0.00  0.00    +0.000 Cl
ATOM     18  C   UNL     1      -5.255  12.906  22.272  0.00  0.00    +0.000 A 
ATOM     19  C   UNL     1      -5.235  12.795  20.911  0.00  0.00    +0.000 A 
ATOM     20 CL   UNL     1      -6.696  12.912  20.017  0.00  0.00    +0.000 Cl
ATOM     21  N   UNL     1      -4.140  12.631  20.150  0.00  0.00    +0.000 NA
ATOM     22  H   UNL     1      -0.015  11.128  22.547  0.00  0.00    +0.000 HD
ENDROOT
BRANCH   1  26
ATOM     23  C   UNL     1       0.558  16.776  18.575  0.00  0.00    +0.000 A 
ATOM     24  C   UNL     1      -0.792  16.583  18.928  0.00  0.00    +0.000 A 
ATOM     25  C   UNL     1      -1.204  15.488  19.725  0.00  0.00    +0.000 A 
ATOM     26  C   UNL     1      -0.265  14.569  20.196  0.00  0.00    +0.000 A 
ATOM     27  C   UNL     1       1.091  14.848  19.903  0.00  0.00    +0.000 A 
ATOM     28  C   UNL     1       1.509  15.894  19.079  0.00  0.00    +0.000 A 
BRANCH  23  30
ATOM     29  C   UNL     1       0.068  18.302  16.810  0.00  0.00    +0.000 C 
ATOM     30  O   UNL     1       0.998  17.752  17.725  0.00  0.00    +0.000 OA
ENDBRANCH  23  30
BRANCH  28  31
ATOM     31  O   UNL     1       2.866  15.881  18.892  0.00  0.00    +0.000 OA
ATOM     32  C   UNL     1       3.404  15.119  17.824  0.00  0.00    +0.000 C 
ENDBRANCH  28  31
ENDBRANCH   1  26
TORSDOF 3
ENDMDL
MODEL 9
REMARK VINA RESULT:      -6.5      2.923      4.295
REMARK  Name = 
REMARK  5 active torsions:
REMARK  status: ('A' for Active; 'I' for Inactive)
REMARK    1  A    between atoms: C_1  and  O_2
REMARK    2  A    between atoms: O_2  and  C_3
REMARK    3  A    between atoms: C_6  and  C_7
REMARK    4  A    between atoms: C_29  and  O_30
REMARK    5  A    between atoms: O_30  and  C_31
REMARK                            x       y       z     vdW  Elec       q    Type
REMARK                         _______ _______ _______ _____ _____    ______ ____
ROOT
ATOM      1  C   UNL     1      -2.592  13.444  20.816  0.00  0.00    +0.000 C 
ATOM      2  C   UNL     1      -2.129  14.523  21.752  0.00  0.00    +0.000 A 
ATOM      3  N   UNL     1      -2.683  15.788  21.733  0.00  0.00    +0.000 N 
ATOM      4  C   UNL     1      -2.656  16.327  23.005  0.00  0.00    +0.000 A 
ATOM      5  C   UNL     1      -3.335  17.430  23.540  0.00  0.00    +0.000 A 
ATOM      6  C   UNL     1      -3.053  17.785  24.862  0.00  0.00    +0.000 A 
ATOM      7  C   UNL     1      -2.117  17.075  25.610  0.00  0.00    +0.000 A 
ATOM      8  C   UNL     1      -1.544  15.902  25.102  0.00  0.00    +0.000 A 
ATOM      9  C   UNL     1      -1.856  15.494  23.793  0.00  0.00    +0.000 A 
ATOM     10  C   UNL     1      -1.805  14.268  23.073  0.00  0.00    +0.000 A 
ATOM     11  C   UNL     1      -2.032  12.861  23.548  0.00  0.00    +0.000 C 
ATOM     12  C   UNL     1      -3.439  12.396  22.978  0.00  0.00    +0.000 C 
ATOM     13  N   UNL     1      -3.656  12.760  21.556  0.00  0.00    +0.000 N 
ATOM     14  C   UNL     1      -4.908  12.752  20.975  0.00  0.00    +0.000 A 
ATOM     15  N   UNL     1      -5.146  13.607  19.972  0.00  0.00    +0.000 NA
ATOM     16  C   UNL     1      -6.284  13.466  19.290  0.00  0.00    +0.000 A 
ATOM     17 CL   UNL     1      -6.489  14.597  18.014  0.00  0.00    +0.000 Cl
ATOM     18  C   UNL     1      -7.217  12.508  19.533  0.00  0.00    +0.000 A 
ATOM     19  C   UNL     1      -6.889  11.706  20.588  0.00  0.00    +0.000 A 
ATOM     20 CL   UNL     1      -7.916  10.401  21.028  0.00  0.00    +0.000 Cl
ATOM     21  N   UNL     1      -5.779  11.805  21.339  0.00  0.00    +0.000 NA
ATOM     22  H   UNL     1      -3.287  16.128  20.998  0.00  0.00    +0.000 HD
ENDROOT
BRANCH   1  26
ATOM     23  C   UNL     1       0.130  10.748  18.706  0.00  0.00    +0.000 A 
ATOM     24  C   UNL     1       0.618  11.546  19.759  0.00  0.00    +0.000 A 
ATOM     25  C   UNL     1      -0.242  12.355  20.540  0.00  0.00    +0.000 A 
ATOM     26  C   UNL     1      -1.614  12.370  20.288  0.00  0.00    +0.000 A 
ATOM     27  C   UNL     1      -2.080  11.484  19.288  0.00  0.00    +0.000 A 
ATOM     28  C   UNL     1      -1.243  10.717  18.476  0.00  0.00    +0.000 A 
BRANCH  23  30
ATOM     29  C   UNL     1       1.701   8.981  18.401  0.00  0.00    +0.000 C 
ATOM     30  O   UNL     1       0.922  10.030  17.855  0.00  0.00    +0.000 OA
ENDBRANCH  23  30
BRANCH  28  31
ATOM     31  O   UNL     1      -1.950  10.018  17.535  0.00  0.00    +0.000 OA
ATOM     32  C   UNL     1      -3.364   9.974  17.632  0.00  0.00    +0.000 C 
ENDBRANCH  28  31
ENDBRANCH   1  26
TORSDOF 3
ENDMDL
