MODEL 1
REMARK VINA RESULT:      -8.3      0.000      0.000
REMARK  Name = 
REMARK  5 active torsions:
REMARK  status: ('A' for Active; 'I' for Inactive)
REMARK    1  A    between atoms: C_1  and  N_2
REMARK    2  A    between atoms: C_9  and  C_10
REMARK    3  A    between atoms: C_13  and  O_14
REMARK    4  A    between atoms: O_14  and  C_15
REMARK    5  A    between atoms: C_21  and  C_22
REMARK                            x       y       z     vdW  Elec       q    Type
REMARK                         _______ _______ _______ _____ _____    ______ ____
ROOT
ATOM      1  C   UNL     1       1.517   8.478  20.088  0.00  0.00    +0.000 A 
ATOM      2  C   UNL     1       1.836   8.913  18.794  0.00  0.00    +0.000 A 
ATOM      3  C   UNL     1       2.510   8.074  17.898  0.00  0.00    +0.000 A 
ATOM      4  C   UNL     1       2.888   6.772  18.260  0.00  0.00    +0.000 A 
ATOM      5  C   UNL     1       2.542   6.307  19.528  0.00  0.00    +0.000 A 
ATOM      6  C   UNL     1       1.889   7.166  20.427  0.00  0.00    +0.000 A 
ENDROOT
BRANCH   1  15
ATOM      7  C   UNL     1      -3.955  15.924  22.741  0.00  0.00    +0.000 C 
ATOM      8  N   UNL     1      -3.420  14.605  22.515  0.00  0.00    +0.000 N 
ATOM      9  C   UNL     1      -3.965  13.427  22.927  0.00  0.00    +0.000 A 
ATOM     10  C   UNL     1      -3.092  12.454  22.506  0.00  0.00    +0.000 A 
ATOM     11  C   UNL     1      -2.043  13.145  21.851  0.00  0.00    +0.000 A 
ATOM     12  N   UNL     1      -0.981  12.553  21.271  0.00  0.00    +0.000 N 
ATOM     13  C   UNL     1      -0.384  11.346  21.676  0.00  0.00    +0.000 A 
ATOM     14  C   UNL     1       0.299  10.587  20.727  0.00  0.00    +0.000 A 
ATOM     15  C   UNL     1       0.806   9.325  21.067  0.00  0.00    +0.000 A 
ATOM     16  C   UNL     1       0.622   8.897  22.389  0.00  0.00    +0.000 A 
ATOM     17  C   UNL     1      -0.026   9.724  23.283  0.00  0.00    +0.000 A 
ATOM     18  N   UNL     1      -0.536  10.919  22.947  0.00  0.00    +0.000 NA
ATOM     19  N   UNL     1      -2.274  14.462  21.820  0.00  0.00    +0.000 NA
ATOM     20  H   UNL     1      -0.310  13.186  20.856  0.00  0.00    +0.000 HD
ENDBRANCH   1  15
BRANCH   5  21
ATOM     21  C   UNL     1       2.776   4.977  19.995  0.00  0.00    +0.000 C 
ATOM     22  N   UNL     1       2.981   3.913  20.409  0.00  0.00    +0.000 NA
ENDBRANCH   5  21
BRANCH   4  23
ATOM     23  O   UNL     1       3.507   6.089  17.250  0.00  0.00    +0.000 OA
BRANCH  23  24
ATOM     24  C   UNL     1       4.891   5.718  17.358  0.00  0.00    +0.000 C 
ATOM     25  C   UNL     1       5.821   6.937  17.366  0.00  0.00    +0.000 C 
ATOM     26  C   UNL     1       7.267   6.544  17.109  0.00  0.00    +0.000 C 
ATOM     27  O   UNL     1       7.378   5.771  15.919  0.00  0.00    +0.000 OA
ATOM     28  C   UNL     1       6.669   4.539  16.021  0.00  0.00    +0.000 C 
ATOM     29  C   UNL     1       5.182   4.802  16.166  0.00  0.00    +0.000 C 
ENDBRANCH  23  24
ENDBRANCH   4  23
TORSDOF 4
ENDMDL
MODEL 2
REMARK VINA RESULT:      -8.2      1.454      2.191
REMARK  Name = 
REMARK  5 active torsions:
REMARK  status: ('A' for Active; 'I' for Inactive)
REMARK    1  A    between atoms: C_1  and  N_2
REMARK    2  A    between atoms: C_9  and  C_10
REMARK    3  A    between atoms: C_13  and  O_14
REMARK    4  A    between atoms: O_14  and  C_15
REMARK    5  A    between atoms: C_21  and  C_22
REMARK                            x       y       z     vdW  Elec       q    Type
REMARK                         _______ _______ _______ _____ _____    ______ ____
ROOT
ATOM      1  C   UNL     1       1.797   8.706  19.015  0.00  0.00    +0.000 A 
ATOM      2  C   UNL     1       2.531   8.601  17.825  0.00  0.00    +0.000 A 
ATOM      3  C   UNL     1       3.240   7.433  17.518  0.00  0.00    +0.000 A 
ATOM      4  C   UNL     1       3.242   6.330  18.385  0.00  0.00    +0.000 A 
ATOM      5  C   UNL     1       2.484   6.400  19.553  0.00  0.00    +0.000 A 
ATOM      6  C   UNL     1       1.797   7.586  19.863  0.00  0.00    +0.000 A 
ENDROOT
BRANCH   1  15
ATOM      7  C   UNL     1      -3.685  14.067  24.815  0.00  0.00    +0.000 C 
ATOM      8  N   UNL     1      -2.624  13.569  23.976  0.00  0.00    +0.000 N 
ATOM      9  C   UNL     1      -1.476  14.223  23.648  0.00  0.00    +0.000 A 
ATOM     10  C   UNL     1      -0.796  13.370  22.813  0.00  0.00    +0.000 A 
ATOM     11  C   UNL     1      -1.619  12.223  22.693  0.00  0.00    +0.000 A 
ATOM     12  N   UNL     1      -1.308  11.130  21.970  0.00  0.00    +0.000 N 
ATOM     13  C   UNL     1      -0.530  11.108  20.798  0.00  0.00    +0.000 A 
ATOM     14  C   UNL     1       0.157   9.939  20.476  0.00  0.00    +0.000 A 
ATOM     15  C   UNL     1       1.033   9.916  19.381  0.00  0.00    +0.000 A 
ATOM     16  C   UNL     1       1.148  11.095  18.630  0.00  0.00    +0.000 A 
ATOM     17  C   UNL     1       0.401  12.198  18.986  0.00  0.00    +0.000 A 
ATOM     18  N   UNL     1      -0.414  12.226  20.052  0.00  0.00    +0.000 NA
ATOM     19  N   UNL     1      -2.719  12.334  23.446  0.00  0.00    +0.000 NA
ATOM     20  H   UNL     1      -2.008  10.400  21.973  0.00  0.00    +0.000 HD
ENDBRANCH   1  15
BRANCH   5  21
ATOM     21  C   UNL     1       2.315   5.323  20.476  0.00  0.00    +0.000 C 
ATOM     22  N   UNL     1       2.206   4.427  21.203  0.00  0.00    +0.000 NA
ENDBRANCH   5  21
BRANCH   4  23
ATOM     23  O   UNL     1       3.960   5.269  17.908  0.00  0.00    +0.000 OA
BRANCH  23  24
ATOM     24  C   UNL     1       5.259   5.468  17.326  0.00  0.00    +0.000 C 
ATOM     25  C   UNL     1       5.610   4.381  16.303  0.00  0.00    +0.000 C 
ATOM     26  C   UNL     1       7.093   4.377  15.971  0.00  0.00    +0.000 C 
ATOM     27  O   UNL     1       7.878   4.294  17.157  0.00  0.00    +0.000 OA
ATOM     28  C   UNL     1       7.685   5.429  17.997  0.00  0.00    +0.000 C 
ATOM     29  C   UNL     1       6.252   5.477  18.492  0.00  0.00    +0.000 C 
ENDBRANCH  23  24
ENDBRANCH   4  23
TORSDOF 4
ENDMDL
MODEL 3
REMARK VINA RESULT:      -8.2      1.071      1.387
REMARK  Name = 
REMARK  5 active torsions:
REMARK  status: ('A' for Active; 'I' for Inactive)
REMARK    1  A    between atoms: C_1  and  N_2
REMARK    2  A    between atoms: C_9  and  C_10
REMARK    3  A    between atoms: C_13  and  O_14
REMARK    4  A    between atoms: O_14  and  C_15
REMARK    5  A    between atoms: C_21  and  C_22
REMARK                            x       y       z     vdW  Elec       q    Type
REMARK                         _______ _______ _______ _____ _____    ______ ____
ROOT
ATOM      1  C   UNL     1       1.730   7.975  19.843  0.00  0.00    +0.000 A 
ATOM      2  C   UNL     1       2.242   8.219  18.560  0.00  0.00    +0.000 A 
ATOM      3  C   UNL     1       2.936   7.223  17.862  0.00  0.00    +0.000 A 
ATOM      4  C   UNL     1       3.144   5.951  18.416  0.00  0.00    +0.000 A 
ATOM      5  C   UNL     1       2.607   5.677  19.673  0.00  0.00    +0.000 A 
ATOM      6  C   UNL     1       1.934   6.691  20.375  0.00  0.00    +0.000 A 
ENDROOT
BRANCH   1  15
ATOM      7  C   UNL     1      -3.221  16.148  20.903  0.00  0.00    +0.000 C 
ATOM      8  N   UNL     1      -2.804  14.769  20.892  0.00  0.00    +0.000 N 
ATOM      9  C   UNL     1      -3.521  13.702  21.341  0.00  0.00    +0.000 A 
ATOM     10  C   UNL     1      -2.708  12.610  21.152  0.00  0.00    +0.000 A 
ATOM     11  C   UNL     1      -1.514  13.121  20.587  0.00  0.00    +0.000 A 
ATOM     12  N   UNL     1      -0.454  12.372  20.229  0.00  0.00    +0.000 N 
ATOM     13  C   UNL     1      -0.048  11.171  20.838  0.00  0.00    +0.000 A 
ATOM     14  C   UNL     1       0.669  10.247  20.080  0.00  0.00    +0.000 A 
ATOM     15  C   UNL     1       0.990   8.993  20.617  0.00  0.00    +0.000 A 
ATOM     16  C   UNL     1       0.588   8.741  21.936  0.00  0.00    +0.000 A 
ATOM     17  C   UNL     1      -0.081   9.722  22.638  0.00  0.00    +0.000 A 
ATOM     18  N   UNL     1      -0.412  10.911  22.111  0.00  0.00    +0.000 NA
ATOM     19  N   UNL     1      -1.598  14.442  20.388  0.00  0.00    +0.000 NA
ATOM     20  H   UNL     1       0.329  12.889  19.852  0.00  0.00    +0.000 HD
ENDBRANCH   1  15
BRANCH   5  21
ATOM     21  C   UNL     1       2.656   4.403  20.316  0.00  0.00    +0.000 C 
ATOM     22  N   UNL     1       2.667   3.354  20.812  0.00  0.00    +0.000 NA
ENDBRANCH   5  21
BRANCH   4  23
ATOM     23  O   UNL     1       3.812   5.100  17.581  0.00  0.00    +0.000 OA
BRANCH  23  24
ATOM     24  C   UNL     1       5.126   5.428  17.099  0.00  0.00    +0.000 C 
ATOM     25  C   UNL     1       5.570   4.513  15.953  0.00  0.00    +0.000 C 
ATOM     26  C   UNL     1       7.065   4.613  15.699  0.00  0.00    +0.000 C 
ATOM     27  O   UNL     1       7.799   4.392  16.899  0.00  0.00    +0.000 OA
ATOM     28  C   UNL     1       7.518   5.388  17.880  0.00  0.00    +0.000 C 
ATOM     29  C   UNL     1       6.064   5.310  18.303  0.00  0.00    +0.000 C 
ENDBRANCH  23  24
ENDBRANCH   4  23
TORSDOF 4
ENDMDL
MODEL 4
REMARK VINA RESULT:      -8.2      1.596      2.218
REMARK  Name = 
REMARK  5 active torsions:
REMARK  status: ('A' for Active; 'I' for Inactive)
REMARK    1  A    between atoms: C_1  and  N_2
REMARK    2  A    between atoms: C_9  and  C_10
REMARK    3  A    between atoms: C_13  and  O_14
REMARK    4  A    between atoms: O_14  and  C_15
REMARK    5  A    between atoms: C_21  and  C_22
REMARK                            x       y       z     vdW  Elec       q    Type
REMARK                         _______ _______ _______ _____ _____    ______ ____
ROOT
ATOM      1  C   UNL     1       1.995   7.903  19.139  0.00  0.00    +0.000 A 
ATOM      2  C   UNL     1       2.765   7.670  17.991  0.00  0.00    +0.000 A 
ATOM      3  C   UNL     1       3.434   6.453  17.808  0.00  0.00    +0.000 A 
ATOM      4  C   UNL     1       3.358   5.427  18.762  0.00  0.00    +0.000 A 
ATOM      5  C   UNL     1       2.564   5.624  19.890  0.00  0.00    +0.000 A 
ATOM      6  C   UNL     1       1.918   6.858  20.076  0.00  0.00    +0.000 A 
ENDROOT
BRANCH   1  15
ATOM      7  C   UNL     1      -3.222  14.053  24.371  0.00  0.00    +0.000 C 
ATOM      8  N   UNL     1      -2.193  13.432  23.577  0.00  0.00    +0.000 N 
ATOM      9  C   UNL     1      -1.035  14.010  23.155  0.00  0.00    +0.000 A 
ATOM     10  C   UNL     1      -0.395  13.047  22.414  0.00  0.00    +0.000 A 
ATOM     11  C   UNL     1      -1.250  11.918  22.442  0.00  0.00    +0.000 A 
ATOM     12  N   UNL     1      -0.984  10.740  21.845  0.00  0.00    +0.000 N 
ATOM     13  C   UNL     1      -0.231  10.560  20.671  0.00  0.00    +0.000 A 
ATOM     14  C   UNL     1       0.419   9.343  20.475  0.00  0.00    +0.000 A 
ATOM     15  C   UNL     1       1.271   9.168  19.375  0.00  0.00    +0.000 A 
ATOM     16  C   UNL     1       1.402  10.248  18.491  0.00  0.00    +0.000 A 
ATOM     17  C   UNL     1       0.692  11.407  18.728  0.00  0.00    +0.000 A 
ATOM     18  N   UNL     1      -0.100  11.580  19.798  0.00  0.00    +0.000 NA
ATOM     19  N   UNL     1      -2.331  12.147  23.196  0.00  0.00    +0.000 NA
ATOM     20  H   UNL     1      -1.703  10.036  21.946  0.00  0.00    +0.000 HD
ENDBRANCH   1  15
BRANCH   5  21
ATOM     21  C   UNL     1       2.318   4.636  20.892  0.00  0.00    +0.000 C 
ATOM     22  N   UNL     1       2.158   3.821  21.701  0.00  0.00    +0.000 NA
ENDBRANCH   5  21
BRANCH   4  23
ATOM     23  O   UNL     1       4.047   4.302  18.401  0.00  0.00    +0.000 OA
BRANCH  23  24
ATOM     24  C   UNL     1       5.484   4.291  18.408  0.00  0.00    +0.000 C 
ATOM     25  C   UNL     1       6.071   5.435  19.241  0.00  0.00    +0.000 C 
ATOM     26  C   UNL     1       7.549   5.643  18.952  0.00  0.00    +0.000 C 
ATOM     27  O   UNL     1       7.774   5.804  17.555  0.00  0.00    +0.000 OA
ATOM     28  C   UNL     1       7.410   4.637  16.824  0.00  0.00    +0.000 C 
ATOM     29  C   UNL     1       5.918   4.388  16.943  0.00  0.00    +0.000 C 
ENDBRANCH  23  24
ENDBRANCH   4  23
TORSDOF 4
ENDMDL
MODEL 5
REMARK VINA RESULT:      -8.2      2.932      3.402
REMARK  Name = 
REMARK  5 active torsions:
REMARK  status: ('A' for Active; 'I' for Inactive)
REMARK    1  A    between atoms: C_1  and  N_2
REMARK    2  A    between atoms: C_9  and  C_10
REMARK    3  A    between atoms: C_13  and  O_14
REMARK    4  A    between atoms: O_14  and  C_15
REMARK    5  A    between atoms: C_21  and  C_22
REMARK                            x       y       z     vdW  Elec       q    Type
REMARK                         _______ _______ _______ _____ _____    ______ ____
ROOT
ATOM      1  C   UNL     1       1.609   8.565  18.627  0.00  0.00    +0.000 A 
ATOM      2  C   UNL     1       2.591   8.416  17.638  0.00  0.00    +0.000 A 
ATOM      3  C   UNL     1       3.439   7.301  17.627  0.00  0.00    +0.000 A 
ATOM      4  C   UNL     1       3.336   6.297  18.601  0.00  0.00    +0.000 A 
ATOM      5  C   UNL     1       2.338   6.406  19.568  0.00  0.00    +0.000 A 
ATOM      6  C   UNL     1       1.511   7.541  19.584  0.00  0.00    +0.000 A 
ENDROOT
BRANCH   1  15
ATOM      7  C   UNL     1      -6.736  13.078  17.075  0.00  0.00    +0.000 C 
ATOM      8  N   UNL     1      -5.565  12.494  17.677  0.00  0.00    +0.000 N 
ATOM      9  C   UNL     1      -5.235  12.518  18.998  0.00  0.00    +0.000 A 
ATOM     10  C   UNL     1      -4.031  11.864  19.086  0.00  0.00    +0.000 A 
ATOM     11  C   UNL     1      -3.710  11.484  17.759  0.00  0.00    +0.000 A 
ATOM     12  N   UNL     1      -2.606  10.798  17.405  0.00  0.00    +0.000 N 
ATOM     13  C   UNL     1      -1.357  10.852  18.049  0.00  0.00    +0.000 A 
ATOM     14  C   UNL     1      -0.510   9.749  17.956  0.00  0.00    +0.000 A 
ATOM     15  C   UNL     1       0.691   9.721  18.679  0.00  0.00    +0.000 A 
ATOM     16  C   UNL     1       0.998  10.850  19.452  0.00  0.00    +0.000 A 
ATOM     17  C   UNL     1       0.130  11.921  19.458  0.00  0.00    +0.000 A 
ATOM     18  N   UNL     1      -1.032  11.933  18.788  0.00  0.00    +0.000 NA
ATOM     19  N   UNL     1      -4.678  11.835  16.906  0.00  0.00    +0.000 NA
ATOM     20  H   UNL     1      -2.514  10.616  16.414  0.00  0.00    +0.000 HD
ENDBRANCH   1  15
BRANCH   5  21
ATOM     21  C   UNL     1       2.056   5.415  20.557  0.00  0.00    +0.000 C 
ATOM     22  N   UNL     1       1.866   4.596  21.356  0.00  0.00    +0.000 NA
ENDBRANCH   5  21
BRANCH   4  23
ATOM     23  O   UNL     1       4.222   5.272  18.415  0.00  0.00    +0.000 OA
BRANCH  23  24
ATOM     24  C   UNL     1       5.564   5.535  17.972  0.00  0.00    +0.000 C 
ATOM     25  C   UNL     1       6.032   4.536  16.908  0.00  0.00    +0.000 C 
ATOM     26  C   UNL     1       7.539   4.582  16.716  0.00  0.00    +0.000 C 
ATOM     27  O   UNL     1       8.214   4.421  17.960  0.00  0.00    +0.000 OA
ATOM     28  C   UNL     1       7.918   5.485  18.861  0.00  0.00    +0.000 C 
ATOM     29  C   UNL     1       6.445   5.472  19.223  0.00  0.00    +0.000 C 
ENDBRANCH  23  24
ENDBRANCH   4  23
TORSDOF 4
ENDMDL
MODEL 6
REMARK VINA RESULT:      -8.0      1.336      1.513
REMARK  Name = 
REMARK  5 active torsions:
REMARK  status: ('A' for Active; 'I' for Inactive)
REMARK    1  A    between atoms: C_1  and  N_2
REMARK    2  A    between atoms: C_9  and  C_10
REMARK    3  A    between atoms: C_13  and  O_14
REMARK    4  A    between atoms: O_14  and  C_15
REMARK    5  A    between atoms: C_21  and  C_22
REMARK                            x       y       z     vdW  Elec       q    Type
REMARK                         _______ _______ _______ _____ _____    ______ ____
ROOT
ATOM      1  C   UNL     1       1.955   7.512  19.847  0.00  0.00    +0.000 A 
ATOM      2  C   UNL     1       2.418   7.644  18.530  0.00  0.00    +0.000 A 
ATOM      3  C   UNL     1       2.993   6.558  17.858  0.00  0.00    +0.000 A 
ATOM      4  C   UNL     1       3.126   5.305  18.474  0.00  0.00    +0.000 A 
ATOM      5  C   UNL     1       2.634   5.143  19.768  0.00  0.00    +0.000 A 
ATOM      6  C   UNL     1       2.082   6.245  20.442  0.00  0.00    +0.000 A 
ENDROOT
BRANCH   1  15
ATOM      7  C   UNL     1      -2.472  16.007  20.654  0.00  0.00    +0.000 C 
ATOM      8  N   UNL     1      -2.126  14.610  20.722  0.00  0.00    +0.000 N 
ATOM      9  C   UNL     1      -2.850  13.623  21.319  0.00  0.00    +0.000 A 
ATOM     10  C   UNL     1      -2.113  12.477  21.151  0.00  0.00    +0.000 A 
ATOM     11  C   UNL     1      -0.952  12.874  20.442  0.00  0.00    +0.000 A 
ATOM     12  N   UNL     1       0.033  12.041  20.057  0.00  0.00    +0.000 N 
ATOM     13  C   UNL     1       0.434  10.870  20.726  0.00  0.00    +0.000 A 
ATOM     14  C   UNL     1       1.033   9.851  19.987  0.00  0.00    +0.000 A 
ATOM     15  C   UNL     1       1.340   8.627  20.596  0.00  0.00    +0.000 A 
ATOM     16  C   UNL     1       1.049   8.502  21.962  0.00  0.00    +0.000 A 
ATOM     17  C   UNL     1       0.496   9.571  22.636  0.00  0.00    +0.000 A 
ATOM     18  N   UNL     1       0.177  10.731  22.043  0.00  0.00    +0.000 NA
ATOM     19  N   UNL     1      -0.989  14.177  20.143  0.00  0.00    +0.000 NA
ATOM     20  H   UNL     1       0.802  12.481  19.571  0.00  0.00    +0.000 HD
ENDBRANCH   1  15
BRANCH   5  21
ATOM     21  C   UNL     1       2.613   3.904  20.479  0.00  0.00    +0.000 C 
ATOM     22  N   UNL     1       2.616   2.880  21.023  0.00  0.00    +0.000 NA
ENDBRANCH   5  21
BRANCH   4  23
ATOM     23  O   UNL     1       3.680   4.358  17.657  0.00  0.00    +0.000 OA
BRANCH  23  24
ATOM     24  C   UNL     1       5.106   4.189  17.594  0.00  0.00    +0.000 C 
ATOM     25  C   UNL     1       5.843   5.093  18.589  0.00  0.00    +0.000 C 
ATOM     26  C   UNL     1       7.326   5.188  18.272  0.00  0.00    +0.000 C 
ATOM     27  O   UNL     1       7.531   5.575  16.917  0.00  0.00    +0.000 OA
ATOM     28  C   UNL     1       7.016   4.605  16.008  0.00  0.00    +0.000 C 
ATOM     29  C   UNL     1       5.509   4.503  16.151  0.00  0.00    +0.000 C 
ENDBRANCH  23  24
ENDBRANCH   4  23
TORSDOF 4
ENDMDL
MODEL 7
REMARK VINA RESULT:      -7.9      1.704      2.344
REMARK  Name = 
REMARK  5 active torsions:
REMARK  status: ('A' for Active; 'I' for Inactive)
REMARK    1  A    between atoms: C_1  and  N_2
REMARK    2  A    between atoms: C_9  and  C_10
REMARK    3  A    between atoms: C_13  and  O_14
REMARK    4  A    between atoms: O_14  and  C_15
REMARK    5  A    between atoms: C_21  and  C_22
REMARK                            x       y       z     vdW  Elec       q    Type
REMARK                         _______ _______ _______ _____ _____    ______ ____
ROOT
ATOM      1  C   UNL     1       1.568   8.588  19.035  0.00  0.00    +0.000 A 
ATOM      2  C   UNL     1       2.397   8.512  17.907  0.00  0.00    +0.000 A 
ATOM      3  C   UNL     1       3.206   7.391  17.683  0.00  0.00    +0.000 A 
ATOM      4  C   UNL     1       3.216   6.307  18.573  0.00  0.00    +0.000 A 
ATOM      5  C   UNL     1       2.367   6.346  19.679  0.00  0.00    +0.000 A 
ATOM      6  C   UNL     1       1.579   7.486  19.907  0.00  0.00    +0.000 A 
ENDROOT
BRANCH   1  15
ATOM      7  C   UNL     1      -1.510  16.063  24.238  0.00  0.00    +0.000 C 
ATOM      8  N   UNL     1      -0.994  15.220  23.190  0.00  0.00    +0.000 N 
ATOM      9  C   UNL     1      -0.633  15.612  21.937  0.00  0.00    +0.000 A 
ATOM     10  C   UNL     1      -0.233  14.465  21.296  0.00  0.00    +0.000 A 
ATOM     11  C   UNL     1      -0.392  13.426  22.246  0.00  0.00    +0.000 A 
ATOM     12  N   UNL     1      -0.092  12.132  22.023  0.00  0.00    +0.000 N 
ATOM     13  C   UNL     1      -0.165  11.468  20.786  0.00  0.00    +0.000 A 
ATOM     14  C   UNL     1       0.658  10.363  20.572  0.00  0.00    +0.000 A 
ATOM     15  C   UNL     1       0.696   9.747  19.313  0.00  0.00    +0.000 A 
ATOM     16  C   UNL     1      -0.142  10.272  18.319  0.00  0.00    +0.000 A 
ATOM     17  C   UNL     1      -0.960  11.341  18.620  0.00  0.00    +0.000 A 
ATOM     18  N   UNL     1      -0.973  11.946  19.817  0.00  0.00    +0.000 NA
ATOM     19  N   UNL     1      -0.817  13.904  23.421  0.00  0.00    +0.000 NA
ATOM     20  H   UNL     1      -0.276  11.510  22.799  0.00  0.00    +0.000 HD
ENDBRANCH   1  15
BRANCH   5  21
ATOM     21  C   UNL     1       2.202   5.277  20.612  0.00  0.00    +0.000 C 
ATOM     22  N   UNL     1       2.100   4.390  21.352  0.00  0.00    +0.000 NA
ENDBRANCH   5  21
BRANCH   4  23
ATOM     23  O   UNL     1       4.040   5.290  18.178  0.00  0.00    +0.000 OA
BRANCH  23  24
ATOM     24  C   UNL     1       5.357   5.569  17.675  0.00  0.00    +0.000 C 
ATOM     25  C   UNL     1       5.705   4.715  16.451  0.00  0.00    +0.000 C 
ATOM     26  C   UNL     1       7.195   4.738  16.152  0.00  0.00    +0.000 C 
ATOM     27  O   UNL     1       7.949   4.382  17.307  0.00  0.00    +0.000 OA
ATOM     28  C   UNL     1       7.765   5.318  18.365  0.00  0.00    +0.000 C 
ATOM     29  C   UNL     1       6.322   5.302  18.833  0.00  0.00    +0.000 C 
ENDBRANCH  23  24
ENDBRANCH   4  23
TORSDOF 4
ENDMDL
MODEL 8
REMARK VINA RESULT:      -7.9      3.352      4.472
REMARK  Name = 
REMARK  5 active torsions:
REMARK  status: ('A' for Active; 'I' for Inactive)
REMARK    1  A    between atoms: C_1  and  N_2
REMARK    2  A    between atoms: C_9  and  C_10
REMARK    3  A    between atoms: C_13  and  O_14
REMARK    4  A    between atoms: O_14  and  C_15
REMARK    5  A    between atoms: C_21  and  C_22
REMARK                            x       y       z     vdW  Elec       q    Type
REMARK                         _______ _______ _______ _____ _____    ______ ____
ROOT
ATOM      1  C   UNL     1       1.741   8.491  18.736  0.00  0.00    +0.000 A 
ATOM      2  C   UNL     1       1.783   7.695  19.889  0.00  0.00    +0.000 A 
ATOM      3  C   UNL     1       2.661   6.608  19.981  0.00  0.00    +0.000 A 
ATOM      4  C   UNL     1       3.527   6.277  18.929  0.00  0.00    +0.000 A 
ATOM      5  C   UNL     1       3.530   7.082  17.790  0.00  0.00    +0.000 A 
ATOM      6  C   UNL     1       2.627   8.154  17.698  0.00  0.00    +0.000 A 
ENDROOT
BRANCH   1  15
ATOM      7  C   UNL     1      -6.750  12.696  17.108  0.00  0.00    +0.000 C 
ATOM      8  N   UNL     1      -5.508  12.255  17.690  0.00  0.00    +0.000 N 
ATOM      9  C   UNL     1      -5.008  12.618  18.904  0.00  0.00    +0.000 A 
ATOM     10  C   UNL     1      -3.801  11.972  19.010  0.00  0.00    +0.000 A 
ATOM     11  C   UNL     1      -3.655  11.244  17.803  0.00  0.00    +0.000 A 
ATOM     12  N   UNL     1      -2.605  10.454  17.507  0.00  0.00    +0.000 N 
ATOM     13  C   UNL     1      -1.282  10.637  17.949  0.00  0.00    +0.000 A 
ATOM     14  C   UNL     1      -0.451   9.522  18.047  0.00  0.00    +0.000 A 
ATOM     15  C   UNL     1       0.834   9.648  18.593  0.00  0.00    +0.000 A 
ATOM     16  C   UNL     1       1.236  10.931  18.992  0.00  0.00    +0.000 A 
ATOM     17  C   UNL     1       0.373  11.993  18.822  0.00  0.00    +0.000 A 
ATOM     18  N   UNL     1      -0.867  11.864  18.326  0.00  0.00    +0.000 NA
ATOM     19  N   UNL     1      -4.728  11.387  17.017  0.00  0.00    +0.000 NA
ATOM     20  H   UNL     1      -2.642  10.013  16.597  0.00  0.00    +0.000 HD
ENDBRANCH   1  15
BRANCH   5  21
ATOM     21  C   UNL     1       4.422   6.923  16.687  0.00  0.00    +0.000 C 
ATOM     22  N   UNL     1       5.175   6.776  15.816  0.00  0.00    +0.000 NA
ENDBRANCH   5  21
BRANCH   4  23
ATOM     23  O   UNL     1       4.333   5.208  19.207  0.00  0.00    +0.000 OA
BRANCH  23  24
ATOM     24  C   UNL     1       3.836   3.865  19.081  0.00  0.00    +0.000 C 
ATOM     25  C   UNL     1       3.255   3.588  17.690  0.00  0.00    +0.000 C 
ATOM     26  C   UNL     1       2.413   2.323  17.672  0.00  0.00    +0.000 C 
ATOM     27  O   UNL     1       1.416   2.364  18.689  0.00  0.00    +0.000 OA
ATOM     28  C   UNL     1       1.993   2.411  19.991  0.00  0.00    +0.000 C 
ATOM     29  C   UNL     1       2.774   3.699  20.172  0.00  0.00    +0.000 C 
ENDBRANCH  23  24
ENDBRANCH   4  23
TORSDOF 4
ENDMDL
MODEL 9
REMARK VINA RESULT:      -7.8      4.128     10.261
REMARK  Name = 
REMARK  5 active torsions:
REMARK  status: ('A' for Active; 'I' for Inactive)
REMARK    1  A    between atoms: C_1  and  N_2
REMARK    2  A    between atoms: C_9  and  C_10
REMARK    3  A    between atoms: C_13  and  O_14
REMARK    4  A    between atoms: O_14  and  C_15
REMARK    5  A    between atoms: C_21  and  C_22
REMARK                            x       y       z     vdW  Elec       q    Type
REMARK                         _______ _______ _______ _____ _____    ______ ____
ROOT
ATOM      1  C   UNL     1       0.435  10.230  21.002  0.00  0.00    +0.000 A 
ATOM      2  C   UNL     1      -0.369   9.851  22.086  0.00  0.00    +0.000 A 
ATOM      3  C   UNL     1      -0.990  10.812  22.893  0.00  0.00    +0.000 A 
ATOM      4  C   UNL     1      -0.829  12.184  22.650  0.00  0.00    +0.000 A 
ATOM      5  C   UNL     1      -0.067  12.581  21.552  0.00  0.00    +0.000 A 
ATOM      6  C   UNL     1       0.570  11.608  20.764  0.00  0.00    +0.000 A 
ENDROOT
BRANCH   1  15
ATOM      7  C   UNL     1       3.855   1.540  18.719  0.00  0.00    +0.000 C 
ATOM      8  N   UNL     1       3.133   2.787  18.738  0.00  0.00    +0.000 N 
ATOM      9  C   UNL     1       2.233   3.217  17.810  0.00  0.00    +0.000 A 
ATOM     10  C   UNL     1       1.836   4.461  18.236  0.00  0.00    +0.000 A 
ATOM     11  C   UNL     1       2.557   4.699  19.432  0.00  0.00    +0.000 A 
ATOM     12  N   UNL     1       2.445   5.810  20.186  0.00  0.00    +0.000 N 
ATOM     13  C   UNL     1       2.141   7.100  19.716  0.00  0.00    +0.000 A 
ATOM     14  C   UNL     1       1.528   8.000  20.587  0.00  0.00    +0.000 A 
ATOM     15  C   UNL     1       1.107   9.254  20.121  0.00  0.00    +0.000 A 
ATOM     16  C   UNL     1       1.360   9.554  18.775  0.00  0.00    +0.000 A 
ATOM     17  C   UNL     1       2.011   8.628  17.987  0.00  0.00    +0.000 A 
ATOM     18  N   UNL     1       2.387   7.418  18.428  0.00  0.00    +0.000 NA
ATOM     19  N   UNL     1       3.317   3.648  19.758  0.00  0.00    +0.000 NA
ATOM     20  H   UNL     1       3.039   5.835  21.004  0.00  0.00    +0.000 HD
ENDBRANCH   1  15
BRANCH   5  21
ATOM     21  C   UNL     1       0.101  13.934  21.128  0.00  0.00    +0.000 C 
ATOM     22  N   UNL     1       0.205  15.045  20.808  0.00  0.00    +0.000 NA
ENDBRANCH   5  21
BRANCH   4  23
ATOM     23  O   UNL     1      -1.532  12.973  23.518  0.00  0.00    +0.000 OA
BRANCH  23  24
ATOM     24  C   UNL     1      -2.887  13.353  23.229  0.00  0.00    +0.000 C 
ATOM     25  C   UNL     1      -3.863  12.901  24.321  0.00  0.00    +0.000 C 
ATOM     26  C   UNL     1      -5.307  12.971  23.850  0.00  0.00    +0.000 C 
ATOM     27  O   UNL     1      -5.476  12.260  22.628  0.00  0.00    +0.000 OA
ATOM     28  C   UNL     1      -4.710  12.835  21.573  0.00  0.00    +0.000 C 
ATOM     29  C   UNL     1      -3.229  12.719  21.878  0.00  0.00    +0.000 C 
ENDBRANCH  23  24
ENDBRANCH   4  23
TORSDOF 4
ENDMDL
