MODEL 1
REMARK VINA RESULT:      -7.2      0.000      0.000
REMARK  Name = 
REMARK  8 active torsions:
REMARK  status: ('A' for Active; 'I' for Inactive)
REMARK    1  A    between atoms: C_1  and  C_2
REMARK    2  A    between atoms: C_5  and  C_6
REMARK    3  A    between atoms: N_8  and  C_9
REMARK    4  A    between atoms: C_9  and  C_10
REMARK    5  A    between atoms: C_10  and  C_11
REMARK    6  A    between atoms: C_10  and  C_13
REMARK    7  A    between atoms: C_11  and  O_12
REMARK    8  A    between atoms: C_13  and  C_14
REMARK                            x       y       z     vdW  Elec       q    Type
REMARK                         _______ _______ _______ _____ _____    ______ ____
ROOT
ATOM      1  C   UNL     1       3.834   2.790  19.034  0.00  0.00    +0.000 C 
ENDROOT
BRANCH   1   4
ATOM      2  C   UNL     1       5.376   4.169  17.698  0.00  0.00    +0.000 C 
ATOM      3  O   UNL     1       5.720   4.833  18.667  0.00  0.00    +0.000 OA
ATOM      4  N   UNL     1       4.458   3.147  17.779  0.00  0.00    +0.000 N 
ATOM      5  H   UNL     1       4.320   2.526  16.993  0.00  0.00    +0.000 HD
BRANCH   2  10
ATOM      6  C   UNL     1       7.924   5.349  12.730  0.00  0.00    +0.000 C 
ATOM      7  C   UNL     1       7.241   4.963  14.005  0.00  0.00    +0.000 A 
ATOM      8  C   UNL     1       6.264   3.970  14.027  0.00  0.00    +0.000 A 
ATOM      9  C   UNL     1       5.629   3.675  15.232  0.00  0.00    +0.000 A 
ATOM     10  C   UNL     1       5.993   4.384  16.380  0.00  0.00    +0.000 A 
ATOM     11  C   UNL     1       6.975   5.353  16.270  0.00  0.00    +0.000 A 
ATOM     12  N   UNL     1       7.611   5.651  15.112  0.00  0.00    +0.000 NA
ENDBRANCH   2  10
ENDBRANCH   1   4
BRANCH   1  13
ATOM     13  C   UNL     1       2.518   3.557  19.287  0.00  0.00    +0.000 C 
BRANCH  13  14
ATOM     14  C   UNL     1       1.336   2.615  19.561  0.00  0.00    +0.000 C 
BRANCH  14  15
ATOM     15  O   UNL     1       1.305   1.527  18.652  0.00  0.00    +0.000 OA
ATOM     16  H   UNL     1       2.043   1.675  18.019  0.00  0.00    +0.000 HD
ENDBRANCH  14  15
ENDBRANCH  13  14
BRANCH  13  17
ATOM     17  C   UNL     1       2.669   4.604  20.429  0.00  0.00    +0.000 C 
BRANCH  17  18
ATOM     18  C   UNL     1       2.567   6.059  19.940  0.00  0.00    +0.000 C 
ATOM     19  C   UNL     1       1.441   6.874  20.586  0.00  0.00    +0.000 C 
ATOM     20  C   UNL     1       1.664   8.356  20.252  0.00  0.00    +0.000 C 
ATOM     21  C   UNL     1       1.792   8.621  18.747  0.00  0.00    +0.000 C 
ATOM     22  C   UNL     1       2.706   7.638  18.018  0.00  0.00    +0.000 C 
ATOM     23  C   UNL     1       2.427   6.194  18.415  0.00  0.00    +0.000 C 
ENDBRANCH  17  18
ENDBRANCH  13  17
ENDBRANCH   1  13
TORSDOF 7
ENDMDL
MODEL 2
REMARK VINA RESULT:      -7.0      1.275      1.442
REMARK  Name = 
REMARK  8 active torsions:
REMARK  status: ('A' for Active; 'I' for Inactive)
REMARK    1  A    between atoms: C_1  and  C_2
REMARK    2  A    between atoms: C_5  and  C_6
REMARK    3  A    between atoms: N_8  and  C_9
REMARK    4  A    between atoms: C_9  and  C_10
REMARK    5  A    between atoms: C_10  and  C_11
REMARK    6  A    between atoms: C_10  and  C_13
REMARK    7  A    between atoms: C_11  and  O_12
REMARK    8  A    between atoms: C_13  and  C_14
REMARK                            x       y       z     vdW  Elec       q    Type
REMARK                         _______ _______ _______ _____ _____    ______ ____
ROOT
ATOM      1  C   UNL     1       3.887   2.360  19.714  0.00  0.00    +0.000 C 
ENDROOT
BRANCH   1   4
ATOM      2  C   UNL     1       5.254   3.870  18.330  0.00  0.00    +0.000 C 
ATOM      3  O   UNL     1       5.631   4.517  19.297  0.00  0.00    +0.000 OA
ATOM      4  N   UNL     1       4.400   2.797  18.434  0.00  0.00    +0.000 N 
ATOM      5  H   UNL     1       4.240   2.197  17.636  0.00  0.00    +0.000 HD
BRANCH   2  10
ATOM      6  C   UNL     1       7.547   5.194  13.274  0.00  0.00    +0.000 C 
ATOM      7  C   UNL     1       6.893   4.797  14.561  0.00  0.00    +0.000 A 
ATOM      8  C   UNL     1       5.559   4.395  14.597  0.00  0.00    +0.000 A 
ATOM      9  C   UNL     1       4.984   4.075  15.825  0.00  0.00    +0.000 A 
ATOM     10  C   UNL     1       5.763   4.165  16.981  0.00  0.00    +0.000 A 
ATOM     11  C   UNL     1       7.081   4.571  16.855  0.00  0.00    +0.000 A 
ATOM     12  N   UNL     1       7.662   4.880  15.672  0.00  0.00    +0.000 NA
ENDBRANCH   2  10
ENDBRANCH   1   4
BRANCH   1  13
ATOM     13  C   UNL     1       2.348   2.248  19.734  0.00  0.00    +0.000 C 
BRANCH  13  14
ATOM     14  C   UNL     1       1.775   2.327  21.157  0.00  0.00    +0.000 C 
BRANCH  14  15
ATOM     15  O   UNL     1       2.793   2.513  22.128  0.00  0.00    +0.000 OA
ATOM     16  H   UNL     1       3.535   2.963  21.666  0.00  0.00    +0.000 HD
ENDBRANCH  14  15
ENDBRANCH  13  14
BRANCH  13  17
ATOM     17  C   UNL     1       1.678   3.304  18.808  0.00  0.00    +0.000 C 
BRANCH  17  18
ATOM     18  C   UNL     1       2.029   4.754  19.182  0.00  0.00    +0.000 C 
ATOM     19  C   UNL     1       1.099   5.390  20.221  0.00  0.00    +0.000 C 
ATOM     20  C   UNL     1       1.750   6.686  20.724  0.00  0.00    +0.000 C 
ATOM     21  C   UNL     1       2.117   7.654  19.593  0.00  0.00    +0.000 C 
ATOM     22  C   UNL     1       2.809   6.989  18.405  0.00  0.00    +0.000 C 
ATOM     23  C   UNL     1       2.106   5.705  17.978  0.00  0.00    +0.000 C 
ENDBRANCH  17  18
ENDBRANCH  13  17
ENDBRANCH   1  13
TORSDOF 7
ENDMDL
MODEL 3
REMARK VINA RESULT:      -7.0      0.930      1.477
REMARK  Name = 
REMARK  8 active torsions:
REMARK  status: ('A' for Active; 'I' for Inactive)
REMARK    1  A    between atoms: C_1  and  C_2
REMARK    2  A    between atoms: C_5  and  C_6
REMARK    3  A    between atoms: N_8  and  C_9
REMARK    4  A    between atoms: C_9  and  C_10
REMARK    5  A    between atoms: C_10  and  C_11
REMARK    6  A    between atoms: C_10  and  C_13
REMARK    7  A    between atoms: C_11  and  O_12
REMARK    8  A    between atoms: C_13  and  C_14
REMARK                            x       y       z     vdW  Elec       q    Type
REMARK                         _______ _______ _______ _____ _____    ______ ____
ROOT
ATOM      1  C   UNL     1       3.161   3.246  18.985  0.00  0.00    +0.000 C 
ENDROOT
BRANCH   1   4
ATOM      2  C   UNL     1       5.175   4.092  17.849  0.00  0.00    +0.000 C 
ATOM      3  O   UNL     1       5.770   4.273  18.902  0.00  0.00    +0.000 OA
ATOM      4  N   UNL     1       3.894   3.593  17.788  0.00  0.00    +0.000 N 
ATOM      5  H   UNL     1       3.501   3.312  16.900  0.00  0.00    +0.000 HD
BRANCH   2  10
ATOM      6  C   UNL     1       7.915   5.366  13.007  0.00  0.00    +0.000 C 
ATOM      7  C   UNL     1       7.179   4.957  14.246  0.00  0.00    +0.000 A 
ATOM      8  C   UNL     1       6.156   4.013  14.197  0.00  0.00    +0.000 A 
ATOM      9  C   UNL     1       5.473   3.697  15.370  0.00  0.00    +0.000 A 
ATOM     10  C   UNL     1       5.838   4.334  16.558  0.00  0.00    +0.000 A 
ATOM     11  C   UNL     1       6.869   5.259  16.518  0.00  0.00    +0.000 A 
ATOM     12  N   UNL     1       7.550   5.576  15.392  0.00  0.00    +0.000 NA
ENDBRANCH   2  10
ENDBRANCH   1   4
BRANCH   1  13
ATOM     13  C   UNL     1       1.969   4.191  19.251  0.00  0.00    +0.000 C 
BRANCH  13  14
ATOM     14  C   UNL     1       0.772   3.459  19.875  0.00  0.00    +0.000 C 
BRANCH  14  15
ATOM     15  O   UNL     1       1.027   3.073  21.215  0.00  0.00    +0.000 OA
ATOM     16  H   UNL     1       1.966   3.304  21.395  0.00  0.00    +0.000 HD
ENDBRANCH  14  15
ENDBRANCH  13  14
BRANCH  13  17
ATOM     17  C   UNL     1       2.383   5.416  20.117  0.00  0.00    +0.000 C 
BRANCH  17  18
ATOM     18  C   UNL     1       1.934   6.762  19.524  0.00  0.00    +0.000 C 
ATOM     19  C   UNL     1       2.826   7.295  18.397  0.00  0.00    +0.000 C 
ATOM     20  C   UNL     1       2.089   8.448  17.701  0.00  0.00    +0.000 C 
ATOM     21  C   UNL     1       1.645   9.550  18.670  0.00  0.00    +0.000 C 
ATOM     22  C   UNL     1       0.992   9.029  19.948  0.00  0.00    +0.000 C 
ATOM     23  C   UNL     1       1.779   7.880  20.567  0.00  0.00    +0.000 C 
ENDBRANCH  17  18
ENDBRANCH  13  17
ENDBRANCH   1  13
TORSDOF 7
ENDMDL
MODEL 4
REMARK VINA RESULT:      -6.8      3.294      7.422
REMARK  Name = 
REMARK  8 active torsions:
REMARK  status: ('A' for Active; 'I' for Inactive)
REMARK    1  A    between atoms: C_1  and  C_2
REMARK    2  A    between atoms: C_5  and  C_6
REMARK    3  A    between atoms: N_8  and  C_9
REMARK    4  A    between atoms: C_9  and  C_10
REMARK    5  A    between atoms: C_10  and  C_11
REMARK    6  A    between atoms: C_10  and  C_13
REMARK    7  A    between atoms: C_11  and  O_12
REMARK    8  A    between atoms: C_13  and  C_14
REMARK                            x       y       z     vdW  Elec       q    Type
REMARK                         _______ _______ _______ _____ _____    ______ ____
ROOT
ATOM      1  C   UNL     1       3.534   7.460  17.317  0.00  0.00    +0.000 C 
ENDROOT
BRANCH   1   4
ATOM      2  C   UNL     1       1.926   8.956  18.430  0.00  0.00    +0.000 C 
ATOM      3  O   UNL     1       1.713   9.591  17.407  0.00  0.00    +0.000 OA
ATOM      4  N   UNL     1       2.802   7.896  18.485  0.00  0.00    +0.000 N 
ATOM      5  H   UNL     1       2.830   7.304  19.304  0.00  0.00    +0.000 HD
BRANCH   2  10
ATOM      6  C   UNL     1      -0.996  10.482  23.090  0.00  0.00    +0.000 C 
ATOM      7  C   UNL     1      -0.235  10.003  21.892  0.00  0.00    +0.000 A 
ATOM      8  C   UNL     1       0.513   8.828  21.936  0.00  0.00    +0.000 A 
ATOM      9  C   UNL     1       1.237   8.446  20.808  0.00  0.00    +0.000 A 
ATOM     10  C   UNL     1       1.189   9.252  19.669  0.00  0.00    +0.000 A 
ATOM     11  C   UNL     1       0.418  10.403  19.709  0.00  0.00    +0.000 A 
ATOM     12  N   UNL     1      -0.298  10.788  20.791  0.00  0.00    +0.000 NA
ENDBRANCH   2  10
ENDBRANCH   1   4
BRANCH   1  13
ATOM     13  C   UNL     1       3.962   5.979  17.399  0.00  0.00    +0.000 C 
BRANCH  13  14
ATOM     14  C   UNL     1       5.226   5.690  16.575  0.00  0.00    +0.000 C 
BRANCH  14  15
ATOM     15  O   UNL     1       5.492   6.718  15.635  0.00  0.00    +0.000 OA
ATOM     16  H   UNL     1       4.620   7.107  15.399  0.00  0.00    +0.000 HD
ENDBRANCH  14  15
ENDBRANCH  13  14
BRANCH  13  17
ATOM     17  C   UNL     1       4.140   5.508  18.872  0.00  0.00    +0.000 C 
BRANCH  17  18
ATOM     18  C   UNL     1       3.104   4.457  19.305  0.00  0.00    +0.000 C 
ATOM     19  C   UNL     1       2.040   4.133  18.250  0.00  0.00    +0.000 C 
ATOM     20  C   UNL     1       1.293   2.866  18.689  0.00  0.00    +0.000 C 
ATOM     21  C   UNL     1       0.706   2.973  20.102  0.00  0.00    +0.000 C 
ATOM     22  C   UNL     1       1.668   3.560  21.132  0.00  0.00    +0.000 C 
ATOM     23  C   UNL     1       2.375   4.806  20.613  0.00  0.00    +0.000 C 
ENDBRANCH  17  18
ENDBRANCH  13  17
ENDBRANCH   1  13
TORSDOF 7
ENDMDL
MODEL 5
REMARK VINA RESULT:      -6.7      2.497      6.334
REMARK  Name = 
REMARK  8 active torsions:
REMARK  status: ('A' for Active; 'I' for Inactive)
REMARK    1  A    between atoms: C_1  and  C_2
REMARK    2  A    between atoms: C_5  and  C_6
REMARK    3  A    between atoms: N_8  and  C_9
REMARK    4  A    between atoms: C_9  and  C_10
REMARK    5  A    between atoms: C_10  and  C_11
REMARK    6  A    between atoms: C_10  and  C_13
REMARK    7  A    between atoms: C_11  and  O_12
REMARK    8  A    between atoms: C_13  and  C_14
REMARK                            x       y       z     vdW  Elec       q    Type
REMARK                         _______ _______ _______ _____ _____    ______ ____
ROOT
ATOM      1  C   UNL     1       4.552   5.316  18.181  0.00  0.00    +0.000 C 
ENDROOT
BRANCH   1   4
ATOM      2  C   UNL     1       2.819   6.740  19.196  0.00  0.00    +0.000 C 
ATOM      3  O   UNL     1       2.732   6.034  20.191  0.00  0.00    +0.000 OA
ATOM      4  N   UNL     1       3.681   6.470  18.158  0.00  0.00    +0.000 N 
ATOM      5  H   UNL     1       3.834   7.158  17.434  0.00  0.00    +0.000 HD
BRANCH   2  10
ATOM      6  C   UNL     1      -0.346  11.490  19.137  0.00  0.00    +0.000 C 
ATOM      7  C   UNL     1       0.524  10.272  19.086  0.00  0.00    +0.000 A 
ATOM      8  C   UNL     1       1.070   9.827  17.884  0.00  0.00    +0.000 A 
ATOM      9  C   UNL     1       1.840   8.665  17.882  0.00  0.00    +0.000 A 
ATOM     10  C   UNL     1       2.041   7.985  19.085  0.00  0.00    +0.000 A 
ATOM     11  C   UNL     1       1.464   8.498  20.235  0.00  0.00    +0.000 A 
ATOM     12  N   UNL     1       0.719   9.628  20.261  0.00  0.00    +0.000 NA
ENDBRANCH   2  10
ENDBRANCH   1   4
BRANCH   1  13
ATOM     13  C   UNL     1       4.301   4.354  17.000  0.00  0.00    +0.000 C 
BRANCH  13  14
ATOM     14  C   UNL     1       5.560   4.134  16.149  0.00  0.00    +0.000 C 
BRANCH  14  15
ATOM     15  O   UNL     1       6.730   4.045  16.947  0.00  0.00    +0.000 OA
ATOM     16  H   UNL     1       7.426   3.654  16.373  0.00  0.00    +0.000 HD
ENDBRANCH  14  15
ENDBRANCH  13  14
BRANCH  13  17
ATOM     17  C   UNL     1       3.708   2.995  17.474  0.00  0.00    +0.000 C 
BRANCH  17  18
ATOM     18  C   UNL     1       2.941   3.096  18.803  0.00  0.00    +0.000 C 
ATOM     19  C   UNL     1       3.540   2.276  19.952  0.00  0.00    +0.000 C 
ATOM     20  C   UNL     1       2.876   2.723  21.262  0.00  0.00    +0.000 C 
ATOM     21  C   UNL     1       1.345   2.643  21.219  0.00  0.00    +0.000 C 
ATOM     22  C   UNL     1       0.729   3.211  19.943  0.00  0.00    +0.000 C 
ATOM     23  C   UNL     1       1.453   2.728  18.692  0.00  0.00    +0.000 C 
ENDBRANCH  17  18
ENDBRANCH  13  17
ENDBRANCH   1  13
TORSDOF 7
ENDMDL
MODEL 6
REMARK VINA RESULT:      -6.7      2.928      6.900
REMARK  Name = 
REMARK  8 active torsions:
REMARK  status: ('A' for Active; 'I' for Inactive)
REMARK    1  A    between atoms: C_1  and  C_2
REMARK    2  A    between atoms: C_5  and  C_6
REMARK    3  A    between atoms: N_8  and  C_9
REMARK    4  A    between atoms: C_9  and  C_10
REMARK    5  A    between atoms: C_10  and  C_11
REMARK    6  A    between atoms: C_10  and  C_13
REMARK    7  A    between atoms: C_11  and  O_12
REMARK    8  A    between atoms: C_13  and  C_14
REMARK                            x       y       z     vdW  Elec       q    Type
REMARK                         _______ _______ _______ _____ _____    ______ ____
ROOT
ATOM      1  C   UNL     1       4.075   6.580  17.418  0.00  0.00    +0.000 C 
ENDROOT
BRANCH   1   4
ATOM      2  C   UNL     1       2.434   8.215  18.255  0.00  0.00    +0.000 C 
ATOM      3  O   UNL     1       2.267   8.707  17.147  0.00  0.00    +0.000 OA
ATOM      4  N   UNL     1       3.299   7.170  18.487  0.00  0.00    +0.000 N 
ATOM      5  H   UNL     1       3.290   6.693  19.378  0.00  0.00    +0.000 HD
BRANCH   2  10
ATOM      6  C   UNL     1      -0.627  10.370  22.562  0.00  0.00    +0.000 C 
ATOM      7  C   UNL     1       0.162   9.729  21.463  0.00  0.00    +0.000 A 
ATOM      8  C   UNL     1       0.797   8.503  21.652  0.00  0.00    +0.000 A 
ATOM      9  C   UNL     1       1.553   7.967  20.611  0.00  0.00    +0.000 A 
ATOM     10  C   UNL     1       1.650   8.676  19.411  0.00  0.00    +0.000 A 
ATOM     11  C   UNL     1       0.985   9.887  19.307  0.00  0.00    +0.000 A 
ATOM     12  N   UNL     1       0.239  10.422  20.301  0.00  0.00    +0.000 NA
ENDBRANCH   2  10
ENDBRANCH   1   4
BRANCH   1  13
ATOM     13  C   UNL     1       4.029   5.037  17.429  0.00  0.00    +0.000 C 
BRANCH  13  14
ATOM     14  C   UNL     1       4.796   4.421  16.249  0.00  0.00    +0.000 C 
BRANCH  14  15
ATOM     15  O   UNL     1       5.959   3.731  16.676  0.00  0.00    +0.000 OA
ATOM     16  H   UNL     1       6.689   4.030  16.088  0.00  0.00    +0.000 HD
ENDBRANCH  14  15
ENDBRANCH  13  14
BRANCH  13  17
ATOM     17  C   UNL     1       4.531   4.452  18.782  0.00  0.00    +0.000 C 
BRANCH  17  18
ATOM     18  C   UNL     1       3.391   4.063  19.738  0.00  0.00    +0.000 C 
ATOM     19  C   UNL     1       3.557   2.695  20.410  0.00  0.00    +0.000 C 
ATOM     20  C   UNL     1       2.538   2.590  21.553  0.00  0.00    +0.000 C 
ATOM     21  C   UNL     1       1.096   2.852  21.100  0.00  0.00    +0.000 C 
ATOM     22  C   UNL     1       0.941   4.068  20.190  0.00  0.00    +0.000 C 
ATOM     23  C   UNL     1       1.997   4.101  19.092  0.00  0.00    +0.000 C 
ENDBRANCH  17  18
ENDBRANCH  13  17
ENDBRANCH   1  13
TORSDOF 7
ENDMDL
MODEL 7
REMARK VINA RESULT:      -6.5      2.079      2.948
REMARK  Name = 
REMARK  8 active torsions:
REMARK  status: ('A' for Active; 'I' for Inactive)
REMARK    1  A    between atoms: C_1  and  C_2
REMARK    2  A    between atoms: C_5  and  C_6
REMARK    3  A    between atoms: N_8  and  C_9
REMARK    4  A    between atoms: C_9  and  C_10
REMARK    5  A    between atoms: C_10  and  C_11
REMARK    6  A    between atoms: C_10  and  C_13
REMARK    7  A    between atoms: C_11  and  O_12
REMARK    8  A    between atoms: C_13  and  C_14
REMARK                            x       y       z     vdW  Elec       q    Type
REMARK                         _______ _______ _______ _____ _____    ______ ____
ROOT
ATOM      1  C   UNL     1       4.117   2.556  17.970  0.00  0.00    +0.000 C 
ENDROOT
BRANCH   1   4
ATOM      2  C   UNL     1       5.720   4.245  17.169  0.00  0.00    +0.000 C 
ATOM      3  O   UNL     1       5.738   3.781  16.037  0.00  0.00    +0.000 OA
ATOM      4  N   UNL     1       4.958   3.713  18.184  0.00  0.00    +0.000 N 
ATOM      5  H   UNL     1       4.851   4.216  19.054  0.00  0.00    +0.000 HD
BRANCH   2  10
ATOM      6  C   UNL     1       8.501   9.143  18.091  0.00  0.00    +0.000 C 
ATOM      7  C   UNL     1       7.788   7.836  17.927  0.00  0.00    +0.000 A 
ATOM      8  C   UNL     1       8.138   6.724  18.690  0.00  0.00    +0.000 A 
ATOM      9  C   UNL     1       7.472   5.519  18.471  0.00  0.00    +0.000 A 
ATOM     10  C   UNL     1       6.474   5.465  17.496  0.00  0.00    +0.000 A 
ATOM     11  C   UNL     1       6.187   6.619  16.785  0.00  0.00    +0.000 A 
ATOM     12  N   UNL     1       6.815   7.801  16.985  0.00  0.00    +0.000 NA
ENDBRANCH   2  10
ENDBRANCH   1   4
BRANCH   1  13
ATOM     13  C   UNL     1       3.258   2.205  19.204  0.00  0.00    +0.000 C 
BRANCH  13  14
ATOM     14  C   UNL     1       4.041   2.344  20.519  0.00  0.00    +0.000 C 
BRANCH  14  15
ATOM     15  O   UNL     1       3.180   2.382  21.646  0.00  0.00    +0.000 OA
ATOM     16  H   UNL     1       3.480   3.139  22.197  0.00  0.00    +0.000 HD
ENDBRANCH  14  15
ENDBRANCH  13  14
BRANCH  13  17
ATOM     17  C   UNL     1       1.944   3.038  19.251  0.00  0.00    +0.000 C 
BRANCH  17  18
ATOM     18  C   UNL     1       2.185   4.551  19.383  0.00  0.00    +0.000 C 
ATOM     19  C   UNL     1       1.336   5.243  20.456  0.00  0.00    +0.000 C 
ATOM     20  C   UNL     1       1.906   6.649  20.691  0.00  0.00    +0.000 C 
ATOM     21  C   UNL     1       2.018   7.477  19.405  0.00  0.00    +0.000 C 
ATOM     22  C   UNL     1       2.615   6.714  18.224  0.00  0.00    +0.000 C 
ATOM     23  C   UNL     1       2.003   5.327  18.069  0.00  0.00    +0.000 C 
ENDBRANCH  17  18
ENDBRANCH  13  17
ENDBRANCH   1  13
TORSDOF 7
ENDMDL
MODEL 8
REMARK VINA RESULT:      -6.5      2.457      6.470
REMARK  Name = 
REMARK  8 active torsions:
REMARK  status: ('A' for Active; 'I' for Inactive)
REMARK    1  A    between atoms: C_1  and  C_2
REMARK    2  A    between atoms: C_5  and  C_6
REMARK    3  A    between atoms: N_8  and  C_9
REMARK    4  A    between atoms: C_9  and  C_10
REMARK    5  A    between atoms: C_10  and  C_11
REMARK    6  A    between atoms: C_10  and  C_13
REMARK    7  A    between atoms: C_11  and  O_12
REMARK    8  A    between atoms: C_13  and  C_14
REMARK                            x       y       z     vdW  Elec       q    Type
REMARK                         _______ _______ _______ _____ _____    ______ ____
ROOT
ATOM      1  C   UNL     1       5.213   5.899  17.522  0.00  0.00    +0.000 C 
ENDROOT
BRANCH   1   4
ATOM      2  C   UNL     1       3.338   6.763  18.863  0.00  0.00    +0.000 C 
ATOM      3  O   UNL     1       3.491   5.920  19.735  0.00  0.00    +0.000 OA
ATOM      4  N   UNL     1       4.132   6.833  17.741  0.00  0.00    +0.000 N 
ATOM      5  H   UNL     1       4.073   7.635  17.128  0.00  0.00    +0.000 HD
BRANCH   2  10
ATOM      6  C   UNL     1      -0.501  10.984  19.037  0.00  0.00    +0.000 C 
ATOM      7  C   UNL     1       0.469   9.843  19.058  0.00  0.00    +0.000 A 
ATOM      8  C   UNL     1       0.775   9.178  20.244  0.00  0.00    +0.000 A 
ATOM      9  C   UNL     1       1.715   8.150  20.217  0.00  0.00    +0.000 A 
ATOM     10  C   UNL     1       2.320   7.817  19.003  0.00  0.00    +0.000 A 
ATOM     11  C   UNL     1       1.957   8.527  17.871  0.00  0.00    +0.000 A 
ATOM     12  N   UNL     1       1.041   9.524  17.872  0.00  0.00    +0.000 NA
ENDBRANCH   2  10
ENDBRANCH   1   4
BRANCH   1  13
ATOM     13  C   UNL     1       5.028   5.060  16.239  0.00  0.00    +0.000 C 
BRANCH  13  14
ATOM     14  C   UNL     1       6.190   5.241  15.251  0.00  0.00    +0.000 C 
BRANCH  14  15
ATOM     15  O   UNL     1       7.436   4.885  15.828  0.00  0.00    +0.000 OA
ATOM     16  H   UNL     1       7.722   4.058  15.380  0.00  0.00    +0.000 HD
ENDBRANCH  14  15
ENDBRANCH  13  14
BRANCH  13  17
ATOM     17  C   UNL     1       4.801   3.554  16.559  0.00  0.00    +0.000 C 
BRANCH  17  18
ATOM     18  C   UNL     1       3.642   3.307  17.539  0.00  0.00    +0.000 C 
ATOM     19  C   UNL     1       3.531   1.867  18.051  0.00  0.00    +0.000 C 
ATOM     20  C   UNL     1       2.559   1.848  19.239  0.00  0.00    +0.000 C 
ATOM     21  C   UNL     1       1.193   2.461  18.908  0.00  0.00    +0.000 C 
ATOM     22  C   UNL     1       1.271   3.780  18.143  0.00  0.00    +0.000 C 
ATOM     23  C   UNL     1       2.266   3.716  16.990  0.00  0.00    +0.000 C 
ENDBRANCH  17  18
ENDBRANCH  13  17
ENDBRANCH   1  13
TORSDOF 7
ENDMDL
MODEL 9
REMARK VINA RESULT:      -6.5      3.297      7.428
REMARK  Name = 
REMARK  8 active torsions:
REMARK  status: ('A' for Active; 'I' for Inactive)
REMARK    1  A    between atoms: C_1  and  C_2
REMARK    2  A    between atoms: C_5  and  C_6
REMARK    3  A    between atoms: N_8  and  C_9
REMARK    4  A    between atoms: C_9  and  C_10
REMARK    5  A    between atoms: C_10  and  C_11
REMARK    6  A    between atoms: C_10  and  C_13
REMARK    7  A    between atoms: C_11  and  O_12
REMARK    8  A    between atoms: C_13  and  C_14
REMARK                            x       y       z     vdW  Elec       q    Type
REMARK                         _______ _______ _______ _____ _____    ______ ____
ROOT
ATOM      1  C   UNL     1       3.412   7.343  17.333  0.00  0.00    +0.000 C 
ENDROOT
BRANCH   1   4
ATOM      2  C   UNL     1       1.957   8.963  18.483  0.00  0.00    +0.000 C 
ATOM      3  O   UNL     1       1.883   9.689  17.501  0.00  0.00    +0.000 OA
ATOM      4  N   UNL     1       2.682   7.793  18.497  0.00  0.00    +0.000 N 
ATOM      5  H   UNL     1       2.589   7.148  19.270  0.00  0.00    +0.000 HD
BRANCH   2  10
ATOM      6  C   UNL     1      -1.037  10.532  23.081  0.00  0.00    +0.000 C 
ATOM      7  C   UNL     1      -0.259  10.042  21.900  0.00  0.00    +0.000 A 
ATOM      8  C   UNL     1       0.479   8.861  21.963  0.00  0.00    +0.000 A 
ATOM      9  C   UNL     1       1.220   8.469  20.850  0.00  0.00    +0.000 A 
ATOM     10  C   UNL     1       1.199   9.270  19.706  0.00  0.00    +0.000 A 
ATOM     11  C   UNL     1       0.437  10.427  19.728  0.00  0.00    +0.000 A 
ATOM     12  N   UNL     1      -0.296  10.823  20.794  0.00  0.00    +0.000 NA
ENDBRANCH   2  10
ENDBRANCH   1   4
BRANCH   1  13
ATOM     13  C   UNL     1       4.245   6.072  17.604  0.00  0.00    +0.000 C 
BRANCH  13  14
ATOM     14  C   UNL     1       5.698   6.213  17.126  0.00  0.00    +0.000 C 
BRANCH  14  15
ATOM     15  O   UNL     1       5.773   6.671  15.786  0.00  0.00    +0.000 OA
ATOM     16  H   UNL     1       6.328   7.483  15.802  0.00  0.00    +0.000 HD
ENDBRANCH  14  15
ENDBRANCH  13  14
BRANCH  13  17
ATOM     17  C   UNL     1       4.192   5.654  19.103  0.00  0.00    +0.000 C 
BRANCH  17  18
ATOM     18  C   UNL     1       3.108   4.606  19.406  0.00  0.00    +0.000 C 
ATOM     19  C   UNL     1       2.286   4.882  20.669  0.00  0.00    +0.000 C 
ATOM     20  C   UNL     1       1.062   3.956  20.662  0.00  0.00    +0.000 C 
ATOM     21  C   UNL     1       1.429   2.474  20.511  0.00  0.00    +0.000 C 
ATOM     22  C   UNL     1       2.469   2.199  19.428  0.00  0.00    +0.000 C 
ATOM     23  C   UNL     1       3.643   3.169  19.499  0.00  0.00    +0.000 C 
ENDBRANCH  17  18
ENDBRANCH  13  17
ENDBRANCH   1  13
TORSDOF 7
ENDMDL
