MODEL 1
REMARK VINA RESULT:      -8.2      0.000      0.000
REMARK  Name = 
REMARK  10 active torsions:
REMARK  status: ('A' for Active; 'I' for Inactive)
REMARK    1  A    between atoms: N_1  and  C_2
REMARK    2  A    between atoms: C_7  and  S_8
REMARK    3  A    between atoms: S_8  and  N_11
REMARK    4  A    between atoms: N_11  and  C_12
REMARK    5  A    between atoms: C_12  and  C_13
REMARK    6  A    between atoms: C_13  and  N_14
REMARK    7  A    between atoms: N_14  and  C_15
REMARK    8  A    between atoms: C_15  and  C_16
REMARK    9  A    between atoms: C_17  and  C_18
REMARK   10  A    between atoms: C_21  and  C_22
REMARK                            x       y       z     vdW  Elec       q    Type
REMARK                         _______ _______ _______ _____ _____    ______ ____
ROOT
ATOM      1  C   UNL     1       6.907   5.076  18.592  0.00  0.00    +0.000 C 
ENDROOT
BRANCH   1   2
ATOM      2  N   UNL     1       6.894   4.439  17.273  0.00  0.00    +0.000 NA
ATOM      3  H   UNL     1       7.796   4.403  16.803  0.00  0.00    +0.000 HD
BRANCH   2   4
ATOM      4  S   UNL     1       5.643   4.903  16.241  0.00  0.00    +0.000 S 
ATOM      5  O   UNL     1       5.386   3.790  15.350  0.00  0.00    +0.000 OA
ATOM      6  O   UNL     1       5.970   6.217  15.729  0.00  0.00    +0.000 OA
BRANCH   4  12
ATOM      7  C   UNL     1       1.668   3.258  19.321  0.00  0.00    +0.000 A 
ATOM      8  N   UNL     1       1.992   1.962  19.196  0.00  0.00    +0.000 NA
ATOM      9  C   UNL     1       3.107   1.674  18.504  0.00  0.00    +0.000 A 
ATOM     10  C   UNL     1       3.907   2.626  17.890  0.00  0.00    +0.000 A 
ATOM     11  C   UNL     1       3.556   3.999  17.960  0.00  0.00    +0.000 A 
ATOM     12  C   UNL     1       4.238   5.095  17.332  0.00  0.00    +0.000 A 
ATOM     13  C   UNL     1       3.834   6.423  17.542  0.00  0.00    +0.000 A 
ATOM     14  C   UNL     1       2.742   6.706  18.340  0.00  0.00    +0.000 A 
ATOM     15  C   UNL     1       2.029   5.662  18.914  0.00  0.00    +0.000 A 
ATOM     16  C   UNL     1       2.408   4.311  18.737  0.00  0.00    +0.000 A 
BRANCH   7  17
ATOM     17  N   UNL     1       0.484   3.483  20.030  0.00  0.00    +0.000 N 
ATOM     18  H   UNL     1       0.019   4.264  19.574  0.00  0.00    +0.000 HD
ATOM     19  H   UNL     1      -0.109   2.662  20.060  0.00  0.00    +0.000 HD
ENDBRANCH   7  17
ENDBRANCH   4  12
ENDBRANCH   2   4
ENDBRANCH   1   2
BRANCH   1  20
ATOM     20  C   UNL     1       7.825   6.309  18.599  0.00  0.00    +0.000 C 
BRANCH  20  21
ATOM     21  N   UNL     1       7.222   7.475  17.941  0.00  0.00    +0.000 NA
ATOM     22  H   UNL     1       6.638   7.977  18.611  0.00  0.00    +0.000 HD
BRANCH  21  23
ATOM     23  C   UNL     1       8.245   8.387  17.436  0.00  0.00    +0.000 C 
BRANCH  23  24
ATOM     24  C   UNL     1       8.457   9.482  18.419  0.00  0.00    +0.000 C 
ATOM     25  C   UNL     1       9.051  10.647  18.114  0.00  0.00    +0.000 C 
BRANCH  25  26
ATOM     26  C   UNL     1       9.279  11.692  19.113  0.00  0.00    +0.000 A 
ATOM     27  C   UNL     1       9.070  13.036  18.801  0.00  0.00    +0.000 A 
ATOM     28  C   UNL     1       9.285  14.033  19.755  0.00  0.00    +0.000 A 
ATOM     29  C   UNL     1       9.681  13.711  21.064  0.00  0.00    +0.000 A 
ATOM     30  C   UNL     1       9.874  12.353  21.361  0.00  0.00    +0.000 A 
ATOM     31  C   UNL     1       9.670  11.351  20.409  0.00  0.00    +0.000 A 
BRANCH  29  32
ATOM     32  C   UNL     1       9.869  14.764  22.078  0.00  0.00    +0.000 A 
ATOM     33  C   UNL     1      10.839  15.767  21.935  0.00  0.00    +0.000 A 
ATOM     34  C   UNL     1      10.987  16.746  22.911  0.00  0.00    +0.000 A 
ATOM     35  C   UNL     1      10.150  16.709  24.011  0.00  0.00    +0.000 A 
ATOM     36  N   UNL     1       9.201  15.771  24.197  0.00  0.00    +0.000 NA
ATOM     37  C   UNL     1       9.091  14.826  23.231  0.00  0.00    +0.000 A 
ENDBRANCH  29  32
ENDBRANCH  25  26
ENDBRANCH  23  24
ENDBRANCH  21  23
ENDBRANCH  20  21
ENDBRANCH   1  20
TORSDOF 10
ENDMDL
MODEL 2
REMARK VINA RESULT:      -8.1      6.403      8.372
REMARK  Name = 
REMARK  10 active torsions:
REMARK  status: ('A' for Active; 'I' for Inactive)
REMARK    1  A    between atoms: N_1  and  C_2
REMARK    2  A    between atoms: C_7  and  S_8
REMARK    3  A    between atoms: S_8  and  N_11
REMARK    4  A    between atoms: N_11  and  C_12
REMARK    5  A    between atoms: C_12  and  C_13
REMARK    6  A    between atoms: C_13  and  N_14
REMARK    7  A    between atoms: N_14  and  C_15
REMARK    8  A    between atoms: C_15  and  C_16
REMARK    9  A    between atoms: C_17  and  C_18
REMARK   10  A    between atoms: C_21  and  C_22
REMARK                            x       y       z     vdW  Elec       q    Type
REMARK                         _______ _______ _______ _____ _____    ______ ____
ROOT
ATOM      1  C   UNL     1       1.091   2.847  19.773  0.00  0.00    +0.000 C 
ENDROOT
BRANCH   1   2
ATOM      2  N   UNL     1       2.528   2.564  19.733  0.00  0.00    +0.000 NA
ATOM      3  H   UNL     1       3.094   3.119  20.371  0.00  0.00    +0.000 HD
BRANCH   2   4
ATOM      4  S   UNL     1       3.213   2.439  18.197  0.00  0.00    +0.000 S 
ATOM      5  O   UNL     1       2.191   2.807  17.240  0.00  0.00    +0.000 OA
ATOM      6  O   UNL     1       3.885   1.158  18.127  0.00  0.00    +0.000 OA
BRANCH   4  12
ATOM      7  C   UNL     1       6.765   5.695  16.012  0.00  0.00    +0.000 A 
ATOM      8  N   UNL     1       6.438   5.351  14.758  0.00  0.00    +0.000 NA
ATOM      9  C   UNL     1       5.410   4.500  14.604  0.00  0.00    +0.000 A 
ATOM     10  C   UNL     1       4.704   3.939  15.659  0.00  0.00    +0.000 A 
ATOM     11  C   UNL     1       5.065   4.243  16.996  0.00  0.00    +0.000 A 
ATOM     12  C   UNL     1       4.480   3.702  18.191  0.00  0.00    +0.000 A 
ATOM     13  C   UNL     1       4.876   4.144  19.463  0.00  0.00    +0.000 A 
ATOM     14  C   UNL     1       5.869   5.097  19.596  0.00  0.00    +0.000 A 
ATOM     15  C   UNL     1       6.492   5.596  18.460  0.00  0.00    +0.000 A 
ATOM     16  C   UNL     1       6.117   5.185  17.160  0.00  0.00    +0.000 A 
BRANCH   7  17
ATOM     17  N   UNL     1       7.859   6.563  16.098  0.00  0.00    +0.000 N 
ATOM     18  H   UNL     1       8.178   6.718  15.145  0.00  0.00    +0.000 HD
ATOM     19  H   UNL     1       7.623   7.433  16.560  0.00  0.00    +0.000 HD
ENDBRANCH   7  17
ENDBRANCH   4  12
ENDBRANCH   2   4
ENDBRANCH   1   2
BRANCH   1  20
ATOM     20  C   UNL     1       0.818   4.229  20.390  0.00  0.00    +0.000 C 
BRANCH  20  21
ATOM     21  N   UNL     1       2.034   4.878  20.897  0.00  0.00    +0.000 NA
ATOM     22  H   UNL     1       2.836   4.268  20.734  0.00  0.00    +0.000 HD
BRANCH  21  23
ATOM     23  C   UNL     1       2.272   6.154  20.226  0.00  0.00    +0.000 C 
BRANCH  23  24
ATOM     24  C   UNL     1       1.527   7.228  20.934  0.00  0.00    +0.000 C 
ATOM     25  C   UNL     1       1.020   8.309  20.318  0.00  0.00    +0.000 C 
BRANCH  25  26
ATOM     26  C   UNL     1       0.322   9.368  21.048  0.00  0.00    +0.000 A 
ATOM     27  C   UNL     1       0.067  10.601  20.447  0.00  0.00    +0.000 A 
ATOM     28  C   UNL     1      -0.601  11.611  21.144  0.00  0.00    +0.000 A 
ATOM     29  C   UNL     1      -1.066  11.403  22.452  0.00  0.00    +0.000 A 
ATOM     30  C   UNL     1      -0.810  10.152  23.035  0.00  0.00    +0.000 A 
ATOM     31  C   UNL     1      -0.134   9.141  22.347  0.00  0.00    +0.000 A 
BRANCH  29  32
ATOM     32  C   UNL     1      -1.805  12.459  23.169  0.00  0.00    +0.000 A 
ATOM     33  C   UNL     1      -1.215  13.691  23.487  0.00  0.00    +0.000 A 
ATOM     34  C   UNL     1      -1.943  14.664  24.161  0.00  0.00    +0.000 A 
ATOM     35  C   UNL     1      -3.256  14.390  24.498  0.00  0.00    +0.000 A 
ATOM     36  N   UNL     1      -3.871  13.225  24.215  0.00  0.00    +0.000 NA
ATOM     37  C   UNL     1      -3.130  12.294  23.565  0.00  0.00    +0.000 A 
ENDBRANCH  29  32
ENDBRANCH  25  26
ENDBRANCH  23  24
ENDBRANCH  21  23
ENDBRANCH  20  21
ENDBRANCH   1  20
TORSDOF 10
ENDMDL
MODEL 3
REMARK VINA RESULT:      -7.9      2.113      3.179
REMARK  Name = 
REMARK  10 active torsions:
REMARK  status: ('A' for Active; 'I' for Inactive)
REMARK    1  A    between atoms: N_1  and  C_2
REMARK    2  A    between atoms: C_7  and  S_8
REMARK    3  A    between atoms: S_8  and  N_11
REMARK    4  A    between atoms: N_11  and  C_12
REMARK    5  A    between atoms: C_12  and  C_13
REMARK    6  A    between atoms: C_13  and  N_14
REMARK    7  A    between atoms: N_14  and  C_15
REMARK    8  A    between atoms: C_15  and  C_16
REMARK    9  A    between atoms: C_17  and  C_18
REMARK   10  A    between atoms: C_21  and  C_22
REMARK                            x       y       z     vdW  Elec       q    Type
REMARK                         _______ _______ _______ _____ _____    ______ ____
ROOT
ATOM      1  C   UNL     1       5.565   4.081  18.200  0.00  0.00    +0.000 C 
ENDROOT
BRANCH   1   2
ATOM      2  N   UNL     1       4.708   3.630  17.100  0.00  0.00    +0.000 NA
ATOM      3  H   UNL     1       4.576   4.307  16.352  0.00  0.00    +0.000 HD
BRANCH   2   4
ATOM      4  S   UNL     1       3.269   2.873  17.549  0.00  0.00    +0.000 S 
ATOM      5  O   UNL     1       3.610   1.542  18.010  0.00  0.00    +0.000 OA
ATOM      6  O   UNL     1       2.320   3.077  16.475  0.00  0.00    +0.000 OA
BRANCH   4  12
ATOM      7  C   UNL     1       2.018   7.288  20.182  0.00  0.00    +0.000 A 
ATOM      8  N   UNL     1       2.235   8.084  19.124  0.00  0.00    +0.000 NA
ATOM      9  C   UNL     1       2.548   7.487  17.962  0.00  0.00    +0.000 A 
ATOM     10  C   UNL     1       2.694   6.116  17.810  0.00  0.00    +0.000 A 
ATOM     11  C   UNL     1       2.524   5.256  18.925  0.00  0.00    +0.000 A 
ATOM     12  C   UNL     1       2.699   3.831  18.948  0.00  0.00    +0.000 A 
ATOM     13  C   UNL     1       2.425   3.080  20.102  0.00  0.00    +0.000 A 
ATOM     14  C   UNL     1       2.006   3.705  21.262  0.00  0.00    +0.000 A 
ATOM     15  C   UNL     1       1.883   5.088  21.285  0.00  0.00    +0.000 A 
ATOM     16  C   UNL     1       2.139   5.881  20.142  0.00  0.00    +0.000 A 
BRANCH   7  17
ATOM     17  N   UNL     1       1.722   7.978  21.362  0.00  0.00    +0.000 N 
ATOM     18  H   UNL     1       1.557   8.945  21.097  0.00  0.00    +0.000 HD
ATOM     19  H   UNL     1       0.925   7.583  21.848  0.00  0.00    +0.000 HD
ENDBRANCH   7  17
ENDBRANCH   4  12
ENDBRANCH   2   4
ENDBRANCH   1   2
BRANCH   1  20
ATOM     20  C   UNL     1       6.746   4.912  17.673  0.00  0.00    +0.000 C 
BRANCH  20  21
ATOM     21  N   UNL     1       6.678   6.321  18.077  0.00  0.00    +0.000 NA
ATOM     22  H   UNL     1       6.935   6.404  19.062  0.00  0.00    +0.000 HD
BRANCH  21  23
ATOM     23  C   UNL     1       7.589   7.144  17.285  0.00  0.00    +0.000 C 
BRANCH  23  24
ATOM     24  C   UNL     1       7.986   8.339  18.076  0.00  0.00    +0.000 C 
ATOM     25  C   UNL     1       8.358   9.505  17.521  0.00  0.00    +0.000 C 
BRANCH  25  26
ATOM     26  C   UNL     1       8.779  10.653  18.326  0.00  0.00    +0.000 A 
ATOM     27  C   UNL     1       9.359  10.472  19.582  0.00  0.00    +0.000 A 
ATOM     28  C   UNL     1       9.762  11.568  20.347  0.00  0.00    +0.000 A 
ATOM     29  C   UNL     1       9.629  12.879  19.862  0.00  0.00    +0.000 A 
ATOM     30  C   UNL     1       9.055  13.040  18.591  0.00  0.00    +0.000 A 
ATOM     31  C   UNL     1       8.641  11.948  17.824  0.00  0.00    +0.000 A 
BRANCH  29  32
ATOM     32  C   UNL     1      10.092  14.031  20.658  0.00  0.00    +0.000 A 
ATOM     33  C   UNL     1       9.543  14.333  21.912  0.00  0.00    +0.000 A 
ATOM     34  C   UNL     1      10.007  15.426  22.636  0.00  0.00    +0.000 A 
ATOM     35  C   UNL     1      11.021  16.193  22.094  0.00  0.00    +0.000 A 
ATOM     36  N   UNL     1      11.585  15.945  20.895  0.00  0.00    +0.000 NA
ATOM     37  C   UNL     1      11.104  14.878  20.211  0.00  0.00    +0.000 A 
ENDBRANCH  29  32
ENDBRANCH  25  26
ENDBRANCH  23  24
ENDBRANCH  21  23
ENDBRANCH  20  21
ENDBRANCH   1  20
TORSDOF 10
ENDMDL
MODEL 4
REMARK VINA RESULT:      -7.8      7.159     10.817
REMARK  Name = 
REMARK  10 active torsions:
REMARK  status: ('A' for Active; 'I' for Inactive)
REMARK    1  A    between atoms: N_1  and  C_2
REMARK    2  A    between atoms: C_7  and  S_8
REMARK    3  A    between atoms: S_8  and  N_11
REMARK    4  A    between atoms: N_11  and  C_12
REMARK    5  A    between atoms: C_12  and  C_13
REMARK    6  A    between atoms: C_13  and  N_14
REMARK    7  A    between atoms: N_14  and  C_15
REMARK    8  A    between atoms: C_15  and  C_16
REMARK    9  A    between atoms: C_17  and  C_18
REMARK   10  A    between atoms: C_21  and  C_22
REMARK                            x       y       z     vdW  Elec       q    Type
REMARK                         _______ _______ _______ _____ _____    ______ ____
ROOT
ATOM      1  C   UNL     1       0.940   9.732  22.455  0.00  0.00    +0.000 C 
ENDROOT
BRANCH   1   2
ATOM      2  N   UNL     1      -0.151  10.710  22.453  0.00  0.00    +0.000 NA
ATOM      3  H   UNL     1      -1.087  10.310  22.435  0.00  0.00    +0.000 HD
BRANCH   2   4
ATOM      4  S   UNL     1       0.021  12.006  21.388  0.00  0.00    +0.000 S 
ATOM      5  O   UNL     1       1.062  11.652  20.445  0.00  0.00    +0.000 OA
ATOM      6  O   UNL     1       0.106  13.212  22.185  0.00  0.00    +0.000 OA
BRANCH   4  12
ATOM      7  C   UNL     1      -3.333  10.952  17.434  0.00  0.00    +0.000 A 
ATOM      8  N   UNL     1      -2.458  10.168  16.786  0.00  0.00    +0.000 NA
ATOM      9  C   UNL     1      -1.280   9.936  17.388  0.00  0.00    +0.000 A 
ATOM     10  C   UNL     1      -0.911  10.485  18.607  0.00  0.00    +0.000 A 
ATOM     11  C   UNL     1      -1.795  11.361  19.287  0.00  0.00    +0.000 A 
ATOM     12  C   UNL     1      -1.541  12.056  20.518  0.00  0.00    +0.000 A 
ATOM     13  C   UNL     1      -2.532  12.838  21.133  0.00  0.00    +0.000 A 
ATOM     14  C   UNL     1      -3.775  12.983  20.546  0.00  0.00    +0.000 A 
ATOM     15  C   UNL     1      -4.029  12.369  19.327  0.00  0.00    +0.000 A 
ATOM     16  C   UNL     1      -3.063  11.564  18.679  0.00  0.00    +0.000 A 
BRANCH   7  17
ATOM     17  N   UNL     1      -4.527  11.170  16.740  0.00  0.00    +0.000 N 
ATOM     18  H   UNL     1      -5.237  10.613  17.206  0.00  0.00    +0.000 HD
ATOM     19  H   UNL     1      -4.780  12.151  16.711  0.00  0.00    +0.000 HD
ENDBRANCH   7  17
ENDBRANCH   4  12
ENDBRANCH   2   4
ENDBRANCH   1   2
BRANCH   1  20
ATOM     20  C   UNL     1       0.555   8.474  21.660  0.00  0.00    +0.000 C 
BRANCH  20  21
ATOM     21  N   UNL     1       1.656   7.962  20.834  0.00  0.00    +0.000 NA
ATOM     22  H   UNL     1       2.547   8.224  21.258  0.00  0.00    +0.000 HD
BRANCH  21  23
ATOM     23  C   UNL     1       1.600   6.506  20.721  0.00  0.00    +0.000 C 
BRANCH  23  24
ATOM     24  C   UNL     1       2.256   6.086  19.455  0.00  0.00    +0.000 C 
ATOM     25  C   UNL     1       3.589   6.029  19.294  0.00  0.00    +0.000 C 
BRANCH  25  26
ATOM     26  C   UNL     1       4.206   5.647  18.024  0.00  0.00    +0.000 A 
ATOM     27  C   UNL     1       4.278   4.308  17.638  0.00  0.00    +0.000 A 
ATOM     28  C   UNL     1       4.865   3.944  16.425  0.00  0.00    +0.000 A 
ATOM     29  C   UNL     1       5.368   4.914  15.543  0.00  0.00    +0.000 A 
ATOM     30  C   UNL     1       5.276   6.257  15.943  0.00  0.00    +0.000 A 
ATOM     31  C   UNL     1       4.698   6.627  17.160  0.00  0.00    +0.000 A 
BRANCH  29  32
ATOM     32  C   UNL     1       5.952   4.528  14.245  0.00  0.00    +0.000 A 
ATOM     33  C   UNL     1       5.318   3.614  13.390  0.00  0.00    +0.000 A 
ATOM     34  C   UNL     1       5.897   3.275  12.172  0.00  0.00    +0.000 A 
ATOM     35  C   UNL     1       7.098   3.866  11.827  0.00  0.00    +0.000 A 
ATOM     36  N   UNL     1       7.747   4.751  12.609  0.00  0.00    +0.000 NA
ATOM     37  C   UNL     1       7.161   5.052  13.794  0.00  0.00    +0.000 A 
ENDBRANCH  29  32
ENDBRANCH  25  26
ENDBRANCH  23  24
ENDBRANCH  21  23
ENDBRANCH  20  21
ENDBRANCH   1  20
TORSDOF 10
ENDMDL
MODEL 5
REMARK VINA RESULT:      -7.7      2.395      3.623
REMARK  Name = 
REMARK  10 active torsions:
REMARK  status: ('A' for Active; 'I' for Inactive)
REMARK    1  A    between atoms: N_1  and  C_2
REMARK    2  A    between atoms: C_7  and  S_8
REMARK    3  A    between atoms: S_8  and  N_11
REMARK    4  A    between atoms: N_11  and  C_12
REMARK    5  A    between atoms: C_12  and  C_13
REMARK    6  A    between atoms: C_13  and  N_14
REMARK    7  A    between atoms: N_14  and  C_15
REMARK    8  A    between atoms: C_15  and  C_16
REMARK    9  A    between atoms: C_17  and  C_18
REMARK   10  A    between atoms: C_21  and  C_22
REMARK                            x       y       z     vdW  Elec       q    Type
REMARK                         _______ _______ _______ _____ _____    ______ ____
ROOT
ATOM      1  C   UNL     1       5.307   4.542  17.645  0.00  0.00    +0.000 C 
ENDROOT
BRANCH   1   2
ATOM      2  N   UNL     1       4.869   3.151  17.513  0.00  0.00    +0.000 NA
ATOM      3  H   UNL     1       5.291   2.638  16.742  0.00  0.00    +0.000 HD
BRANCH   2   4
ATOM      4  S   UNL     1       3.208   2.885  17.637  0.00  0.00    +0.000 S 
ATOM      5  O   UNL     1       3.020   1.486  17.965  0.00  0.00    +0.000 OA
ATOM      6  O   UNL     1       2.587   3.474  16.469  0.00  0.00    +0.000 OA
BRANCH   4  12
ATOM      7  C   UNL     1       1.976   7.337  20.217  0.00  0.00    +0.000 A 
ATOM      8  N   UNL     1       2.050   8.099  19.115  0.00  0.00    +0.000 NA
ATOM      9  C   UNL     1       2.285   7.471  17.951  0.00  0.00    +0.000 A 
ATOM     10  C   UNL     1       2.488   6.103  17.834  0.00  0.00    +0.000 A 
ATOM     11  C   UNL     1       2.469   5.283  18.991  0.00  0.00    +0.000 A 
ATOM     12  C   UNL     1       2.721   3.870  19.049  0.00  0.00    +0.000 A 
ATOM     13  C   UNL     1       2.596   3.154  20.250  0.00  0.00    +0.000 A 
ATOM     14  C   UNL     1       2.254   3.805  21.421  0.00  0.00    +0.000 A 
ATOM     15  C   UNL     1       2.061   5.180  21.406  0.00  0.00    +0.000 A 
ATOM     16  C   UNL     1       2.167   5.936  20.216  0.00  0.00    +0.000 A 
BRANCH   7  17
ATOM     17  N   UNL     1       1.755   8.058  21.394  0.00  0.00    +0.000 N 
ATOM     18  H   UNL     1       2.483   8.766  21.438  0.00  0.00    +0.000 HD
ATOM     19  H   UNL     1       0.830   8.471  21.424  0.00  0.00    +0.000 HD
ENDBRANCH   7  17
ENDBRANCH   4  12
ENDBRANCH   2   4
ENDBRANCH   1   2
BRANCH   1  20
ATOM     20  C   UNL     1       6.130   4.980  16.423  0.00  0.00    +0.000 C 
BRANCH  20  21
ATOM     21  N   UNL     1       6.989   6.138  16.698  0.00  0.00    +0.000 NA
ATOM     22  H   UNL     1       6.449   6.996  16.580  0.00  0.00    +0.000 HD
BRANCH  21  23
ATOM     23  C   UNL     1       7.511   6.097  18.063  0.00  0.00    +0.000 C 
BRANCH  23  24
ATOM     24  C   UNL     1       8.098   7.420  18.404  0.00  0.00    +0.000 C 
ATOM     25  C   UNL     1       7.752   8.564  17.792  0.00  0.00    +0.000 C 
BRANCH  25  26
ATOM     26  C   UNL     1       8.374   9.847  18.125  0.00  0.00    +0.000 A 
ATOM     27  C   UNL     1       9.320   9.939  19.146  0.00  0.00    +0.000 A 
ATOM     28  C   UNL     1       9.915  11.163  19.461  0.00  0.00    +0.000 A 
ATOM     29  C   UNL     1       9.605  12.327  18.738  0.00  0.00    +0.000 A 
ATOM     30  C   UNL     1       8.660  12.211  17.707  0.00  0.00    +0.000 A 
ATOM     31  C   UNL     1       8.055  10.992  17.392  0.00  0.00    +0.000 A 
BRANCH  29  32
ATOM     32  C   UNL     1      10.264  13.608  19.049  0.00  0.00    +0.000 A 
ATOM     33  C   UNL     1      10.355  14.643  18.106  0.00  0.00    +0.000 A 
ATOM     34  C   UNL     1      10.981  15.840  18.436  0.00  0.00    +0.000 A 
ATOM     35  C   UNL     1      11.499  15.983  19.709  0.00  0.00    +0.000 A 
ATOM     36  N   UNL     1      11.437  15.023  20.653  0.00  0.00    +0.000 NA
ATOM     37  C   UNL     1      10.828  13.865  20.296  0.00  0.00    +0.000 A 
ENDBRANCH  29  32
ENDBRANCH  25  26
ENDBRANCH  23  24
ENDBRANCH  21  23
ENDBRANCH  20  21
ENDBRANCH   1  20
TORSDOF 10
ENDMDL
MODEL 6
REMARK VINA RESULT:      -7.7      7.237     11.040
REMARK  Name = 
REMARK  10 active torsions:
REMARK  status: ('A' for Active; 'I' for Inactive)
REMARK    1  A    between atoms: N_1  and  C_2
REMARK    2  A    between atoms: C_7  and  S_8
REMARK    3  A    between atoms: S_8  and  N_11
REMARK    4  A    between atoms: N_11  and  C_12
REMARK    5  A    between atoms: C_12  and  C_13
REMARK    6  A    between atoms: C_13  and  N_14
REMARK    7  A    between atoms: N_14  and  C_15
REMARK    8  A    between atoms: C_15  and  C_16
REMARK    9  A    between atoms: C_17  and  C_18
REMARK   10  A    between atoms: C_21  and  C_22
REMARK                            x       y       z     vdW  Elec       q    Type
REMARK                         _______ _______ _______ _____ _____    ______ ____
ROOT
ATOM      1  C   UNL     1       1.507   9.244  19.217  0.00  0.00    +0.000 C 
ENDROOT
BRANCH   1   2
ATOM      2  N   UNL     1       0.334   9.679  18.455  0.00  0.00    +0.000 NA
ATOM      3  H   UNL     1       0.484   9.779  17.453  0.00  0.00    +0.000 HD
BRANCH   2   4
ATOM      4  S   UNL     1      -0.538  10.965  19.111  0.00  0.00    +0.000 S 
ATOM      5  O   UNL     1       0.215  12.174  18.845  0.00  0.00    +0.000 OA
ATOM      6  O   UNL     1      -0.910  10.592  20.460  0.00  0.00    +0.000 OA
BRANCH   4  12
ATOM      7  C   UNL     1      -5.596  12.141  18.097  0.00  0.00    +0.000 A 
ATOM      8  N   UNL     1      -5.752  12.836  19.234  0.00  0.00    +0.000 NA
ATOM      9  C   UNL     1      -4.666  12.998  20.007  0.00  0.00    +0.000 A 
ATOM     10  C   UNL     1      -3.420  12.462  19.717  0.00  0.00    +0.000 A 
ATOM     11  C   UNL     1      -3.240  11.677  18.550  0.00  0.00    +0.000 A 
ATOM     12  C   UNL     1      -2.040  11.005  18.140  0.00  0.00    +0.000 A 
ATOM     13  C   UNL     1      -1.967  10.319  16.917  0.00  0.00    +0.000 A 
ATOM     14  C   UNL     1      -3.070  10.249  16.086  0.00  0.00    +0.000 A 
ATOM     15  C   UNL     1      -4.261  10.841  16.483  0.00  0.00    +0.000 A 
ATOM     16  C   UNL     1      -4.374  11.550  17.702  0.00  0.00    +0.000 A 
BRANCH   7  17
ATOM     17  N   UNL     1      -6.771  11.990  17.354  0.00  0.00    +0.000 N 
ATOM     18  H   UNL     1      -6.489  11.932  16.379  0.00  0.00    +0.000 HD
ATOM     19  H   UNL     1      -7.303  11.176  17.639  0.00  0.00    +0.000 HD
ENDBRANCH   7  17
ENDBRANCH   4  12
ENDBRANCH   2   4
ENDBRANCH   1   2
BRANCH   1  20
ATOM     20  C   UNL     1       1.090   8.579  20.539  0.00  0.00    +0.000 C 
BRANCH  20  21
ATOM     21  N   UNL     1       2.032   7.543  20.978  0.00  0.00    +0.000 NA
ATOM     22  H   UNL     1       2.138   7.589  21.993  0.00  0.00    +0.000 HD
BRANCH  21  23
ATOM     23  C   UNL     1       1.558   6.209  20.617  0.00  0.00    +0.000 C 
BRANCH  23  24
ATOM     24  C   UNL     1       2.258   5.755  19.386  0.00  0.00    +0.000 C 
ATOM     25  C   UNL     1       3.475   6.191  19.022  0.00  0.00    +0.000 C 
BRANCH  25  26
ATOM     26  C   UNL     1       4.124   5.754  17.785  0.00  0.00    +0.000 A 
ATOM     27  C   UNL     1       4.178   4.402  17.446  0.00  0.00    +0.000 A 
ATOM     28  C   UNL     1       4.796   3.986  16.264  0.00  0.00    +0.000 A 
ATOM     29  C   UNL     1       5.346   4.917  15.368  0.00  0.00    +0.000 A 
ATOM     30  C   UNL     1       5.271   6.273  15.721  0.00  0.00    +0.000 A 
ATOM     31  C   UNL     1       4.663   6.695  16.906  0.00  0.00    +0.000 A 
BRANCH  29  32
ATOM     32  C   UNL     1       5.963   4.476  14.103  0.00  0.00    +0.000 A 
ATOM     33  C   UNL     1       5.403   3.453  13.323  0.00  0.00    +0.000 A 
ATOM     34  C   UNL     1       6.010   3.064  12.134  0.00  0.00    +0.000 A 
ATOM     35  C   UNL     1       7.164   3.716  11.741  0.00  0.00    +0.000 A 
ATOM     36  N   UNL     1       7.741   4.706  12.450  0.00  0.00    +0.000 NA
ATOM     37  C   UNL     1       7.130   5.053  13.609  0.00  0.00    +0.000 A 
ENDBRANCH  29  32
ENDBRANCH  25  26
ENDBRANCH  23  24
ENDBRANCH  21  23
ENDBRANCH  20  21
ENDBRANCH   1  20
TORSDOF 10
ENDMDL
MODEL 7
REMARK VINA RESULT:      -7.6      2.436      3.379
REMARK  Name = 
REMARK  10 active torsions:
REMARK  status: ('A' for Active; 'I' for Inactive)
REMARK    1  A    between atoms: N_1  and  C_2
REMARK    2  A    between atoms: C_7  and  S_8
REMARK    3  A    between atoms: S_8  and  N_11
REMARK    4  A    between atoms: N_11  and  C_12
REMARK    5  A    between atoms: C_12  and  C_13
REMARK    6  A    between atoms: C_13  and  N_14
REMARK    7  A    between atoms: N_14  and  C_15
REMARK    8  A    between atoms: C_15  and  C_16
REMARK    9  A    between atoms: C_17  and  C_18
REMARK   10  A    between atoms: C_21  and  C_22
REMARK                            x       y       z     vdW  Elec       q    Type
REMARK                         _______ _______ _______ _____ _____    ______ ____
ROOT
ATOM      1  C   UNL     1       6.293   4.962  19.389  0.00  0.00    +0.000 C 
ENDROOT
BRANCH   1   2
ATOM      2  N   UNL     1       6.273   4.239  18.115  0.00  0.00    +0.000 NA
ATOM      3  H   UNL     1       6.973   4.537  17.440  0.00  0.00    +0.000 HD
BRANCH   2   4
ATOM      4  S   UNL     1       4.754   4.014  17.417  0.00  0.00    +0.000 S 
ATOM      5  O   UNL     1       4.544   2.586  17.296  0.00  0.00    +0.000 OA
ATOM      6  O   UNL     1       4.674   4.887  16.265  0.00  0.00    +0.000 OA
BRANCH   4  12
ATOM      7  C   UNL     1       1.837   7.715  19.824  0.00  0.00    +0.000 A 
ATOM      8  N   UNL     1       2.135   8.661  18.921  0.00  0.00    +0.000 NA
ATOM      9  C   UNL     1       2.880   8.288  17.867  0.00  0.00    +0.000 A 
ATOM     10  C   UNL     1       3.381   7.007  17.685  0.00  0.00    +0.000 A 
ATOM     11  C   UNL     1       3.127   6.002  18.653  0.00  0.00    +0.000 A 
ATOM     12  C   UNL     1       3.620   4.654  18.645  0.00  0.00    +0.000 A 
ATOM     13  C   UNL     1       3.232   3.728  19.626  0.00  0.00    +0.000 A 
ATOM     14  C   UNL     1       2.382   4.105  20.648  0.00  0.00    +0.000 A 
ATOM     15  C   UNL     1       1.934   5.418  20.714  0.00  0.00    +0.000 A 
ATOM     16  C   UNL     1       2.293   6.379  19.741  0.00  0.00    +0.000 A 
BRANCH   7  17
ATOM     17  N   UNL     1       1.081   8.177  20.906  0.00  0.00    +0.000 N 
ATOM     18  H   UNL     1       0.971   9.179  20.772  0.00  0.00    +0.000 HD
ATOM     19  H   UNL     1       0.185   7.710  20.977  0.00  0.00    +0.000 HD
ENDBRANCH   7  17
ENDBRANCH   4  12
ENDBRANCH   2   4
ENDBRANCH   1   2
BRANCH   1  20
ATOM     20  C   UNL     1       7.541   5.853  19.499  0.00  0.00    +0.000 C 
BRANCH  20  21
ATOM     21  N   UNL     1       8.009   6.343  18.196  0.00  0.00    +0.000 NA
ATOM     22  H   UNL     1       8.078   5.560  17.545  0.00  0.00    +0.000 HD
BRANCH  21  23
ATOM     23  C   UNL     1       7.088   7.333  17.641  0.00  0.00    +0.000 C 
BRANCH  23  24
ATOM     24  C   UNL     1       7.724   8.676  17.688  0.00  0.00    +0.000 C 
ATOM     25  C   UNL     1       8.587   9.054  18.645  0.00  0.00    +0.000 C 
BRANCH  25  26
ATOM     26  C   UNL     1       9.170  10.396  18.685  0.00  0.00    +0.000 A 
ATOM     27  C   UNL     1       8.773  11.376  17.775  0.00  0.00    +0.000 A 
ATOM     28  C   UNL     1       9.328  12.657  17.815  0.00  0.00    +0.000 A 
ATOM     29  C   UNL     1      10.272  13.006  18.794  0.00  0.00    +0.000 A 
ATOM     30  C   UNL     1      10.650  12.011  19.709  0.00  0.00    +0.000 A 
ATOM     31  C   UNL     1      10.105  10.725  19.667  0.00  0.00    +0.000 A 
BRANCH  29  32
ATOM     32  C   UNL     1      10.826  14.371  18.857  0.00  0.00    +0.000 A 
ATOM     33  C   UNL     1      10.817  15.120  20.043  0.00  0.00    +0.000 A 
ATOM     34  C   UNL     1      11.351  16.404  20.066  0.00  0.00    +0.000 A 
ATOM     35  C   UNL     1      11.895  16.912  18.901  0.00  0.00    +0.000 A 
ATOM     36  N   UNL     1      11.931  16.235  17.736  0.00  0.00    +0.000 NA
ATOM     37  C   UNL     1      11.393  14.990  17.746  0.00  0.00    +0.000 A 
ENDBRANCH  29  32
ENDBRANCH  25  26
ENDBRANCH  23  24
ENDBRANCH  21  23
ENDBRANCH  20  21
ENDBRANCH   1  20
TORSDOF 10
ENDMDL
MODEL 8
REMARK VINA RESULT:      -7.6      7.330     10.829
REMARK  Name = 
REMARK  10 active torsions:
REMARK  status: ('A' for Active; 'I' for Inactive)
REMARK    1  A    between atoms: N_1  and  C_2
REMARK    2  A    between atoms: C_7  and  S_8
REMARK    3  A    between atoms: S_8  and  N_11
REMARK    4  A    between atoms: N_11  and  C_12
REMARK    5  A    between atoms: C_12  and  C_13
REMARK    6  A    between atoms: C_13  and  N_14
REMARK    7  A    between atoms: N_14  and  C_15
REMARK    8  A    between atoms: C_15  and  C_16
REMARK    9  A    between atoms: C_17  and  C_18
REMARK   10  A    between atoms: C_21  and  C_22
REMARK                            x       y       z     vdW  Elec       q    Type
REMARK                         _______ _______ _______ _____ _____    ______ ____
ROOT
ATOM      1  C   UNL     1      -0.814  10.246  21.540  0.00  0.00    +0.000 C 
ENDROOT
BRANCH   1   2
ATOM      2  N   UNL     1      -0.055  11.479  21.322  0.00  0.00    +0.000 NA
ATOM      3  H   UNL     1      -0.338  12.267  21.901  0.00  0.00    +0.000 HD
BRANCH   2   4
ATOM      4  S   UNL     1       0.198  11.917  19.713  0.00  0.00    +0.000 S 
ATOM      5  O   UNL     1       1.293  11.110  19.215  0.00  0.00    +0.000 OA
ATOM      6  O   UNL     1       0.244  13.363  19.660  0.00  0.00    +0.000 OA
BRANCH   4  12
ATOM      7  C   UNL     1      -5.016  11.820  18.814  0.00  0.00    +0.000 A 
ATOM      8  N   UNL     1      -5.278  12.770  19.724  0.00  0.00    +0.000 NA
ATOM      9  C   UNL     1      -4.226  13.340  20.335  0.00  0.00    +0.000 A 
ATOM     10  C   UNL     1      -2.906  12.978  20.106  0.00  0.00    +0.000 A 
ATOM     11  C   UNL     1      -2.605  11.938  19.191  0.00  0.00    +0.000 A 
ATOM     12  C   UNL     1      -1.306  11.405  18.889  0.00  0.00    +0.000 A 
ATOM     13  C   UNL     1      -1.130  10.424  17.901  0.00  0.00    +0.000 A 
ATOM     14  C   UNL     1      -2.217   9.921  17.211  0.00  0.00    +0.000 A 
ATOM     15  C   UNL     1      -3.492  10.376  17.521  0.00  0.00    +0.000 A 
ATOM     16  C   UNL     1      -3.712  11.371  18.502  0.00  0.00    +0.000 A 
BRANCH   7  17
ATOM     17  N   UNL     1      -6.156  11.253  18.236  0.00  0.00    +0.000 N 
ATOM     18  H   UNL     1      -6.682  10.828  18.996  0.00  0.00    +0.000 HD
ATOM     19  H   UNL     1      -6.712  11.936  17.735  0.00  0.00    +0.000 HD
ENDBRANCH   7  17
ENDBRANCH   4  12
ENDBRANCH   2   4
ENDBRANCH   1   2
BRANCH   1  20
ATOM     20  C   UNL     1       0.080   9.144  22.131  0.00  0.00    +0.000 C 
BRANCH  20  21
ATOM     21  N   UNL     1       1.230   8.823  21.277  0.00  0.00    +0.000 NA
ATOM     22  H   UNL     1       2.079   9.205  21.694  0.00  0.00    +0.000 HD
BRANCH  21  23
ATOM     23  C   UNL     1       1.391   7.378  21.128  0.00  0.00    +0.000 C 
BRANCH  23  24
ATOM     24  C   UNL     1       2.277   7.099  19.967  0.00  0.00    +0.000 C 
ATOM     25  C   UNL     1       2.328   5.912  19.341  0.00  0.00    +0.000 C 
BRANCH  25  26
ATOM     26  C   UNL     1       3.237   5.656  18.224  0.00  0.00    +0.000 A 
ATOM     27  C   UNL     1       3.473   4.356  17.777  0.00  0.00    +0.000 A 
ATOM     28  C   UNL     1       4.339   4.113  16.709  0.00  0.00    +0.000 A 
ATOM     29  C   UNL     1       4.969   5.170  16.031  0.00  0.00    +0.000 A 
ATOM     30  C   UNL     1       4.709   6.472  16.488  0.00  0.00    +0.000 A 
ATOM     31  C   UNL     1       3.851   6.721  17.562  0.00  0.00    +0.000 A 
BRANCH  29  32
ATOM     32  C   UNL     1       5.852   4.911  14.879  0.00  0.00    +0.000 A 
ATOM     33  C   UNL     1       5.499   4.012  13.862  0.00  0.00    +0.000 A 
ATOM     34  C   UNL     1       6.355   3.795  12.789  0.00  0.00    +0.000 A 
ATOM     35  C   UNL     1       7.549   4.491  12.748  0.00  0.00    +0.000 A 
ATOM     36  N   UNL     1       7.936   5.367  13.696  0.00  0.00    +0.000 NA
ATOM     37  C   UNL     1       7.082   5.548  14.734  0.00  0.00    +0.000 A 
ENDBRANCH  29  32
ENDBRANCH  25  26
ENDBRANCH  23  24
ENDBRANCH  21  23
ENDBRANCH  20  21
ENDBRANCH   1  20
TORSDOF 10
ENDMDL
MODEL 9
REMARK VINA RESULT:      -7.5      7.551     11.097
REMARK  Name = 
REMARK  10 active torsions:
REMARK  status: ('A' for Active; 'I' for Inactive)
REMARK    1  A    between atoms: N_1  and  C_2
REMARK    2  A    between atoms: C_7  and  S_8
REMARK    3  A    between atoms: S_8  and  N_11
REMARK    4  A    between atoms: N_11  and  C_12
REMARK    5  A    between atoms: C_12  and  C_13
REMARK    6  A    between atoms: C_13  and  N_14
REMARK    7  A    between atoms: N_14  and  C_15
REMARK    8  A    between atoms: C_15  and  C_16
REMARK    9  A    between atoms: C_17  and  C_18
REMARK   10  A    between atoms: C_21  and  C_22
REMARK                            x       y       z     vdW  Elec       q    Type
REMARK                         _______ _______ _______ _____ _____    ______ ____
ROOT
ATOM      1  C   UNL     1      -0.615  10.118  21.236  0.00  0.00    +0.000 C 
ENDROOT
BRANCH   1   2
ATOM      2  N   UNL     1      -0.006  11.013  20.250  0.00  0.00    +0.000 NA
ATOM      3  H   UNL     1       1.008  10.950  20.180  0.00  0.00    +0.000 HD
BRANCH   2   4
ATOM      4  S   UNL     1      -0.558  12.607  20.259  0.00  0.00    +0.000 S 
ATOM      5  O   UNL     1       0.026  13.271  19.112  0.00  0.00    +0.000 OA
ATOM      6  O   UNL     1      -0.373  13.121  21.600  0.00  0.00    +0.000 OA
BRANCH   4  12
ATOM      7  C   UNL     1      -4.937  11.517  17.497  0.00  0.00    +0.000 A 
ATOM      8  N   UNL     1      -4.257  11.075  16.428  0.00  0.00    +0.000 NA
ATOM      9  C   UNL     1      -2.920  11.016  16.534  0.00  0.00    +0.000 A 
ATOM     10  C   UNL     1      -2.212  11.416  17.659  0.00  0.00    +0.000 A 
ATOM     11  C   UNL     1      -2.903  11.939  18.782  0.00  0.00    +0.000 A 
ATOM     12  C   UNL     1      -2.319  12.451  19.990  0.00  0.00    +0.000 A 
ATOM     13  C   UNL     1      -3.118  12.870  21.066  0.00  0.00    +0.000 A 
ATOM     14  C   UNL     1      -4.496  12.829  20.974  0.00  0.00    +0.000 A 
ATOM     15  C   UNL     1      -5.088  12.393  19.796  0.00  0.00    +0.000 A 
ATOM     16  C   UNL     1      -4.321  11.952  18.693  0.00  0.00    +0.000 A 
BRANCH   7  17
ATOM     17  N   UNL     1      -6.321  11.577  17.308  0.00  0.00    +0.000 N 
ATOM     18  H   UNL     1      -6.477  11.514  16.305  0.00  0.00    +0.000 HD
ATOM     19  H   UNL     1      -6.809  10.843  17.808  0.00  0.00    +0.000 HD
ENDBRANCH   7  17
ENDBRANCH   4  12
ENDBRANCH   2   4
ENDBRANCH   1   2
BRANCH   1  20
ATOM     20  C   UNL     1       0.377   9.032  21.683  0.00  0.00    +0.000 C 
BRANCH  20  21
ATOM     21  N   UNL     1       1.395   8.736  20.667  0.00  0.00    +0.000 NA
ATOM     22  H   UNL     1       2.226   9.302  20.846  0.00  0.00    +0.000 HD
BRANCH  21  23
ATOM     23  C   UNL     1       1.776   7.326  20.694  0.00  0.00    +0.000 C 
BRANCH  23  24
ATOM     24  C   UNL     1       2.461   6.978  19.421  0.00  0.00    +0.000 C 
ATOM     25  C   UNL     1       3.200   5.868  19.256  0.00  0.00    +0.000 C 
BRANCH  25  26
ATOM     26  C   UNL     1       3.893   5.570  18.003  0.00  0.00    +0.000 A 
ATOM     27  C   UNL     1       4.530   6.580  17.280  0.00  0.00    +0.000 A 
ATOM     28  C   UNL     1       5.193   6.294  16.085  0.00  0.00    +0.000 A 
ATOM     29  C   UNL     1       5.270   4.980  15.595  0.00  0.00    +0.000 A 
ATOM     30  C   UNL     1       4.634   3.977  16.342  0.00  0.00    +0.000 A 
ATOM     31  C   UNL     1       3.961   4.257  17.533  0.00  0.00    +0.000 A 
BRANCH  29  32
ATOM     32  C   UNL     1       6.005   4.678  14.353  0.00  0.00    +0.000 A 
ATOM     33  C   UNL     1       7.222   5.300  14.042  0.00  0.00    +0.000 A 
ATOM     34  C   UNL     1       7.889   4.988  12.862  0.00  0.00    +0.000 A 
ATOM     35  C   UNL     1       7.328   4.049  12.018  0.00  0.00    +0.000 A 
ATOM     36  N   UNL     1       6.163   3.420  12.269  0.00  0.00    +0.000 NA
ATOM     37  C   UNL     1       5.534   3.754  13.423  0.00  0.00    +0.000 A 
ENDBRANCH  29  32
ENDBRANCH  25  26
ENDBRANCH  23  24
ENDBRANCH  21  23
ENDBRANCH  20  21
ENDBRANCH   1  20
TORSDOF 10
ENDMDL
