MODEL 1
REMARK VINA RESULT:      -7.7      0.000      0.000
REMARK  Name = 
REMARK  10 active torsions:
REMARK  status: ('A' for Active; 'I' for Inactive)
REMARK    1  A    between atoms: C_1  and  C_2
REMARK    2  A    between atoms: C_2  and  C_3
REMARK    3  A    between atoms: C_8  and  N_9
REMARK    4  A    between atoms: C_10  and  C_11
REMARK    5  A    between atoms: C_11  and  N_12
REMARK    6  A    between atoms: C_14  and  C_15
REMARK    7  A    between atoms: C_16  and  C_17
REMARK    8  A    between atoms: C_17  and  C_18
REMARK    9  A    between atoms: C_17  and  O_19
REMARK   10  A    between atoms: C_32  and  C_33
REMARK                            x       y       z     vdW  Elec       q    Type
REMARK                         _______ _______ _______ _____ _____    ______ ____
ROOT
ATOM      1  N   UNL     1       4.051   5.354  18.411  0.00  0.00    +0.000 N 
ATOM      2  C   UNL     1       3.247   6.145  19.226  0.00  0.00    +0.000 A 
ATOM      3  C   UNL     1       3.062   5.618  20.475  0.00  0.00    +0.000 A 
ATOM      4  C   UNL     1       2.804   4.136  20.499  0.00  0.00    +0.000 A 
ATOM      5  C   UNL     1       2.398   3.490  21.667  0.00  0.00    +0.000 A 
ATOM      6  C   UNL     1       1.356   2.580  21.577  0.00  0.00    +0.000 A 
ATOM      7  C   UNL     1       0.700   2.457  20.353  0.00  0.00    +0.000 A 
ATOM      8  C   UNL     1       1.253   3.010  19.170  0.00  0.00    +0.000 A 
ATOM      9  C   UNL     1       0.311   3.322  18.042  0.00  0.00    +0.000 C 
ATOM     10  C   UNL     1       2.504   3.617  19.249  0.00  0.00    +0.000 A 
ATOM     11  C   UNL     1       3.539   4.024  18.204  0.00  0.00    +0.000 A 
ATOM     12  O   UNL     1       3.964   3.155  17.452  0.00  0.00    +0.000 OA
ENDROOT
BRANCH   1  18
ATOM     13  C   UNL     1       6.103   6.152  17.156  0.00  0.00    +0.000 A 
ATOM     14  C   UNL     1       7.512   6.209  17.182  0.00  0.00    +0.000 A 
ATOM     15  C   UNL     1       8.251   5.927  18.339  0.00  0.00    +0.000 A 
ATOM     16  C   UNL     1       7.594   5.733  19.535  0.00  0.00    +0.000 A 
ATOM     17  C   UNL     1       6.209   5.689  19.528  0.00  0.00    +0.000 A 
ATOM     18  C   UNL     1       5.448   5.733  18.325  0.00  0.00    +0.000 A 
BRANCH  13  20
ATOM     19  C   UNL     1       5.272   5.611  14.721  0.00  0.00    +0.000 C 
ATOM     20  C   UNL     1       5.311   6.541  15.930  0.00  0.00    +0.000 C 
ENDBRANCH  13  20
ENDBRANCH   1  18
BRANCH   2  21
ATOM     21  C   UNL     1       2.170   6.863  18.386  0.00  0.00    +0.000 C 
BRANCH  21  22
ATOM     22  N   UNL     1       1.829   8.262  18.762  0.00  0.00    +0.000 N 
ATOM     23  N   UNL     1       2.182   9.300  17.941  0.00  0.00    +0.000 NA
ATOM     24  C   UNL     1       1.691  10.388  18.570  0.00  0.00    +0.000 A 
ATOM     25  C   UNL     1       0.921  10.067  19.697  0.00  0.00    +0.000 A 
ATOM     26  C   UNL     1       0.111  10.735  20.621  0.00  0.00    +0.000 A 
ATOM     27  N   UNL     1      -0.371  12.034  20.456  0.00  0.00    +0.000 N 
ATOM     28  N   UNL     1      -0.245  10.082  21.743  0.00  0.00    +0.000 NA
ATOM     29  C   UNL     1       0.157   8.801  21.881  0.00  0.00    +0.000 A 
ATOM     30  N   UNL     1       0.777   8.008  20.975  0.00  0.00    +0.000 NA
ATOM     31  C   UNL     1       1.144   8.696  19.887  0.00  0.00    +0.000 A 
ATOM     32  H   UNL     1      -0.524  12.319  19.496  0.00  0.00    +0.000 HD
ATOM     33  H   UNL     1      -1.143  12.221  21.091  0.00  0.00    +0.000 HD
BRANCH  24  34
ATOM     34  C   UNL     1       2.137  11.701  18.207  0.00  0.00    +0.000 C 
ATOM     35  C   UNL     1       2.509  12.837  18.066  0.00  0.00    +0.000 C 
BRANCH  35  36
ATOM     36  C   UNL     1       3.023  14.205  17.933  0.00  0.00    +0.000 C 
ATOM     37  C   UNL     1       2.715  15.036  19.165  0.00  0.00    +0.000 C 
BRANCH  36  38
ATOM     38  O   UNL     1       4.439  14.196  17.757  0.00  0.00    +0.000 OA
ATOM     39  H   UNL     1       4.819  14.778  18.436  0.00  0.00    +0.000 HD
ENDBRANCH  36  38
ENDBRANCH  35  36
ENDBRANCH  24  34
ENDBRANCH  21  22
ENDBRANCH   2  21
TORSDOF 7
ENDMDL
MODEL 2
REMARK VINA RESULT:      -7.5      4.030     10.044
REMARK  Name = 
REMARK  10 active torsions:
REMARK  status: ('A' for Active; 'I' for Inactive)
REMARK    1  A    between atoms: C_1  and  C_2
REMARK    2  A    between atoms: C_2  and  C_3
REMARK    3  A    between atoms: C_8  and  N_9
REMARK    4  A    between atoms: C_10  and  C_11
REMARK    5  A    between atoms: C_11  and  N_12
REMARK    6  A    between atoms: C_14  and  C_15
REMARK    7  A    between atoms: C_16  and  C_17
REMARK    8  A    between atoms: C_17  and  C_18
REMARK    9  A    between atoms: C_17  and  O_19
REMARK   10  A    between atoms: C_32  and  C_33
REMARK                            x       y       z     vdW  Elec       q    Type
REMARK                         _______ _______ _______ _____ _____    ______ ____
ROOT
ATOM      1  N   UNL     1      -2.179  12.842  20.821  0.00  0.00    +0.000 N 
ATOM      2  C   UNL     1      -2.060  12.066  21.968  0.00  0.00    +0.000 A 
ATOM      3  C   UNL     1      -3.033  12.323  22.896  0.00  0.00    +0.000 A 
ATOM      4  C   UNL     1      -3.344  13.781  23.091  0.00  0.00    +0.000 A 
ATOM      5  C   UNL     1      -4.160  14.215  24.136  0.00  0.00    +0.000 A 
ATOM      6  C   UNL     1      -3.744  15.312  24.873  0.00  0.00    +0.000 A 
ATOM      7  C   UNL     1      -2.481  15.840  24.604  0.00  0.00    +0.000 A 
ATOM      8  C   UNL     1      -1.771  15.468  23.434  0.00  0.00    +0.000 A 
ATOM      9  C   UNL     1      -0.275  15.616  23.453  0.00  0.00    +0.000 C 
ATOM     10  C   UNL     1      -2.396  14.619  22.525  0.00  0.00    +0.000 A 
ATOM     11  C   UNL     1      -2.122  14.260  21.068  0.00  0.00    +0.000 A 
ATOM     12  O   UNL     1      -2.084  15.172  20.250  0.00  0.00    +0.000 OA
ENDROOT
BRANCH   1  18
ATOM     13  C   UNL     1      -4.221  12.245  19.443  0.00  0.00    +0.000 A 
ATOM     14  C   UNL     1      -4.728  11.360  18.468  0.00  0.00    +0.000 A 
ATOM     15  C   UNL     1      -3.895  10.522  17.713  0.00  0.00    +0.000 A 
ATOM     16  C   UNL     1      -2.527  10.660  17.806  0.00  0.00    +0.000 A 
ATOM     17  C   UNL     1      -2.015  11.537  18.749  0.00  0.00    +0.000 A 
ATOM     18  C   UNL     1      -2.840  12.218  19.690  0.00  0.00    +0.000 A 
BRANCH  13  20
ATOM     19  C   UNL     1      -6.527  12.780  20.589  0.00  0.00    +0.000 C 
ATOM     20  C   UNL     1      -5.117  13.206  20.190  0.00  0.00    +0.000 C 
ENDBRANCH  13  20
ENDBRANCH   1  18
BRANCH   2  21
ATOM     21  C   UNL     1      -0.574  11.789  22.279  0.00  0.00    +0.000 C 
BRANCH  21  22
ATOM     22  N   UNL     1       0.163  10.888  21.352  0.00  0.00    +0.000 N 
ATOM     23  N   UNL     1       0.147   9.533  21.554  0.00  0.00    +0.000 NA
ATOM     24  C   UNL     1       0.873   9.048  20.524  0.00  0.00    +0.000 A 
ATOM     25  C   UNL     1       1.238  10.035  19.599  0.00  0.00    +0.000 A 
ATOM     26  C   UNL     1       1.858  10.102  18.347  0.00  0.00    +0.000 A 
ATOM     27  N   UNL     1       2.068   9.005  17.510  0.00  0.00    +0.000 N 
ATOM     28  N   UNL     1       2.270  11.304  17.904  0.00  0.00    +0.000 NA
ATOM     29  C   UNL     1       2.009  12.382  18.674  0.00  0.00    +0.000 A 
ATOM     30  N   UNL     1       1.260  12.455  19.799  0.00  0.00    +0.000 NA
ATOM     31  C   UNL     1       0.894  11.240  20.228  0.00  0.00    +0.000 A 
ATOM     32  H   UNL     1       1.382   8.264  17.589  0.00  0.00    +0.000 HD
ATOM     33  H   UNL     1       2.275   9.304  16.561  0.00  0.00    +0.000 HD
BRANCH  24  34
ATOM     34  C   UNL     1       1.373   7.705  20.557  0.00  0.00    +0.000 C 
ATOM     35  C   UNL     1       1.688   6.554  20.713  0.00  0.00    +0.000 C 
BRANCH  35  36
ATOM     36  C   UNL     1       2.004   5.132  20.889  0.00  0.00    +0.000 C 
ATOM     37  C   UNL     1       0.910   4.246  20.322  0.00  0.00    +0.000 C 
BRANCH  36  38
ATOM     38  O   UNL     1       3.221   4.800  20.223  0.00  0.00    +0.000 OA
ATOM     39  H   UNL     1       3.837   5.540  20.358  0.00  0.00    +0.000 HD
ENDBRANCH  36  38
ENDBRANCH  35  36
ENDBRANCH  24  34
ENDBRANCH  21  22
ENDBRANCH   2  21
TORSDOF 7
ENDMDL
MODEL 3
REMARK VINA RESULT:      -7.4      5.743      9.732
REMARK  Name = 
REMARK  10 active torsions:
REMARK  status: ('A' for Active; 'I' for Inactive)
REMARK    1  A    between atoms: C_1  and  C_2
REMARK    2  A    between atoms: C_2  and  C_3
REMARK    3  A    between atoms: C_8  and  N_9
REMARK    4  A    between atoms: C_10  and  C_11
REMARK    5  A    between atoms: C_11  and  N_12
REMARK    6  A    between atoms: C_14  and  C_15
REMARK    7  A    between atoms: C_16  and  C_17
REMARK    8  A    between atoms: C_17  and  C_18
REMARK    9  A    between atoms: C_17  and  O_19
REMARK   10  A    between atoms: C_32  and  C_33
REMARK                            x       y       z     vdW  Elec       q    Type
REMARK                         _______ _______ _______ _____ _____    ______ ____
ROOT
ATOM      1  N   UNL     1       0.265  12.786  20.742  0.00  0.00    +0.000 N 
ATOM      2  C   UNL     1      -0.139  12.862  19.414  0.00  0.00    +0.000 A 
ATOM      3  C   UNL     1       0.901  12.777  18.529  0.00  0.00    +0.000 A 
ATOM      4  C   UNL     1       2.120  13.570  18.915  0.00  0.00    +0.000 A 
ATOM      5  C   UNL     1       3.181  13.747  18.027  0.00  0.00    +0.000 A 
ATOM      6  C   UNL     1       3.719  15.018  17.903  0.00  0.00    +0.000 A 
ATOM      7  C   UNL     1       3.090  16.063  18.581  0.00  0.00    +0.000 A 
ATOM      8  C   UNL     1       2.127  15.802  19.589  0.00  0.00    +0.000 A 
ATOM      9  C   UNL     1       1.127  16.882  19.891  0.00  0.00    +0.000 C 
ATOM     10  C   UNL     1       1.877  14.477  19.935  0.00  0.00    +0.000 A 
ATOM     11  C   UNL     1       1.194  13.816  21.129  0.00  0.00    +0.000 A 
ATOM     12  O   UNL     1       1.627  14.068  22.247  0.00  0.00    +0.000 OA
ENDROOT
BRANCH   1  18
ATOM     13  C   UNL     1      -0.520  11.226  22.579  0.00  0.00    +0.000 A 
ATOM     14  C   UNL     1      -0.296   9.976  23.196  0.00  0.00    +0.000 A 
ATOM     15  C   UNL     1       0.509   8.988  22.613  0.00  0.00    +0.000 A 
ATOM     16  C   UNL     1       0.983   9.166  21.331  0.00  0.00    +0.000 A 
ATOM     17  C   UNL     1       0.758  10.382  20.707  0.00  0.00    +0.000 A 
ATOM     18  C   UNL     1       0.151  11.485  21.374  0.00  0.00    +0.000 A 
BRANCH  13  20
ATOM     19  C   UNL     1      -2.864  11.842  23.599  0.00  0.00    +0.000 C 
ATOM     20  C   UNL     1      -1.457  12.251  23.172  0.00  0.00    +0.000 C 
ENDBRANCH  13  20
ENDBRANCH   1  18
BRANCH   2  21
ATOM     21  C   UNL     1      -1.362  13.794  19.275  0.00  0.00    +0.000 C 
BRANCH  21  22
ATOM     22  N   UNL     1      -2.707  13.194  19.493  0.00  0.00    +0.000 N 
ATOM     23  N   UNL     1      -3.470  13.590  20.559  0.00  0.00    +0.000 NA
ATOM     24  C   UNL     1      -4.608  12.879  20.419  0.00  0.00    +0.000 A 
ATOM     25  C   UNL     1      -4.651  12.143  19.227  0.00  0.00    +0.000 A 
ATOM     26  C   UNL     1      -5.573  11.357  18.528  0.00  0.00    +0.000 A 
ATOM     27  N   UNL     1      -6.943  11.324  18.791  0.00  0.00    +0.000 N 
ATOM     28  N   UNL     1      -5.118  10.588  17.521  0.00  0.00    +0.000 NA
ATOM     29  C   UNL     1      -3.807  10.666  17.211  0.00  0.00    +0.000 A 
ATOM     30  N   UNL     1      -2.874  11.520  17.693  0.00  0.00    +0.000 NA
ATOM     31  C   UNL     1      -3.350  12.246  18.713  0.00  0.00    +0.000 A 
ATOM     32  H   UNL     1      -7.332  12.183  19.159  0.00  0.00    +0.000 HD
ATOM     33  H   UNL     1      -7.454  10.915  18.014  0.00  0.00    +0.000 HD
BRANCH  24  34
ATOM     34  C   UNL     1      -5.528  12.755  21.512  0.00  0.00    +0.000 C 
ATOM     35  C   UNL     1      -6.167  12.681  22.529  0.00  0.00    +0.000 C 
BRANCH  35  36
ATOM     36  C   UNL     1      -6.930  12.662  23.783  0.00  0.00    +0.000 C 
ATOM     37  C   UNL     1      -7.916  13.813  23.850  0.00  0.00    +0.000 C 
BRANCH  36  38
ATOM     38  O   UNL     1      -7.670  11.448  23.902  0.00  0.00    +0.000 OA
ATOM     39  H   UNL     1      -8.483  11.651  24.395  0.00  0.00    +0.000 HD
ENDBRANCH  36  38
ENDBRANCH  35  36
ENDBRANCH  24  34
ENDBRANCH  21  22
ENDBRANCH   2  21
TORSDOF 7
ENDMDL
MODEL 4
REMARK VINA RESULT:      -7.2      4.651      9.007
REMARK  Name = 
REMARK  10 active torsions:
REMARK  status: ('A' for Active; 'I' for Inactive)
REMARK    1  A    between atoms: C_1  and  C_2
REMARK    2  A    between atoms: C_2  and  C_3
REMARK    3  A    between atoms: C_8  and  N_9
REMARK    4  A    between atoms: C_10  and  C_11
REMARK    5  A    between atoms: C_11  and  N_12
REMARK    6  A    between atoms: C_14  and  C_15
REMARK    7  A    between atoms: C_16  and  C_17
REMARK    8  A    between atoms: C_17  and  C_18
REMARK    9  A    between atoms: C_17  and  O_19
REMARK   10  A    between atoms: C_32  and  C_33
REMARK                            x       y       z     vdW  Elec       q    Type
REMARK                         _______ _______ _______ _____ _____    ______ ____
ROOT
ATOM      1  N   UNL     1       0.967  12.395  19.075  0.00  0.00    +0.000 N 
ATOM      2  C   UNL     1       2.090  13.138  19.422  0.00  0.00    +0.000 A 
ATOM      3  C   UNL     1       2.048  13.609  20.706  0.00  0.00    +0.000 A 
ATOM      4  C   UNL     1       0.714  14.158  21.130  0.00  0.00    +0.000 A 
ATOM      5  C   UNL     1       0.564  14.854  22.330  0.00  0.00    +0.000 A 
ATOM      6  C   UNL     1      -0.168  16.030  22.312  0.00  0.00    +0.000 A 
ATOM      7  C   UNL     1      -0.607  16.507  21.076  0.00  0.00    +0.000 A 
ATOM      8  C   UNL     1      -0.569  15.685  19.922  0.00  0.00    +0.000 A 
ATOM      9  C   UNL     1      -0.530  16.366  18.583  0.00  0.00    +0.000 C 
ATOM     10  C   UNL     1      -0.151  14.364  20.067  0.00  0.00    +0.000 A 
ATOM     11  C   UNL     1      -0.271  13.125  19.185  0.00  0.00    +0.000 A 
ATOM     12  O   UNL     1      -1.393  12.773  18.842  0.00  0.00    +0.000 OA
ENDROOT
BRANCH   1  18
ATOM     13  C   UNL     1       0.754  10.179  20.286  0.00  0.00    +0.000 A 
ATOM     14  C   UNL     1       1.203   8.842  20.317  0.00  0.00    +0.000 A 
ATOM     15  C   UNL     1       1.908   8.265  19.252  0.00  0.00    +0.000 A 
ATOM     16  C   UNL     1       2.047   8.962  18.071  0.00  0.00    +0.000 A 
ATOM     17  C   UNL     1       1.597  10.271  18.021  0.00  0.00    +0.000 A 
ATOM     18  C   UNL     1       1.096  10.954  19.166  0.00  0.00    +0.000 A 
BRANCH  13  20
ATOM     19  C   UNL     1      -0.230  10.013  22.719  0.00  0.00    +0.000 C 
ATOM     20  C   UNL     1      -0.080  10.767  21.400  0.00  0.00    +0.000 C 
ENDBRANCH  13  20
ENDBRANCH   1  18
BRANCH   2  21
ATOM     21  C   UNL     1       2.623  13.913  18.198  0.00  0.00    +0.000 C 
BRANCH  21  22
ATOM     22  N   UNL     1       3.997  14.479  18.293  0.00  0.00    +0.000 N 
ATOM     23  N   UNL     1       5.051  13.824  17.712  0.00  0.00    +0.000 NA
ATOM     24  C   UNL     1       6.105  14.628  17.964  0.00  0.00    +0.000 A 
ATOM     25  C   UNL     1       5.738  15.838  18.569  0.00  0.00    +0.000 A 
ATOM     26  C   UNL     1       6.352  17.040  18.934  0.00  0.00    +0.000 A 
ATOM     27  N   UNL     1       7.611  17.451  18.494  0.00  0.00    +0.000 N 
ATOM     28  N   UNL     1       5.684  17.871  19.757  0.00  0.00    +0.000 NA
ATOM     29  C   UNL     1       4.437  17.517  20.133  0.00  0.00    +0.000 A 
ATOM     30  N   UNL     1       3.684  16.481  19.693  0.00  0.00    +0.000 NA
ATOM     31  C   UNL     1       4.389  15.659  18.905  0.00  0.00    +0.000 A 
ATOM     32  H   UNL     1       7.876  17.119  17.574  0.00  0.00    +0.000 HD
ATOM     33  H   UNL     1       7.746  18.446  18.650  0.00  0.00    +0.000 HD
BRANCH  24  34
ATOM     34  C   UNL     1       7.444  14.139  17.814  0.00  0.00    +0.000 C 
ATOM     35  C   UNL     1       8.581  13.746  17.855  0.00  0.00    +0.000 C 
BRANCH  35  36
ATOM     36  C   UNL     1       9.944  13.211  17.946  0.00  0.00    +0.000 C 
ATOM     37  C   UNL     1       9.939  11.701  18.101  0.00  0.00    +0.000 C 
BRANCH  36  38
ATOM     38  O   UNL     1      10.688  13.526  16.771  0.00  0.00    +0.000 OA
ATOM     39  H   UNL     1      11.576  13.145  16.879  0.00  0.00    +0.000 HD
ENDBRANCH  36  38
ENDBRANCH  35  36
ENDBRANCH  24  34
ENDBRANCH  21  22
ENDBRANCH   2  21
TORSDOF 7
ENDMDL
MODEL 5
REMARK VINA RESULT:      -7.2      4.484     10.434
REMARK  Name = 
REMARK  10 active torsions:
REMARK  status: ('A' for Active; 'I' for Inactive)
REMARK    1  A    between atoms: C_1  and  C_2
REMARK    2  A    between atoms: C_2  and  C_3
REMARK    3  A    between atoms: C_8  and  N_9
REMARK    4  A    between atoms: C_10  and  C_11
REMARK    5  A    between atoms: C_11  and  N_12
REMARK    6  A    between atoms: C_14  and  C_15
REMARK    7  A    between atoms: C_16  and  C_17
REMARK    8  A    between atoms: C_17  and  C_18
REMARK    9  A    between atoms: C_17  and  O_19
REMARK   10  A    between atoms: C_32  and  C_33
REMARK                            x       y       z     vdW  Elec       q    Type
REMARK                         _______ _______ _______ _____ _____    ______ ____
ROOT
ATOM      1  N   UNL     1      -2.593  13.362  21.134  0.00  0.00    +0.000 N 
ATOM      2  C   UNL     1      -2.583  12.686  22.349  0.00  0.00    +0.000 A 
ATOM      3  C   UNL     1      -3.574  13.093  23.200  0.00  0.00    +0.000 A 
ATOM      4  C   UNL     1      -3.783  14.582  23.252  0.00  0.00    +0.000 A 
ATOM      5  C   UNL     1      -4.610  15.164  24.214  0.00  0.00    +0.000 A 
ATOM      6  C   UNL     1      -4.147  16.292  24.873  0.00  0.00    +0.000 A 
ATOM      7  C   UNL     1      -2.837  16.702  24.622  0.00  0.00    +0.000 A 
ATOM      8  C   UNL     1      -2.106  16.178  23.527  0.00  0.00    +0.000 A 
ATOM      9  C   UNL     1      -0.605  16.221  23.608  0.00  0.00    +0.000 C 
ATOM     10  C   UNL     1      -2.752  15.297  22.664  0.00  0.00    +0.000 A 
ATOM     11  C   UNL     1      -2.441  14.789  21.259  0.00  0.00    +0.000 A 
ATOM     12  O   UNL     1      -2.299  15.618  20.369  0.00  0.00    +0.000 OA
ENDROOT
BRANCH   1  18
ATOM     13  C   UNL     1      -4.633  12.659  19.803  0.00  0.00    +0.000 A 
ATOM     14  C   UNL     1      -5.122  11.732  18.859  0.00  0.00    +0.000 A 
ATOM     15  C   UNL     1      -4.271  10.905  18.113  0.00  0.00    +0.000 A 
ATOM     16  C   UNL     1      -2.907  11.094  18.180  0.00  0.00    +0.000 A 
ATOM     17  C   UNL     1      -2.413  12.012  19.093  0.00  0.00    +0.000 A 
ATOM     18  C   UNL     1      -3.248  12.687  20.029  0.00  0.00    +0.000 A 
BRANCH  13  20
ATOM     19  C   UNL     1      -5.902  14.958  19.928  0.00  0.00    +0.000 C 
ATOM     20  C   UNL     1      -5.550  13.606  20.541  0.00  0.00    +0.000 C 
ENDBRANCH  13  20
ENDBRANCH   1  18
BRANCH   2  21
ATOM     21  C   UNL     1      -1.137  12.335  22.758  0.00  0.00    +0.000 C 
BRANCH  21  22
ATOM     22  N   UNL     1      -0.273  11.691  21.730  0.00  0.00    +0.000 N 
ATOM     23  N   UNL     1      -0.255  10.328  21.604  0.00  0.00    +0.000 NA
ATOM     24  C   UNL     1       0.592  10.113  20.575  0.00  0.00    +0.000 A 
ATOM     25  C   UNL     1       1.011  11.297  19.955  0.00  0.00    +0.000 A 
ATOM     26  C   UNL     1       1.754  11.669  18.829  0.00  0.00    +0.000 A 
ATOM     27  N   UNL     1       2.093  10.807  17.786  0.00  0.00    +0.000 N 
ATOM     28  N   UNL     1       2.161  12.949  18.731  0.00  0.00    +0.000 NA
ATOM     29  C   UNL     1       1.779  13.808  19.699  0.00  0.00    +0.000 A 
ATOM     30  N   UNL     1       0.915  13.599  20.721  0.00  0.00    +0.000 NA
ATOM     31  C   UNL     1       0.556  12.312  20.808  0.00  0.00    +0.000 A 
ATOM     32  H   UNL     1       1.433  10.059  17.612  0.00  0.00    +0.000 HD
ATOM     33  H   UNL     1       2.385  11.327  16.963  0.00  0.00    +0.000 HD
BRANCH  24  34
ATOM     34  C   UNL     1       1.139   8.808  20.345  0.00  0.00    +0.000 C 
ATOM     35  C   UNL     1       1.712   7.790  20.057  0.00  0.00    +0.000 C 
BRANCH  35  36
ATOM     36  C   UNL     1       2.471   6.574  19.739  0.00  0.00    +0.000 C 
ATOM     37  C   UNL     1       1.929   5.370  20.486  0.00  0.00    +0.000 C 
BRANCH  36  38
ATOM     38  O   UNL     1       2.402   6.288  18.343  0.00  0.00    +0.000 OA
ATOM     39  H   UNL     1       3.280   5.977  18.067  0.00  0.00    +0.000 HD
ENDBRANCH  36  38
ENDBRANCH  35  36
ENDBRANCH  24  34
ENDBRANCH  21  22
ENDBRANCH   2  21
TORSDOF 7
ENDMDL
MODEL 6
REMARK VINA RESULT:      -7.2      4.689      8.937
REMARK  Name = 
REMARK  10 active torsions:
REMARK  status: ('A' for Active; 'I' for Inactive)
REMARK    1  A    between atoms: C_1  and  C_2
REMARK    2  A    between atoms: C_2  and  C_3
REMARK    3  A    between atoms: C_8  and  N_9
REMARK    4  A    between atoms: C_10  and  C_11
REMARK    5  A    between atoms: C_11  and  N_12
REMARK    6  A    between atoms: C_14  and  C_15
REMARK    7  A    between atoms: C_16  and  C_17
REMARK    8  A    between atoms: C_17  and  C_18
REMARK    9  A    between atoms: C_17  and  O_19
REMARK   10  A    between atoms: C_32  and  C_33
REMARK                            x       y       z     vdW  Elec       q    Type
REMARK                         _______ _______ _______ _____ _____    ______ ____
ROOT
ATOM      1  N   UNL     1       1.290  12.465  19.705  0.00  0.00    +0.000 N 
ATOM      2  C   UNL     1       0.980  13.064  18.490  0.00  0.00    +0.000 A 
ATOM      3  C   UNL     1       2.083  13.354  17.734  0.00  0.00    +0.000 A 
ATOM      4  C   UNL     1       3.234  13.939  18.505  0.00  0.00    +0.000 A 
ATOM      5  C   UNL     1       4.347  14.472  17.853  0.00  0.00    +0.000 A 
ATOM      6  C   UNL     1       4.835  15.692  18.292  0.00  0.00    +0.000 A 
ATOM      7  C   UNL     1       4.114  16.368  19.277  0.00  0.00    +0.000 A 
ATOM      8  C   UNL     1       3.094  15.713  20.012  0.00  0.00    +0.000 A 
ATOM      9  C   UNL     1       2.028  16.569  20.636  0.00  0.00    +0.000 C 
ATOM     10  C   UNL     1       2.879  14.357  19.778  0.00  0.00    +0.000 A 
ATOM     11  C   UNL     1       2.143  13.265  20.547  0.00  0.00    +0.000 A 
ATOM     12  O   UNL     1       2.483  13.050  21.704  0.00  0.00    +0.000 OA
ENDROOT
BRANCH   1  18
ATOM     13  C   UNL     1       0.668  10.278  20.825  0.00  0.00    +0.000 A 
ATOM     14  C   UNL     1       0.902   8.887  20.832  0.00  0.00    +0.000 A 
ATOM     15  C   UNL     1       1.570   8.235  19.787  0.00  0.00    +0.000 A 
ATOM     16  C   UNL     1       1.883   8.933  18.640  0.00  0.00    +0.000 A 
ATOM     17  C   UNL     1       1.644  10.297  18.612  0.00  0.00    +0.000 A 
ATOM     18  C   UNL     1       1.190  11.019  19.753  0.00  0.00    +0.000 A 
BRANCH  13  20
ATOM     19  C   UNL     1      -0.788  10.127  23.010  0.00  0.00    +0.000 C 
ATOM     20  C   UNL     1      -0.128  10.959  21.914  0.00  0.00    +0.000 C 
ENDBRANCH  13  20
ENDBRANCH   1  18
BRANCH   2  21
ATOM     21  C   UNL     1      -0.271  13.958  18.633  0.00  0.00    +0.000 C 
BRANCH  21  22
ATOM     22  N   UNL     1      -1.513  13.320  19.148  0.00  0.00    +0.000 N 
ATOM     23  N   UNL     1      -2.020  13.687  20.366  0.00  0.00    +0.000 NA
ATOM     24  C   UNL     1      -3.141  12.945  20.483  0.00  0.00    +0.000 A 
ATOM     25  C   UNL     1      -3.438  12.216  19.325  0.00  0.00    +0.000 A 
ATOM     26  C   UNL     1      -4.476  11.409  18.847  0.00  0.00    +0.000 A 
ATOM     27  N   UNL     1      -5.747  11.336  19.418  0.00  0.00    +0.000 N 
ATOM     28  N   UNL     1      -4.246  10.659  17.752  0.00  0.00    +0.000 NA
ATOM     29  C   UNL     1      -3.044  10.775  17.150  0.00  0.00    +0.000 A 
ATOM     30  N   UNL     1      -2.048  11.653  17.415  0.00  0.00    +0.000 NA
ATOM     31  C   UNL     1      -2.294  12.359  18.526  0.00  0.00    +0.000 A 
ATOM     32  H   UNL     1      -6.063  12.181  19.877  0.00  0.00    +0.000 HD
ATOM     33  H   UNL     1      -6.413  10.917  18.774  0.00  0.00    +0.000 HD
BRANCH  24  34
ATOM     34  C   UNL     1      -3.779  12.789  21.758  0.00  0.00    +0.000 C 
ATOM     35  C   UNL     1      -4.295  12.824  22.844  0.00  0.00    +0.000 C 
BRANCH  35  36
ATOM     36  C   UNL     1      -4.976  12.909  24.142  0.00  0.00    +0.000 C 
ATOM     37  C   UNL     1      -6.461  13.175  23.973  0.00  0.00    +0.000 C 
BRANCH  36  38
ATOM     38  O   UNL     1      -4.832  11.690  24.867  0.00  0.00    +0.000 OA
ATOM     39  H   UNL     1      -3.945  11.342  24.676  0.00  0.00    +0.000 HD
ENDBRANCH  36  38
ENDBRANCH  35  36
ENDBRANCH  24  34
ENDBRANCH  21  22
ENDBRANCH   2  21
TORSDOF 7
ENDMDL
MODEL 7
REMARK VINA RESULT:      -7.1      5.458      8.893
REMARK  Name = 
REMARK  10 active torsions:
REMARK  status: ('A' for Active; 'I' for Inactive)
REMARK    1  A    between atoms: C_1  and  C_2
REMARK    2  A    between atoms: C_2  and  C_3
REMARK    3  A    between atoms: C_8  and  N_9
REMARK    4  A    between atoms: C_10  and  C_11
REMARK    5  A    between atoms: C_11  and  N_12
REMARK    6  A    between atoms: C_14  and  C_15
REMARK    7  A    between atoms: C_16  and  C_17
REMARK    8  A    between atoms: C_17  and  C_18
REMARK    9  A    between atoms: C_17  and  O_19
REMARK   10  A    between atoms: C_32  and  C_33
REMARK                            x       y       z     vdW  Elec       q    Type
REMARK                         _______ _______ _______ _____ _____    ______ ____
ROOT
ATOM      1  N   UNL     1      -1.112  12.512  21.136  0.00  0.00    +0.000 N 
ATOM      2  C   UNL     1      -0.839  13.262  22.275  0.00  0.00    +0.000 A 
ATOM      3  C   UNL     1      -1.611  12.911  23.349  0.00  0.00    +0.000 A 
ATOM      4  C   UNL     1      -3.060  12.667  23.027  0.00  0.00    +0.000 A 
ATOM      5  C   UNL     1      -4.009  12.500  24.037  0.00  0.00    +0.000 A 
ATOM      6  C   UNL     1      -5.211  13.179  23.916  0.00  0.00    +0.000 A 
ATOM      7  C   UNL     1      -5.351  14.078  22.859  0.00  0.00    +0.000 A 
ATOM      8  C   UNL     1      -4.429  14.086  21.782  0.00  0.00    +0.000 A 
ATOM      9  C   UNL     1      -4.296  15.356  20.989  0.00  0.00    +0.000 C 
ATOM     10  C   UNL     1      -3.421  13.125  21.770  0.00  0.00    +0.000 A 
ATOM     11  C   UNL     1      -2.477  12.610  20.687  0.00  0.00    +0.000 A 
ATOM     12  O   UNL     1      -2.973  12.160  19.662  0.00  0.00    +0.000 OA
ENDROOT
BRANCH   1  18
ATOM     13  C   UNL     1       0.613  11.263  19.762  0.00  0.00    +0.000 A 
ATOM     14  C   UNL     1       1.189   9.998  19.519  0.00  0.00    +0.000 A 
ATOM     15  C   UNL     1       0.997   8.911  20.383  0.00  0.00    +0.000 A 
ATOM     16  C   UNL     1       0.355   9.104  21.587  0.00  0.00    +0.000 A 
ATOM     17  C   UNL     1      -0.202  10.346  21.846  0.00  0.00    +0.000 A 
ATOM     18  C   UNL     1      -0.227  11.391  20.878  0.00  0.00    +0.000 A 
BRANCH  13  20
ATOM     19  C   UNL     1       2.274  12.621  18.240  0.00  0.00    +0.000 C 
ATOM     20  C   UNL     1       0.895  12.451  18.872  0.00  0.00    +0.000 C 
ENDBRANCH  13  20
ENDBRANCH   1  18
BRANCH   2  21
ATOM     21  C   UNL     1      -0.440  14.702  21.889  0.00  0.00    +0.000 C 
BRANCH  21  22
ATOM     22  N   UNL     1       0.966  14.929  21.455  0.00  0.00    +0.000 N 
ATOM     23  N   UNL     1       1.976  14.159  21.968  0.00  0.00    +0.000 NA
ATOM     24  C   UNL     1       3.078  14.613  21.334  0.00  0.00    +0.000 A 
ATOM     25  C   UNL     1       2.787  15.556  20.339  0.00  0.00    +0.000 A 
ATOM     26  C   UNL     1       3.474  16.247  19.336  0.00  0.00    +0.000 A 
ATOM     27  N   UNL     1       4.754  15.920  18.885  0.00  0.00    +0.000 N 
ATOM     28  N   UNL     1       2.861  17.292  18.749  0.00  0.00    +0.000 NA
ATOM     29  C   UNL     1       1.596  17.574  19.127  0.00  0.00    +0.000 A 
ATOM     30  N   UNL     1       0.781  16.865  19.942  0.00  0.00    +0.000 NA
ATOM     31  C   UNL     1       1.431  15.854  20.533  0.00  0.00    +0.000 A 
ATOM     32  H   UNL     1       4.994  14.938  18.945  0.00  0.00    +0.000 HD
ATOM     33  H   UNL     1       4.950  16.360  17.990  0.00  0.00    +0.000 HD
BRANCH  24  34
ATOM     34  C   UNL     1       4.384  14.297  21.832  0.00  0.00    +0.000 C 
ATOM     35  C   UNL     1       5.402  13.940  22.367  0.00  0.00    +0.000 C 
BRANCH  35  36
ATOM     36  C   UNL     1       6.626  13.437  23.001  0.00  0.00    +0.000 C 
ATOM     37  C   UNL     1       6.466  11.996  23.450  0.00  0.00    +0.000 C 
BRANCH  36  38
ATOM     38  O   UNL     1       7.723  13.490  22.091  0.00  0.00    +0.000 OA
ATOM     39  H   UNL     1       7.568  12.814  21.410  0.00  0.00    +0.000 HD
ENDBRANCH  36  38
ENDBRANCH  35  36
ENDBRANCH  24  34
ENDBRANCH  21  22
ENDBRANCH   2  21
TORSDOF 7
ENDMDL
MODEL 8
REMARK VINA RESULT:      -7.1      5.437      9.708
REMARK  Name = 
REMARK  10 active torsions:
REMARK  status: ('A' for Active; 'I' for Inactive)
REMARK    1  A    between atoms: C_1  and  C_2
REMARK    2  A    between atoms: C_2  and  C_3
REMARK    3  A    between atoms: C_8  and  N_9
REMARK    4  A    between atoms: C_10  and  C_11
REMARK    5  A    between atoms: C_11  and  N_12
REMARK    6  A    between atoms: C_14  and  C_15
REMARK    7  A    between atoms: C_16  and  C_17
REMARK    8  A    between atoms: C_17  and  C_18
REMARK    9  A    between atoms: C_17  and  O_19
REMARK   10  A    between atoms: C_32  and  C_33
REMARK                            x       y       z     vdW  Elec       q    Type
REMARK                         _______ _______ _______ _____ _____    ______ ____
ROOT
ATOM      1  N   UNL     1       1.100  13.298  20.408  0.00  0.00    +0.000 N 
ATOM      2  C   UNL     1       0.335  14.240  19.730  0.00  0.00    +0.000 A 
ATOM      3  C   UNL     1       0.960  14.745  18.623  0.00  0.00    +0.000 A 
ATOM      4  C   UNL     1       2.417  15.065  18.815  0.00  0.00    +0.000 A 
ATOM      5  C   UNL     1       3.138  15.769  17.851  0.00  0.00    +0.000 A 
ATOM      6  C   UNL     1       3.965  16.796  18.279  0.00  0.00    +0.000 A 
ATOM      7  C   UNL     1       3.933  17.140  19.630  0.00  0.00    +0.000 A 
ATOM      8  C   UNL     1       3.312  16.293  20.583  0.00  0.00    +0.000 A 
ATOM      9  C   UNL     1       2.836  16.920  21.864  0.00  0.00    +0.000 C 
ATOM     10  C   UNL     1       2.799  15.075  20.147  0.00  0.00    +0.000 A 
ATOM     11  C   UNL     1       2.370  13.800  20.869  0.00  0.00    +0.000 A 
ATOM     12  O   UNL     1       3.193  13.243  21.584  0.00  0.00    +0.000 OA
ENDROOT
BRANCH   1  18
ATOM     13  C   UNL     1       0.297  10.979  21.042  0.00  0.00    +0.000 A 
ATOM     14  C   UNL     1       0.339   9.614  20.686  0.00  0.00    +0.000 A 
ATOM     15  C   UNL     1       0.808   9.181  19.438  0.00  0.00    +0.000 A 
ATOM     16  C   UNL     1       1.101  10.108  18.461  0.00  0.00    +0.000 A 
ATOM     17  C   UNL     1       1.049  11.452  18.792  0.00  0.00    +0.000 A 
ATOM     18  C   UNL     1       0.809  11.906  20.121  0.00  0.00    +0.000 A 
BRANCH  13  20
ATOM     19  C   UNL     1      -1.090  10.472  23.217  0.00  0.00    +0.000 C 
ATOM     20  C   UNL     1      -0.289  11.443  22.354  0.00  0.00    +0.000 C 
ENDBRANCH  13  20
ENDBRANCH   1  18
BRANCH   2  21
ATOM     21  C   UNL     1      -0.526  15.050  20.722  0.00  0.00    +0.000 C 
BRANCH  21  22
ATOM     22  N   UNL     1      -1.731  14.381  21.286  0.00  0.00    +0.000 N 
ATOM     23  N   UNL     1      -2.521  13.599  20.485  0.00  0.00    +0.000 NA
ATOM     24  C   UNL     1      -3.473  13.141  21.325  0.00  0.00    +0.000 A 
ATOM     25  C   UNL     1      -3.242  13.495  22.661  0.00  0.00    +0.000 A 
ATOM     26  C   UNL     1      -3.795  13.220  23.915  0.00  0.00    +0.000 A 
ATOM     27  N   UNL     1      -4.693  12.183  24.173  0.00  0.00    +0.000 N 
ATOM     28  N   UNL     1      -3.431  13.994  24.955  0.00  0.00    +0.000 NA
ATOM     29  C   UNL     1      -2.510  14.955  24.732  0.00  0.00    +0.000 A 
ATOM     30  N   UNL     1      -1.780  15.183  23.615  0.00  0.00    +0.000 NA
ATOM     31  C   UNL     1      -2.189  14.420  22.594  0.00  0.00    +0.000 A 
ATOM     32  H   UNL     1      -4.591  11.367  23.582  0.00  0.00    +0.000 HD
ATOM     33  H   UNL     1      -4.754  11.991  25.169  0.00  0.00    +0.000 HD
BRANCH  24  34
ATOM     34  C   UNL     1      -4.678  12.561  20.809  0.00  0.00    +0.000 C 
ATOM     35  C   UNL     1      -5.699  12.209  20.276  0.00  0.00    +0.000 C 
BRANCH  35  36
ATOM     36  C   UNL     1      -6.906  11.776  19.564  0.00  0.00    +0.000 C 
ATOM     37  C   UNL     1      -6.585  10.734  18.508  0.00  0.00    +0.000 C 
BRANCH  36  38
ATOM     38  O   UNL     1      -7.847  11.203  20.469  0.00  0.00    +0.000 OA
ATOM     39  H   UNL     1      -8.171  11.918  21.042  0.00  0.00    +0.000 HD
ENDBRANCH  36  38
ENDBRANCH  35  36
ENDBRANCH  24  34
ENDBRANCH  21  22
ENDBRANCH   2  21
TORSDOF 7
ENDMDL
MODEL 9
REMARK VINA RESULT:      -7.1      6.013      9.730
REMARK  Name = 
REMARK  10 active torsions:
REMARK  status: ('A' for Active; 'I' for Inactive)
REMARK    1  A    between atoms: C_1  and  C_2
REMARK    2  A    between atoms: C_2  and  C_3
REMARK    3  A    between atoms: C_8  and  N_9
REMARK    4  A    between atoms: C_10  and  C_11
REMARK    5  A    between atoms: C_11  and  N_12
REMARK    6  A    between atoms: C_14  and  C_15
REMARK    7  A    between atoms: C_16  and  C_17
REMARK    8  A    between atoms: C_17  and  C_18
REMARK    9  A    between atoms: C_17  and  O_19
REMARK   10  A    between atoms: C_32  and  C_33
REMARK                            x       y       z     vdW  Elec       q    Type
REMARK                         _______ _______ _______ _____ _____    ______ ____
ROOT
ATOM      1  N   UNL     1      -1.205  13.290  22.540  0.00  0.00    +0.000 N 
ATOM      2  C   UNL     1      -0.635  13.984  21.479  0.00  0.00    +0.000 A 
ATOM      3  C   UNL     1      -1.301  13.804  20.297  0.00  0.00    +0.000 A 
ATOM      4  C   UNL     1      -1.730  12.387  20.029  0.00  0.00    +0.000 A 
ATOM      5  C   UNL     1      -2.236  12.006  18.786  0.00  0.00    +0.000 A 
ATOM      6  C   UNL     1      -1.765  10.829  18.226  0.00  0.00    +0.000 A 
ATOM      7  C   UNL     1      -0.729  10.163  18.881  0.00  0.00    +0.000 A 
ATOM      8  C   UNL     1      -0.370  10.502  20.210  0.00  0.00    +0.000 A 
ATOM      9  C   UNL     1       1.025  10.168  20.660  0.00  0.00    +0.000 C 
ATOM     10  C   UNL     1      -1.124  11.468  20.871  0.00  0.00    +0.000 A 
ATOM     11  C   UNL     1      -1.266  11.865  22.337  0.00  0.00    +0.000 A 
ATOM     12  O   UNL     1      -1.604  10.998  23.135  0.00  0.00    +0.000 OA
ENDROOT
BRANCH   1  18
ATOM     13  C   UNL     1      -3.482  14.153  23.243  0.00  0.00    +0.000 A 
ATOM     14  C   UNL     1      -4.151  15.148  23.988  0.00  0.00    +0.000 A 
ATOM     15  C   UNL     1      -3.484  15.968  24.909  0.00  0.00    +0.000 A 
ATOM     16  C   UNL     1      -2.166  15.710  25.220  0.00  0.00    +0.000 A 
ATOM     17  C   UNL     1      -1.500  14.726  24.507  0.00  0.00    +0.000 A 
ATOM     18  C   UNL     1      -2.091  14.048  23.402  0.00  0.00    +0.000 A 
BRANCH  13  20
ATOM     19  C   UNL     1      -5.707  12.943  22.538  0.00  0.00    +0.000 C 
ATOM     20  C   UNL     1      -4.222  13.217  22.317  0.00  0.00    +0.000 C 
ENDBRANCH  13  20
ENDBRANCH   1  18
BRANCH   2  21
ATOM     21  C   UNL     1       0.898  14.057  21.644  0.00  0.00    +0.000 C 
BRANCH  21  22
ATOM     22  N   UNL     1       1.676  14.685  20.541  0.00  0.00    +0.000 N 
ATOM     23  N   UNL     1       2.717  14.008  19.963  0.00  0.00    +0.000 NA
ATOM     24  C   UNL     1       3.151  14.850  19.002  0.00  0.00    +0.000 A 
ATOM     25  C   UNL     1       2.340  15.983  18.858  0.00  0.00    +0.000 A 
ATOM     26  C   UNL     1       2.235  17.080  17.996  0.00  0.00    +0.000 A 
ATOM     27  N   UNL     1       2.870  17.174  16.757  0.00  0.00    +0.000 N 
ATOM     28  N   UNL     1       1.460  18.114  18.373  0.00  0.00    +0.000 NA
ATOM     29  C   UNL     1       0.784  18.003  19.537  0.00  0.00    +0.000 A 
ATOM     30  N   UNL     1       0.667  16.924  20.346  0.00  0.00    +0.000 NA
ATOM     31  C   UNL     1       1.475  15.928  19.961  0.00  0.00    +0.000 A 
ATOM     32  H   UNL     1       3.023  16.293  16.283  0.00  0.00    +0.000 HD
ATOM     33  H   UNL     1       2.454  17.906  16.188  0.00  0.00    +0.000 HD
BRANCH  24  34
ATOM     34  C   UNL     1       4.435  14.658  18.393  0.00  0.00    +0.000 C 
ATOM     35  C   UNL     1       5.560  14.636  17.964  0.00  0.00    +0.000 C 
BRANCH  35  36
ATOM     36  C   UNL     1       6.954  14.601  17.509  0.00  0.00    +0.000 C 
ATOM     37  C   UNL     1       7.907  15.038  18.607  0.00  0.00    +0.000 C 
BRANCH  36  38
ATOM     38  O   UNL     1       7.322  13.281  17.114  0.00  0.00    +0.000 OA
ATOM     39  H   UNL     1       7.030  13.162  16.194  0.00  0.00    +0.000 HD
ENDBRANCH  36  38
ENDBRANCH  35  36
ENDBRANCH  24  34
ENDBRANCH  21  22
ENDBRANCH   2  21
TORSDOF 7
ENDMDL
