MODEL 1
REMARK VINA RESULT:      -4.6      0.000      0.000
REMARK  Name = 
REMARK  12 active torsions:
REMARK  status: ('A' for Active; 'I' for Inactive)
REMARK    1  A    between atoms: C_1  and  N_2
REMARK    2  A    between atoms: N_2  and  C_3
REMARK    3  A    between atoms: N_2  and  C_4
REMARK    4  A    between atoms: N_2  and  C_5
REMARK    5  A    between atoms: C_5  and  C_6
REMARK    6  A    between atoms: C_6  and  C_7
REMARK    7  A    between atoms: C_7  and  C_8
REMARK    8  A    between atoms: C_8  and  C_9
REMARK    9  A    between atoms: C_9  and  N_10
REMARK   10  A    between atoms: N_10  and  C_11
REMARK   11  A    between atoms: N_10  and  C_12
REMARK   12  A    between atoms: N_10  and  C_13
REMARK                            x       y       z     vdW  Elec       q    Type
REMARK                         _______ _______ _______ _____ _____    ______ ____
ROOT
ATOM      1  C   UNL     1       2.575   3.516  17.124  0.00  0.00    +0.000 C 
ENDROOT
BRANCH   1   2
ATOM      2  C   UNL     1       3.646   4.610  17.139  0.00  0.00    +0.000 C 
BRANCH   2   3
ATOM      3  C   UNL     1       5.055   4.038  17.339  0.00  0.00    +0.000 C 
BRANCH   3   5
ATOM      4  C   UNL     1       7.465   4.582  17.299  0.00  0.00    +0.000 C 
ATOM      5  N   UNL     1       6.083   5.086  17.743  0.00  0.00    +0.000 N 
ATOM      6  C   UNL     1       6.124   5.310  19.253  0.00  0.00    +0.000 C 
ATOM      7  C   UNL     1       5.815   6.414  17.034  0.00  0.00    +0.000 C 
ENDBRANCH   3   5
ENDBRANCH   2   3
ENDBRANCH   1   2
BRANCH   1   8
ATOM      8  C   UNL     1       1.438   3.788  18.110  0.00  0.00    +0.000 C 
BRANCH   8   9
ATOM      9  C   UNL     1       1.401   2.761  19.248  0.00  0.00    +0.000 C 
BRANCH   9  10
ATOM     10  N   UNL     1       2.226   3.166  20.461  0.00  0.00    +0.000 N 
ATOM     11  C   UNL     1       3.625   2.558  20.400  0.00  0.00    +0.000 C 
ATOM     12  C   UNL     1       2.334   4.686  20.598  0.00  0.00    +0.000 C 
ATOM     13  C   UNL     1       1.522   2.627  21.714  0.00  0.00    +0.000 C 
ENDBRANCH   9  10
ENDBRANCH   8   9
ENDBRANCH   1   8
TORSDOF 6
ENDMDL
MODEL 2
REMARK VINA RESULT:      -4.5      0.972      5.266
REMARK  Name = 
REMARK  12 active torsions:
REMARK  status: ('A' for Active; 'I' for Inactive)
REMARK    1  A    between atoms: C_1  and  N_2
REMARK    2  A    between atoms: N_2  and  C_3
REMARK    3  A    between atoms: N_2  and  C_4
REMARK    4  A    between atoms: N_2  and  C_5
REMARK    5  A    between atoms: C_5  and  C_6
REMARK    6  A    between atoms: C_6  and  C_7
REMARK    7  A    between atoms: C_7  and  C_8
REMARK    8  A    between atoms: C_8  and  C_9
REMARK    9  A    between atoms: C_9  and  N_10
REMARK   10  A    between atoms: N_10  and  C_11
REMARK   11  A    between atoms: N_10  and  C_12
REMARK   12  A    between atoms: N_10  and  C_13
REMARK                            x       y       z     vdW  Elec       q    Type
REMARK                         _______ _______ _______ _____ _____    ______ ____
ROOT
ATOM      1  C   UNL     1       2.678   3.486  17.006  0.00  0.00    +0.000 C 
ENDROOT
BRANCH   1   2
ATOM      2  C   UNL     1       2.516   2.364  18.036  0.00  0.00    +0.000 C 
BRANCH   2   3
ATOM      3  C   UNL     1       1.586   2.765  19.186  0.00  0.00    +0.000 C 
BRANCH   3   5
ATOM      4  C   UNL     1       1.548   2.581  21.650  0.00  0.00    +0.000 C 
ATOM      5  N   UNL     1       2.327   3.157  20.458  0.00  0.00    +0.000 N 
ATOM      6  C   UNL     1       2.415   4.671  20.637  0.00  0.00    +0.000 C 
ATOM      7  C   UNL     1       3.733   2.556  20.476  0.00  0.00    +0.000 C 
ENDBRANCH   3   5
ENDBRANCH   2   3
ENDBRANCH   1   2
BRANCH   1   8
ATOM      8  C   UNL     1       3.941   4.319  17.233  0.00  0.00    +0.000 C 
BRANCH   8   9
ATOM      9  C   UNL     1       5.116   3.835  16.373  0.00  0.00    +0.000 C 
BRANCH   9  10
ATOM     10  N   UNL     1       6.246   4.849  16.260  0.00  0.00    +0.000 N 
ATOM     11  C   UNL     1       7.274   4.650  17.371  0.00  0.00    +0.000 C 
ATOM     12  C   UNL     1       6.943   4.779  14.899  0.00  0.00    +0.000 C 
ATOM     13  C   UNL     1       5.641   6.251  16.410  0.00  0.00    +0.000 C 
ENDBRANCH   9  10
ENDBRANCH   8   9
ENDBRANCH   1   8
TORSDOF 6
ENDMDL
MODEL 3
REMARK VINA RESULT:      -4.5      0.548      1.741
REMARK  Name = 
REMARK  12 active torsions:
REMARK  status: ('A' for Active; 'I' for Inactive)
REMARK    1  A    between atoms: C_1  and  N_2
REMARK    2  A    between atoms: N_2  and  C_3
REMARK    3  A    between atoms: N_2  and  C_4
REMARK    4  A    between atoms: N_2  and  C_5
REMARK    5  A    between atoms: C_5  and  C_6
REMARK    6  A    between atoms: C_6  and  C_7
REMARK    7  A    between atoms: C_7  and  C_8
REMARK    8  A    between atoms: C_8  and  C_9
REMARK    9  A    between atoms: C_9  and  N_10
REMARK   10  A    between atoms: N_10  and  C_11
REMARK   11  A    between atoms: N_10  and  C_12
REMARK   12  A    between atoms: N_10  and  C_13
REMARK                            x       y       z     vdW  Elec       q    Type
REMARK                         _______ _______ _______ _____ _____    ______ ____
ROOT
ATOM      1  C   UNL     1       2.758   3.367  16.940  0.00  0.00    +0.000 C 
ENDROOT
BRANCH   1   2
ATOM      2  C   UNL     1       4.242   3.743  16.972  0.00  0.00    +0.000 C 
BRANCH   2   3
ATOM      3  C   UNL     1       4.464   5.181  17.455  0.00  0.00    +0.000 C 
BRANCH   3   5
ATOM      4  C   UNL     1       6.223   5.380  19.179  0.00  0.00    +0.000 C 
ATOM      5  N   UNL     1       5.931   5.526  17.678  0.00  0.00    +0.000 N 
ATOM      6  C   UNL     1       6.260   6.960  17.270  0.00  0.00    +0.000 C 
ATOM      7  C   UNL     1       6.840   4.555  16.923  0.00  0.00    +0.000 C 
ENDBRANCH   3   5
ENDBRANCH   2   3
ENDBRANCH   1   2
BRANCH   1   8
ATOM      8  C   UNL     1       1.951   4.048  18.046  0.00  0.00    +0.000 C 
BRANCH   8   9
ATOM      9  C   UNL     1       1.526   3.065  19.144  0.00  0.00    +0.000 C 
BRANCH   9  10
ATOM     10  N   UNL     1       2.275   3.254  20.455  0.00  0.00    +0.000 N 
ATOM     11  C   UNL     1       1.468   2.711  21.631  0.00  0.00    +0.000 C 
ATOM     12  C   UNL     1       3.653   2.589  20.429  0.00  0.00    +0.000 C 
ATOM     13  C   UNL     1       2.481   4.760  20.669  0.00  0.00    +0.000 C 
ENDBRANCH   9  10
ENDBRANCH   8   9
ENDBRANCH   1   8
TORSDOF 6
ENDMDL
MODEL 4
REMARK VINA RESULT:      -4.5      1.040      5.402
REMARK  Name = 
REMARK  12 active torsions:
REMARK  status: ('A' for Active; 'I' for Inactive)
REMARK    1  A    between atoms: C_1  and  N_2
REMARK    2  A    between atoms: N_2  and  C_3
REMARK    3  A    between atoms: N_2  and  C_4
REMARK    4  A    between atoms: N_2  and  C_5
REMARK    5  A    between atoms: C_5  and  C_6
REMARK    6  A    between atoms: C_6  and  C_7
REMARK    7  A    between atoms: C_7  and  C_8
REMARK    8  A    between atoms: C_8  and  C_9
REMARK    9  A    between atoms: C_9  and  N_10
REMARK   10  A    between atoms: N_10  and  C_11
REMARK   11  A    between atoms: N_10  and  C_12
REMARK   12  A    between atoms: N_10  and  C_13
REMARK                            x       y       z     vdW  Elec       q    Type
REMARK                         _______ _______ _______ _____ _____    ______ ____
ROOT
ATOM      1  C   UNL     1       2.885   5.769  17.810  0.00  0.00    +0.000 C 
ENDROOT
BRANCH   1   2
ATOM      2  C   UNL     1       1.819   4.786  18.301  0.00  0.00    +0.000 C 
BRANCH   2   3
ATOM      3  C   UNL     1       1.961   4.477  19.796  0.00  0.00    +0.000 C 
BRANCH   3   5
ATOM      4  C   UNL     1       1.510   2.699  21.452  0.00  0.00    +0.000 C 
ATOM      5  N   UNL     1       2.162   2.997  20.093  0.00  0.00    +0.000 N 
ATOM      6  C   UNL     1       3.638   2.616  20.183  0.00  0.00    +0.000 C 
ATOM      7  C   UNL     1       1.472   2.131  19.038  0.00  0.00    +0.000 C 
ENDBRANCH   3   5
ENDBRANCH   2   3
ENDBRANCH   1   2
BRANCH   1   8
ATOM      8  C   UNL     1       4.195   5.078  17.426  0.00  0.00    +0.000 C 
BRANCH   8   9
ATOM      9  C   UNL     1       5.400   5.669  18.168  0.00  0.00    +0.000 C 
BRANCH   9  10
ATOM     10  N   UNL     1       6.670   5.715  17.329  0.00  0.00    +0.000 N 
ATOM     11  C   UNL     1       7.354   7.074  17.444  0.00  0.00    +0.000 C 
ATOM     12  C   UNL     1       7.655   4.611  17.721  0.00  0.00    +0.000 C 
ATOM     13  C   UNL     1       6.275   5.498  15.862  0.00  0.00    +0.000 C 
ENDBRANCH   9  10
ENDBRANCH   8   9
ENDBRANCH   1   8
TORSDOF 6
ENDMDL
MODEL 5
REMARK VINA RESULT:      -4.5      1.129      2.039
REMARK  Name = 
REMARK  12 active torsions:
REMARK  status: ('A' for Active; 'I' for Inactive)
REMARK    1  A    between atoms: C_1  and  N_2
REMARK    2  A    between atoms: N_2  and  C_3
REMARK    3  A    between atoms: N_2  and  C_4
REMARK    4  A    between atoms: N_2  and  C_5
REMARK    5  A    between atoms: C_5  and  C_6
REMARK    6  A    between atoms: C_6  and  C_7
REMARK    7  A    between atoms: C_7  and  C_8
REMARK    8  A    between atoms: C_8  and  C_9
REMARK    9  A    between atoms: C_9  and  N_10
REMARK   10  A    between atoms: N_10  and  C_11
REMARK   11  A    between atoms: N_10  and  C_12
REMARK   12  A    between atoms: N_10  and  C_13
REMARK                            x       y       z     vdW  Elec       q    Type
REMARK                         _______ _______ _______ _____ _____    ______ ____
ROOT
ATOM      1  C   UNL     1       3.129   6.034  17.946  0.00  0.00    +0.000 C 
ENDROOT
BRANCH   1   2
ATOM      2  C   UNL     1       4.335   5.595  17.110  0.00  0.00    +0.000 C 
BRANCH   2   3
ATOM      3  C   UNL     1       5.526   6.548  17.267  0.00  0.00    +0.000 C 
BRANCH   3   5
ATOM      4  C   UNL     1       6.269   5.361  19.303  0.00  0.00    +0.000 C 
ATOM      5  N   UNL     1       6.730   5.907  17.943  0.00  0.00    +0.000 N 
ATOM      6  C   UNL     1       7.858   6.905  18.192  0.00  0.00    +0.000 C 
ATOM      7  C   UNL     1       7.258   4.733  17.117  0.00  0.00    +0.000 C 
ENDBRANCH   3   5
ENDBRANCH   2   3
ENDBRANCH   1   2
BRANCH   1   8
ATOM      8  C   UNL     1       2.058   4.947  18.057  0.00  0.00    +0.000 C 
BRANCH   8   9
ATOM      9  C   UNL     1       1.740   4.594  19.515  0.00  0.00    +0.000 C 
BRANCH   9  10
ATOM     10  N   UNL     1       1.924   3.118  19.838  0.00  0.00    +0.000 N 
ATOM     11  C   UNL     1       3.394   2.715  19.748  0.00  0.00    +0.000 C 
ATOM     12  C   UNL     1       1.380   2.763  21.224  0.00  0.00    +0.000 C 
ATOM     13  C   UNL     1       1.138   2.305  18.800  0.00  0.00    +0.000 C 
ENDBRANCH   9  10
ENDBRANCH   8   9
ENDBRANCH   1   8
TORSDOF 6
ENDMDL
MODEL 6
REMARK VINA RESULT:      -4.5      0.518      1.793
REMARK  Name = 
REMARK  12 active torsions:
REMARK  status: ('A' for Active; 'I' for Inactive)
REMARK    1  A    between atoms: C_1  and  N_2
REMARK    2  A    between atoms: N_2  and  C_3
REMARK    3  A    between atoms: N_2  and  C_4
REMARK    4  A    between atoms: N_2  and  C_5
REMARK    5  A    between atoms: C_5  and  C_6
REMARK    6  A    between atoms: C_6  and  C_7
REMARK    7  A    between atoms: C_7  and  C_8
REMARK    8  A    between atoms: C_8  and  C_9
REMARK    9  A    between atoms: C_9  and  N_10
REMARK   10  A    between atoms: N_10  and  C_11
REMARK   11  A    between atoms: N_10  and  C_12
REMARK   12  A    between atoms: N_10  and  C_13
REMARK                            x       y       z     vdW  Elec       q    Type
REMARK                         _______ _______ _______ _____ _____    ______ ____
ROOT
ATOM      1  C   UNL     1       2.705   3.338  17.042  0.00  0.00    +0.000 C 
ENDROOT
BRANCH   1   2
ATOM      2  C   UNL     1       3.608   4.521  17.402  0.00  0.00    +0.000 C 
BRANCH   2   3
ATOM      3  C   UNL     1       5.048   4.320  16.916  0.00  0.00    +0.000 C 
BRANCH   3   5
ATOM      4  C   UNL     1       5.671   5.243  19.122  0.00  0.00    +0.000 C 
ATOM      5  N   UNL     1       6.060   5.201  17.636  0.00  0.00    +0.000 N 
ATOM      6  C   UNL     1       6.066   6.633  17.108  0.00  0.00    +0.000 C 
ATOM      7  C   UNL     1       7.467   4.610  17.534  0.00  0.00    +0.000 C 
ENDBRANCH   3   5
ENDBRANCH   2   3
ENDBRANCH   1   2
BRANCH   1   8
ATOM      8  C   UNL     1       2.531   2.353  18.199  0.00  0.00    +0.000 C 
BRANCH   8   9
ATOM      9  C   UNL     1       1.534   2.861  19.248  0.00  0.00    +0.000 C 
BRANCH   9  10
ATOM     10  N   UNL     1       2.174   3.181  20.592  0.00  0.00    +0.000 N 
ATOM     11  C   UNL     1       2.318   4.689  20.785  0.00  0.00    +0.000 C 
ATOM     12  C   UNL     1       1.381   2.588  21.759  0.00  0.00    +0.000 C 
ATOM     13  C   UNL     1       3.577   2.559  20.609  0.00  0.00    +0.000 C 
ENDBRANCH   9  10
ENDBRANCH   8   9
ENDBRANCH   1   8
TORSDOF 6
ENDMDL
MODEL 7
REMARK VINA RESULT:      -4.4      0.455      1.724
REMARK  Name = 
REMARK  12 active torsions:
REMARK  status: ('A' for Active; 'I' for Inactive)
REMARK    1  A    between atoms: C_1  and  N_2
REMARK    2  A    between atoms: N_2  and  C_3
REMARK    3  A    between atoms: N_2  and  C_4
REMARK    4  A    between atoms: N_2  and  C_5
REMARK    5  A    between atoms: C_5  and  C_6
REMARK    6  A    between atoms: C_6  and  C_7
REMARK    7  A    between atoms: C_7  and  C_8
REMARK    8  A    between atoms: C_8  and  C_9
REMARK    9  A    between atoms: C_9  and  N_10
REMARK   10  A    between atoms: N_10  and  C_11
REMARK   11  A    between atoms: N_10  and  C_12
REMARK   12  A    between atoms: N_10  and  C_13
REMARK                            x       y       z     vdW  Elec       q    Type
REMARK                         _______ _______ _______ _____ _____    ______ ____
ROOT
ATOM      1  C   UNL     1       2.461   3.750  17.106  0.00  0.00    +0.000 C 
ENDROOT
BRANCH   1   2
ATOM      2  C   UNL     1       3.550   4.750  17.502  0.00  0.00    +0.000 C 
BRANCH   2   3
ATOM      3  C   UNL     1       4.949   4.273  17.097  0.00  0.00    +0.000 C 
BRANCH   3   5
ATOM      4  C   UNL     1       5.954   6.530  17.064  0.00  0.00    +0.000 C 
ATOM      5  N   UNL     1       6.072   5.125  17.674  0.00  0.00    +0.000 N 
ATOM      6  C   UNL     1       7.455   4.575  17.333  0.00  0.00    +0.000 C 
ATOM      7  C   UNL     1       5.931   5.255  19.191  0.00  0.00    +0.000 C 
ENDBRANCH   3   5
ENDBRANCH   2   3
ENDBRANCH   1   2
BRANCH   1   8
ATOM      8  C   UNL     1       2.307   2.612  18.117  0.00  0.00    +0.000 C 
BRANCH   8   9
ATOM      9  C   UNL     1       1.412   3.004  19.299  0.00  0.00    +0.000 C 
BRANCH   9  10
ATOM     10  N   UNL     1       2.172   3.184  20.606  0.00  0.00    +0.000 N 
ATOM     11  C   UNL     1       1.438   2.513  21.764  0.00  0.00    +0.000 C 
ATOM     12  C   UNL     1       3.599   2.637  20.518  0.00  0.00    +0.000 C 
ATOM     13  C   UNL     1       2.259   4.688  20.899  0.00  0.00    +0.000 C 
ENDBRANCH   9  10
ENDBRANCH   8   9
ENDBRANCH   1   8
TORSDOF 6
ENDMDL
MODEL 8
REMARK VINA RESULT:      -4.4      1.313      5.178
REMARK  Name = 
REMARK  12 active torsions:
REMARK  status: ('A' for Active; 'I' for Inactive)
REMARK    1  A    between atoms: C_1  and  N_2
REMARK    2  A    between atoms: N_2  and  C_3
REMARK    3  A    between atoms: N_2  and  C_4
REMARK    4  A    between atoms: N_2  and  C_5
REMARK    5  A    between atoms: C_5  and  C_6
REMARK    6  A    between atoms: C_6  and  C_7
REMARK    7  A    between atoms: C_7  and  C_8
REMARK    8  A    between atoms: C_8  and  C_9
REMARK    9  A    between atoms: C_9  and  N_10
REMARK   10  A    between atoms: N_10  and  C_11
REMARK   11  A    between atoms: N_10  and  C_12
REMARK   12  A    between atoms: N_10  and  C_13
REMARK                            x       y       z     vdW  Elec       q    Type
REMARK                         _______ _______ _______ _____ _____    ______ ____
ROOT
ATOM      1  C   UNL     1       2.520   6.567  18.172  0.00  0.00    +0.000 C 
ENDROOT
BRANCH   1   2
ATOM      2  C   UNL     1       2.152   5.084  18.265  0.00  0.00    +0.000 C 
BRANCH   2   3
ATOM      3  C   UNL     1       1.769   4.671  19.691  0.00  0.00    +0.000 C 
BRANCH   3   5
ATOM      4  C   UNL     1       0.906   2.491  18.909  0.00  0.00    +0.000 C 
ATOM      5  N   UNL     1       1.838   3.168  19.926  0.00  0.00    +0.000 N 
ATOM      6  C   UNL     1       1.373   2.776  21.327  0.00  0.00    +0.000 C 
ATOM      7  C   UNL     1       3.255   2.643  19.690  0.00  0.00    +0.000 C 
ENDBRANCH   3   5
ENDBRANCH   2   3
ENDBRANCH   1   2
BRANCH   1   8
ATOM      8  C   UNL     1       3.938   6.793  17.645  0.00  0.00    +0.000 C 
BRANCH   8   9
ATOM      9  C   UNL     1       4.878   5.633  17.997  0.00  0.00    +0.000 C 
BRANCH   9  10
ATOM     10  N   UNL     1       5.621   5.065  16.797  0.00  0.00    +0.000 N 
ATOM     11  C   UNL     1       5.439   5.953  15.569  0.00  0.00    +0.000 C 
ATOM     12  C   UNL     1       7.114   4.883  17.081  0.00  0.00    +0.000 C 
ATOM     13  C   UNL     1       5.028   3.684  16.484  0.00  0.00    +0.000 C 
ENDBRANCH   9  10
ENDBRANCH   8   9
ENDBRANCH   1   8
TORSDOF 6
ENDMDL
MODEL 9
REMARK VINA RESULT:      -4.4      0.887      1.961
REMARK  Name = 
REMARK  12 active torsions:
REMARK  status: ('A' for Active; 'I' for Inactive)
REMARK    1  A    between atoms: C_1  and  N_2
REMARK    2  A    between atoms: N_2  and  C_3
REMARK    3  A    between atoms: N_2  and  C_4
REMARK    4  A    between atoms: N_2  and  C_5
REMARK    5  A    between atoms: C_5  and  C_6
REMARK    6  A    between atoms: C_6  and  C_7
REMARK    7  A    between atoms: C_7  and  C_8
REMARK    8  A    between atoms: C_8  and  C_9
REMARK    9  A    between atoms: C_9  and  N_10
REMARK   10  A    between atoms: N_10  and  C_11
REMARK   11  A    between atoms: N_10  and  C_12
REMARK   12  A    between atoms: N_10  and  C_13
REMARK                            x       y       z     vdW  Elec       q    Type
REMARK                         _______ _______ _______ _____ _____    ______ ____
ROOT
ATOM      1  C   UNL     1       3.508   3.794  17.083  0.00  0.00    +0.000 C 
ENDROOT
BRANCH   1   2
ATOM      2  C   UNL     1       4.948   3.975  16.596  0.00  0.00    +0.000 C 
BRANCH   2   3
ATOM      3  C   UNL     1       5.439   5.418  16.764  0.00  0.00    +0.000 C 
BRANCH   3   5
ATOM      4  C   UNL     1       7.218   6.946  17.544  0.00  0.00    +0.000 C 
ATOM      5  N   UNL     1       6.597   5.555  17.744  0.00  0.00    +0.000 N 
ATOM      6  C   UNL     1       7.686   4.512  17.509  0.00  0.00    +0.000 C 
ATOM      7  C   UNL     1       6.101   5.463  19.188  0.00  0.00    +0.000 C 
ENDBRANCH   3   5
ENDBRANCH   2   3
ENDBRANCH   1   2
BRANCH   1   8
ATOM      8  C   UNL     1       3.344   2.588  18.010  0.00  0.00    +0.000 C 
BRANCH   8   9
ATOM      9  C   UNL     1       3.370   2.987  19.490  0.00  0.00    +0.000 C 
BRANCH   9  10
ATOM     10  N   UNL     1       1.991   3.273  20.069  0.00  0.00    +0.000 N 
ATOM     11  C   UNL     1       1.730   4.775  20.145  0.00  0.00    +0.000 C 
ATOM     12  C   UNL     1       0.880   2.601  19.259  0.00  0.00    +0.000 C 
ATOM     13  C   UNL     1       1.949   2.705  21.494  0.00  0.00    +0.000 C 
ENDBRANCH   9  10
ENDBRANCH   8   9
ENDBRANCH   1   8
TORSDOF 6
ENDMDL
