MODEL 1
REMARK VINA RESULT:      -7.2      0.000      0.000
REMARK  Name = 
REMARK  4 active torsions:
REMARK  status: ('A' for Active; 'I' for Inactive)
REMARK    1  A    between atoms: C_1  and  C_2
REMARK    2  A    between atoms: C_2  and  C_3
REMARK    3  A    between atoms: C_3  and  O_4
REMARK    4  A    between atoms: O_4  and  C_5
REMARK                            x       y       z     vdW  Elec       q    Type
REMARK                         _______ _______ _______ _____ _____    ______ ____
ROOT
ATOM      1  C   UNL     1       2.068   4.341  18.079  0.00  0.00    +0.000 A 
ATOM      2  C   UNL     1       2.373   5.653  18.459  0.00  0.00    +0.000 A 
ATOM      3  C   UNL     1       3.596   6.230  18.115  0.00  0.00    +0.000 A 
ATOM      4  C   UNL     1       4.505   5.488  17.367  0.00  0.00    +0.000 A 
ATOM      5  C   UNL     1       4.225   4.165  16.966  0.00  0.00    +0.000 A 
ATOM      6  C   UNL     1       2.999   3.600  17.340  0.00  0.00    +0.000 A 
ATOM      7  C   UNL     1       5.286   3.344  16.256  0.00  0.00    +0.000 C 
ATOM      8  C   UNL     1       6.210   4.205  15.382  0.00  0.00    +0.000 C 
ATOM      9  C   UNL     1       6.605   5.441  16.096  0.00  0.00    +0.000 A 
ATOM     10  N   UNL     1       7.675   6.198  15.984  0.00  0.00    +0.000 NA
ATOM     11  N   UNL     1       7.445   7.281  16.807  0.00  0.00    +0.000 NA
ATOM     12  N   UNL     1       6.258   7.200  17.395  0.00  0.00    +0.000 NA
ATOM     13  N   UNL     1       5.741   6.031  16.982  0.00  0.00    +0.000 N 
ENDROOT
BRANCH   1  14
ATOM     14  O   UNL     1       0.903   3.683  18.380  0.00  0.00    +0.000 OA
BRANCH  14  15
ATOM     15  C   UNL     1       1.026   2.574  19.273  0.00  0.00    +0.000 C 
BRANCH  15  17
ATOM     16  C   UNL     1       2.363   2.924  21.368  0.00  0.00    +0.000 C 
ATOM     17  C   UNL     1       1.003   3.083  20.709  0.00  0.00    +0.000 C 
ENDBRANCH  15  17
ENDBRANCH  14  15
ENDBRANCH   1  14
TORSDOF 3
ENDMDL
MODEL 2
REMARK VINA RESULT:      -7.1      1.093      2.161
REMARK  Name = 
REMARK  4 active torsions:
REMARK  status: ('A' for Active; 'I' for Inactive)
REMARK    1  A    between atoms: C_1  and  C_2
REMARK    2  A    between atoms: C_2  and  C_3
REMARK    3  A    between atoms: C_3  and  O_4
REMARK    4  A    between atoms: O_4  and  C_5
REMARK                            x       y       z     vdW  Elec       q    Type
REMARK                         _______ _______ _______ _____ _____    ______ ____
ROOT
ATOM      1  C   UNL     1       2.071   3.881  18.013  0.00  0.00    +0.000 A 
ATOM      2  C   UNL     1       2.893   2.878  17.487  0.00  0.00    +0.000 A 
ATOM      3  C   UNL     1       4.135   3.190  16.932  0.00  0.00    +0.000 A 
ATOM      4  C   UNL     1       4.556   4.517  16.926  0.00  0.00    +0.000 A 
ATOM      5  C   UNL     1       3.752   5.549  17.452  0.00  0.00    +0.000 A 
ATOM      6  C   UNL     1       2.501   5.214  17.987  0.00  0.00    +0.000 A 
ATOM      7  C   UNL     1       4.189   6.996  17.320  0.00  0.00    +0.000 C 
ATOM      8  C   UNL     1       5.717   7.156  17.352  0.00  0.00    +0.000 C 
ATOM      9  C   UNL     1       6.369   6.120  16.517  0.00  0.00    +0.000 A 
ATOM     10  N   UNL     1       7.520   6.125  15.880  0.00  0.00    +0.000 NA
ATOM     11  N   UNL     1       7.664   4.849  15.376  0.00  0.00    +0.000 NA
ATOM     12  N   UNL     1       6.637   4.077  15.710  0.00  0.00    +0.000 NA
ATOM     13  N   UNL     1       5.804   4.877  16.394  0.00  0.00    +0.000 N 
ENDROOT
BRANCH   1  14
ATOM     14  O   UNL     1       0.833   3.677  18.566  0.00  0.00    +0.000 OA
BRANCH  14  15
ATOM     15  C   UNL     1       0.788   2.793  19.689  0.00  0.00    +0.000 C 
BRANCH  15  17
ATOM     16  C   UNL     1       2.176   2.649  21.774  0.00  0.00    +0.000 C 
ATOM     17  C   UNL     1       1.276   3.533  20.928  0.00  0.00    +0.000 C 
ENDBRANCH  15  17
ENDBRANCH  14  15
ENDBRANCH   1  14
TORSDOF 3
ENDMDL
MODEL 3
REMARK VINA RESULT:      -7.1      1.818      2.510
REMARK  Name = 
REMARK  4 active torsions:
REMARK  status: ('A' for Active; 'I' for Inactive)
REMARK    1  A    between atoms: C_1  and  C_2
REMARK    2  A    between atoms: C_2  and  C_3
REMARK    3  A    between atoms: C_3  and  O_4
REMARK    4  A    between atoms: O_4  and  C_5
REMARK                            x       y       z     vdW  Elec       q    Type
REMARK                         _______ _______ _______ _____ _____    ______ ____
ROOT
ATOM      1  C   UNL     1       3.270   2.921  19.172  0.00  0.00    +0.000 A 
ATOM      2  C   UNL     1       2.968   2.781  17.813  0.00  0.00    +0.000 A 
ATOM      3  C   UNL     1       3.788   3.347  16.837  0.00  0.00    +0.000 A 
ATOM      4  C   UNL     1       4.927   4.041  17.232  0.00  0.00    +0.000 A 
ATOM      5  C   UNL     1       5.261   4.197  18.593  0.00  0.00    +0.000 A 
ATOM      6  C   UNL     1       4.412   3.635  19.557  0.00  0.00    +0.000 A 
ATOM      7  C   UNL     1       6.443   5.060  18.995  0.00  0.00    +0.000 C 
ATOM      8  C   UNL     1       7.571   5.035  17.952  0.00  0.00    +0.000 C 
ATOM      9  C   UNL     1       7.020   5.146  16.581  0.00  0.00    +0.000 A 
ATOM     10  N   UNL     1       7.550   5.622  15.474  0.00  0.00    +0.000 NA
ATOM     11  N   UNL     1       6.629   5.353  14.484  0.00  0.00    +0.000 NA
ATOM     12  N   UNL     1       5.569   4.715  14.966  0.00  0.00    +0.000 NA
ATOM     13  N   UNL     1       5.791   4.614  16.286  0.00  0.00    +0.000 N 
ENDROOT
BRANCH   1  14
ATOM     14  O   UNL     1       2.522   2.415  20.203  0.00  0.00    +0.000 OA
BRANCH  14  15
ATOM     15  C   UNL     1       2.110   3.356  21.197  0.00  0.00    +0.000 C 
BRANCH  15  17
ATOM     16  C   UNL     1       1.626   5.754  20.633  0.00  0.00    +0.000 C 
ATOM     17  C   UNL     1       1.108   4.326  20.583  0.00  0.00    +0.000 C 
ENDBRANCH  15  17
ENDBRANCH  14  15
ENDBRANCH   1  14
TORSDOF 3
ENDMDL
MODEL 4
REMARK VINA RESULT:      -6.8      1.452      2.334
REMARK  Name = 
REMARK  4 active torsions:
REMARK  status: ('A' for Active; 'I' for Inactive)
REMARK    1  A    between atoms: C_1  and  C_2
REMARK    2  A    between atoms: C_2  and  C_3
REMARK    3  A    between atoms: C_3  and  O_4
REMARK    4  A    between atoms: O_4  and  C_5
REMARK                            x       y       z     vdW  Elec       q    Type
REMARK                         _______ _______ _______ _____ _____    ______ ____
ROOT
ATOM      1  C   UNL     1       2.574   4.745  18.634  0.00  0.00    +0.000 A 
ATOM      2  C   UNL     1       2.649   3.715  17.691  0.00  0.00    +0.000 A 
ATOM      3  C   UNL     1       3.670   3.689  16.740  0.00  0.00    +0.000 A 
ATOM      4  C   UNL     1       4.630   4.697  16.754  0.00  0.00    +0.000 A 
ATOM      5  C   UNL     1       4.584   5.746  17.694  0.00  0.00    +0.000 A 
ATOM      6  C   UNL     1       3.539   5.761  18.628  0.00  0.00    +0.000 A 
ATOM      7  C   UNL     1       5.575   6.892  17.606  0.00  0.00    +0.000 C 
ATOM      8  C   UNL     1       6.939   6.449  17.053  0.00  0.00    +0.000 C 
ATOM      9  C   UNL     1       6.765   5.546  15.892  0.00  0.00    +0.000 A 
ATOM     10  N   UNL     1       7.545   5.309  14.860  0.00  0.00    +0.000 NA
ATOM     11  N   UNL     1       6.933   4.287  14.166  0.00  0.00    +0.000 NA
ATOM     12  N   UNL     1       5.816   3.894  14.766  0.00  0.00    +0.000 NA
ATOM     13  N   UNL     1       5.685   4.704  15.829  0.00  0.00    +0.000 N 
ENDROOT
BRANCH   1  14
ATOM     14  O   UNL     1       1.605   4.866  19.597  0.00  0.00    +0.000 OA
BRANCH  14  15
ATOM     15  C   UNL     1       0.958   3.652  19.986  0.00  0.00    +0.000 C 
BRANCH  15  17
ATOM     16  C   UNL     1       2.711   2.556  21.410  0.00  0.00    +0.000 C 
ATOM     17  C   UNL     1       1.382   3.292  21.405  0.00  0.00    +0.000 C 
ENDBRANCH  15  17
ENDBRANCH  14  15
ENDBRANCH   1  14
TORSDOF 3
ENDMDL
MODEL 5
REMARK VINA RESULT:      -6.7      3.374      5.770
REMARK  Name = 
REMARK  4 active torsions:
REMARK  status: ('A' for Active; 'I' for Inactive)
REMARK    1  A    between atoms: C_1  and  C_2
REMARK    2  A    between atoms: C_2  and  C_3
REMARK    3  A    between atoms: C_3  and  O_4
REMARK    4  A    between atoms: O_4  and  C_5
REMARK                            x       y       z     vdW  Elec       q    Type
REMARK                         _______ _______ _______ _____ _____    ______ ____
ROOT
ATOM      1  C   UNL     1       5.150   5.546  16.186  0.00  0.00    +0.000 A 
ATOM      2  C   UNL     1       4.585   6.479  17.063  0.00  0.00    +0.000 A 
ATOM      3  C   UNL     1       3.695   6.076  18.059  0.00  0.00    +0.000 A 
ATOM      4  C   UNL     1       3.388   4.724  18.182  0.00  0.00    +0.000 A 
ATOM      5  C   UNL     1       3.944   3.759  17.317  0.00  0.00    +0.000 A 
ATOM      6  C   UNL     1       4.821   4.190  16.312  0.00  0.00    +0.000 A 
ATOM      7  C   UNL     1       3.496   2.312  17.402  0.00  0.00    +0.000 C 
ATOM      8  C   UNL     1       3.117   1.896  18.831  0.00  0.00    +0.000 C 
ATOM      9  C   UNL     1       2.305   2.948  19.485  0.00  0.00    +0.000 A 
ATOM     10  N   UNL     1       1.403   2.874  20.441  0.00  0.00    +0.000 NA
ATOM     11  N   UNL     1       1.071   4.180  20.733  0.00  0.00    +0.000 NA
ATOM     12  N   UNL     1       1.763   5.035  19.989  0.00  0.00    +0.000 NA
ATOM     13  N   UNL     1       2.511   4.269  19.178  0.00  0.00    +0.000 N 
ENDROOT
BRANCH   1  14
ATOM     14  O   UNL     1       6.022   5.844  15.171  0.00  0.00    +0.000 OA
BRANCH  14  15
ATOM     15  C   UNL     1       6.952   4.815  14.824  0.00  0.00    +0.000 C 
BRANCH  15  17
ATOM     16  C   UNL     1       6.111   3.551  12.825  0.00  0.00    +0.000 C 
ATOM     17  C   UNL     1       7.006   4.680  13.308  0.00  0.00    +0.000 C 
ENDBRANCH  15  17
ENDBRANCH  14  15
ENDBRANCH   1  14
TORSDOF 3
ENDMDL
MODEL 6
REMARK VINA RESULT:      -6.7      3.217      5.643
REMARK  Name = 
REMARK  4 active torsions:
REMARK  status: ('A' for Active; 'I' for Inactive)
REMARK    1  A    between atoms: C_1  and  C_2
REMARK    2  A    between atoms: C_2  and  C_3
REMARK    3  A    between atoms: C_3  and  O_4
REMARK    4  A    between atoms: O_4  and  C_5
REMARK                            x       y       z     vdW  Elec       q    Type
REMARK                         _______ _______ _______ _____ _____    ______ ____
ROOT
ATOM      1  C   UNL     1       5.481   5.478  15.664  0.00  0.00    +0.000 A 
ATOM      2  C   UNL     1       5.131   6.717  16.213  0.00  0.00    +0.000 A 
ATOM      3  C   UNL     1       4.301   6.792  17.332  0.00  0.00    +0.000 A 
ATOM      4  C   UNL     1       3.839   5.614  17.910  0.00  0.00    +0.000 A 
ATOM      5  C   UNL     1       4.177   4.351  17.382  0.00  0.00    +0.000 A 
ATOM      6  C   UNL     1       4.997   4.300  16.247  0.00  0.00    +0.000 A 
ATOM      7  C   UNL     1       3.560   3.092  17.963  0.00  0.00    +0.000 C 
ATOM      8  C   UNL     1       3.276   3.216  19.468  0.00  0.00    +0.000 C 
ATOM      9  C   UNL     1       2.674   4.533  19.781  0.00  0.00    +0.000 A 
ATOM     10  N   UNL     1       1.871   4.905  20.755  0.00  0.00    +0.000 NA
ATOM     11  N   UNL     1       1.739   6.271  20.618  0.00  0.00    +0.000 NA
ATOM     12  N   UNL     1       2.455   6.728  19.598  0.00  0.00    +0.000 NA
ATOM     13  N   UNL     1       3.015   5.639  19.046  0.00  0.00    +0.000 N 
ENDROOT
BRANCH   1  14
ATOM     14  O   UNL     1       6.277   5.301  14.562  0.00  0.00    +0.000 OA
BRANCH  14  15
ATOM     15  C   UNL     1       6.393   3.958  14.085  0.00  0.00    +0.000 C 
BRANCH  15  17
ATOM     16  C   UNL     1       5.678   2.873  11.938  0.00  0.00    +0.000 C 
ATOM     17  C   UNL     1       6.515   3.975  12.566  0.00  0.00    +0.000 C 
ENDBRANCH  15  17
ENDBRANCH  14  15
ENDBRANCH   1  14
TORSDOF 3
ENDMDL
MODEL 7
REMARK VINA RESULT:      -6.7      1.633      1.970
REMARK  Name = 
REMARK  4 active torsions:
REMARK  status: ('A' for Active; 'I' for Inactive)
REMARK    1  A    between atoms: C_1  and  C_2
REMARK    2  A    between atoms: C_2  and  C_3
REMARK    3  A    between atoms: C_3  and  O_4
REMARK    4  A    between atoms: O_4  and  C_5
REMARK                            x       y       z     vdW  Elec       q    Type
REMARK                         _______ _______ _______ _____ _____    ______ ____
ROOT
ATOM      1  C   UNL     1       3.539   2.759  18.507  0.00  0.00    +0.000 A 
ATOM      2  C   UNL     1       4.385   3.072  19.577  0.00  0.00    +0.000 A 
ATOM      3  C   UNL     1       5.359   4.063  19.450  0.00  0.00    +0.000 A 
ATOM      4  C   UNL     1       5.467   4.753  18.247  0.00  0.00    +0.000 A 
ATOM      5  C   UNL     1       4.626   4.464  17.152  0.00  0.00    +0.000 A 
ATOM      6  C   UNL     1       3.668   3.451  17.296  0.00  0.00    +0.000 A 
ATOM      7  C   UNL     1       4.849   5.151  15.818  0.00  0.00    +0.000 C 
ATOM      8  C   UNL     1       5.399   6.577  15.975  0.00  0.00    +0.000 C 
ATOM      9  C   UNL     1       6.466   6.617  17.001  0.00  0.00    +0.000 A 
ATOM     10  N   UNL     1       7.496   7.424  17.144  0.00  0.00    +0.000 NA
ATOM     11  N   UNL     1       8.074   7.070  18.345  0.00  0.00    +0.000 NA
ATOM     12  N   UNL     1       7.408   6.083  18.932  0.00  0.00    +0.000 NA
ATOM     13  N   UNL     1       6.420   5.769  18.078  0.00  0.00    +0.000 N 
ENDROOT
BRANCH   1  14
ATOM     14  O   UNL     1       2.563   1.796  18.528  0.00  0.00    +0.000 OA
BRANCH  14  15
ATOM     15  C   UNL     1       1.233   2.260  18.774  0.00  0.00    +0.000 C 
BRANCH  15  17
ATOM     16  C   UNL     1       0.940   4.171  20.374  0.00  0.00    +0.000 C 
ATOM     17  C   UNL     1       1.108   2.667  20.237  0.00  0.00    +0.000 C 
ENDBRANCH  15  17
ENDBRANCH  14  15
ENDBRANCH   1  14
TORSDOF 3
ENDMDL
MODEL 8
REMARK VINA RESULT:      -6.7      3.629      6.044
REMARK  Name = 
REMARK  4 active torsions:
REMARK  status: ('A' for Active; 'I' for Inactive)
REMARK    1  A    between atoms: C_1  and  C_2
REMARK    2  A    between atoms: C_2  and  C_3
REMARK    3  A    between atoms: C_3  and  O_4
REMARK    4  A    between atoms: O_4  and  C_5
REMARK                            x       y       z     vdW  Elec       q    Type
REMARK                         _______ _______ _______ _____ _____    ______ ____
ROOT
ATOM      1  C   UNL     1       5.459   4.975  17.267  0.00  0.00    +0.000 A 
ATOM      2  C   UNL     1       5.965   4.567  18.506  0.00  0.00    +0.000 A 
ATOM      3  C   UNL     1       5.119   4.051  19.488  0.00  0.00    +0.000 A 
ATOM      4  C   UNL     1       3.761   3.927  19.211  0.00  0.00    +0.000 A 
ATOM      5  C   UNL     1       3.221   4.325  17.971  0.00  0.00    +0.000 A 
ATOM      6  C   UNL     1       4.087   4.858  17.007  0.00  0.00    +0.000 A 
ATOM      7  C   UNL     1       1.721   4.288  17.745  0.00  0.00    +0.000 C 
ATOM      8  C   UNL     1       1.037   3.154  18.523  0.00  0.00    +0.000 C 
ATOM      9  C   UNL     1       1.567   3.070  19.903  0.00  0.00    +0.000 A 
ATOM     10  N   UNL     1       1.016   2.631  21.015  0.00  0.00    +0.000 NA
ATOM     11  N   UNL     1       2.017   2.675  21.962  0.00  0.00    +0.000 NA
ATOM     12  N   UNL     1       3.157   3.113  21.443  0.00  0.00    +0.000 NA
ATOM     13  N   UNL     1       2.874   3.397  20.161  0.00  0.00    +0.000 N 
ENDROOT
BRANCH   1  14
ATOM     14  O   UNL     1       6.204   5.505  16.246  0.00  0.00    +0.000 OA
BRANCH  14  15
ATOM     15  C   UNL     1       7.037   4.585  15.537  0.00  0.00    +0.000 C 
BRANCH  15  17
ATOM     16  C   UNL     1       5.900   3.756  13.459  0.00  0.00    +0.000 C 
ATOM     17  C   UNL     1       6.849   4.791  14.039  0.00  0.00    +0.000 C 
ENDBRANCH  15  17
ENDBRANCH  14  15
ENDBRANCH   1  14
TORSDOF 3
ENDMDL
MODEL 9
REMARK VINA RESULT:      -6.7      1.619      2.252
REMARK  Name = 
REMARK  4 active torsions:
REMARK  status: ('A' for Active; 'I' for Inactive)
REMARK    1  A    between atoms: C_1  and  C_2
REMARK    2  A    between atoms: C_2  and  C_3
REMARK    3  A    between atoms: C_3  and  O_4
REMARK    4  A    between atoms: O_4  and  C_5
REMARK                            x       y       z     vdW  Elec       q    Type
REMARK                         _______ _______ _______ _____ _____    ______ ____
ROOT
ATOM      1  C   UNL     1       2.936   5.241  19.498  0.00  0.00    +0.000 A 
ATOM      2  C   UNL     1       2.475   5.215  18.177  0.00  0.00    +0.000 A 
ATOM      3  C   UNL     1       3.372   5.233  17.108  0.00  0.00    +0.000 A 
ATOM      4  C   UNL     1       4.738   5.258  17.373  0.00  0.00    +0.000 A 
ATOM      5  C   UNL     1       5.233   5.281  18.693  0.00  0.00    +0.000 A 
ATOM      6  C   UNL     1       4.313   5.281  19.751  0.00  0.00    +0.000 A 
ATOM      7  C   UNL     1       6.722   5.429  18.947  0.00  0.00    +0.000 C 
ATOM      8  C   UNL     1       7.573   4.779  17.845  0.00  0.00    +0.000 C 
ATOM      9  C   UNL     1       7.028   5.096  16.505  0.00  0.00    +0.000 A 
ATOM     10  N   UNL     1       7.617   5.180  15.332  0.00  0.00    +0.000 NA
ATOM     11  N   UNL     1       6.598   5.380  14.424  0.00  0.00    +0.000 NA
ATOM     12  N   UNL     1       5.413   5.401  15.022  0.00  0.00    +0.000 NA
ATOM     13  N   UNL     1       5.678   5.260  16.331  0.00  0.00    +0.000 N 
ENDROOT
BRANCH   1  14
ATOM     14  O   UNL     1       2.137   5.239  20.612  0.00  0.00    +0.000 OA
BRANCH  14  15
ATOM     15  C   UNL     1       2.140   4.034  21.381  0.00  0.00    +0.000 C 
BRANCH  15  17
ATOM     16  C   UNL     1       1.741   2.079  19.860  0.00  0.00    +0.000 C 
ATOM     17  C   UNL     1       1.102   3.075  20.813  0.00  0.00    +0.000 C 
ENDBRANCH  15  17
ENDBRANCH  14  15
ENDBRANCH   1  14
TORSDOF 3
ENDMDL
