MODEL 1
REMARK VINA RESULT:      -7.1      0.000      0.000
REMARK  Name = 
REMARK  8 active torsions:
REMARK  status: ('A' for Active; 'I' for Inactive)
REMARK    1  A    between atoms: C_1  and  C_2
REMARK    2  A    between atoms: C_2  and  O_3
REMARK    3  A    between atoms: O_3  and  C_4
REMARK    4  A    between atoms: C_7  and  C_8
REMARK    5  A    between atoms: C_8  and  C_9
REMARK    6  A    between atoms: C_13  and  S_14
REMARK    7  A    between atoms: S_14  and  C_16
REMARK    8  A    between atoms: C_16  and  C_17
REMARK                            x       y       z     vdW  Elec       q    Type
REMARK                         _______ _______ _______ _____ _____    ______ ____
ROOT
ATOM      1  C   UNL     1       1.331   9.635  18.813  0.00  0.00    +0.000 A 
ATOM      2  N   UNL     1       2.189   9.463  17.828  0.00  0.00    +0.000 NA
ATOM      3  C   UNL     1       2.753   8.235  18.029  0.00  0.00    +0.000 A 
ATOM      4  C   UNL     1       3.681   7.546  17.237  0.00  0.00    +0.000 A 
ATOM      5  C   UNL     1       4.073   6.248  17.602  0.00  0.00    +0.000 A 
ATOM      6  C   UNL     1       3.573   5.684  18.789  0.00  0.00    +0.000 A 
ATOM      7 CL   UNL     1       4.007   4.080  19.286  0.00  0.00    +0.000 Cl
ATOM      8  C   UNL     1       2.662   6.375  19.613  0.00  0.00    +0.000 A 
ATOM      9  C   UNL     1       2.260   7.643  19.185  0.00  0.00    +0.000 A 
ATOM     10  N   UNL     1       1.367   8.564  19.679  0.00  0.00    +0.000 N 
ATOM     11  H   UNL     1       0.809   8.468  20.518  0.00  0.00    +0.000 HD
ENDROOT
BRANCH   5  12
ATOM     12  S   UNL     1       5.091   5.296  16.438  0.00  0.00    +0.000 S 
ATOM     13  O   UNL     1       5.328   6.235  15.200  0.00  0.00    +0.000 OA
BRANCH  12  14
ATOM     14  C   UNL     1       6.652   5.252  17.378  0.00  0.00    +0.000 C 
ATOM     15  C   UNL     1       7.257   6.647  17.434  0.00  0.00    +0.000 C 
ENDBRANCH  12  14
ENDBRANCH   5  12
BRANCH   1  16
ATOM     16  C   UNL     1       0.466  10.838  19.014  0.00  0.00    +0.000 C 
BRANCH  16  20
ATOM     17  C   UNL     1      -3.571  10.776  17.414  0.00  0.00    +0.000 A 
ATOM     18  C   UNL     1      -3.215  11.638  18.450  0.00  0.00    +0.000 A 
ATOM     19  C   UNL     1      -1.917  11.630  18.969  0.00  0.00    +0.000 A 
ATOM     20  C   UNL     1      -0.950  10.739  18.478  0.00  0.00    +0.000 A 
ATOM     21  C   UNL     1      -1.319   9.874  17.437  0.00  0.00    +0.000 A 
ATOM     22  C   UNL     1      -2.625   9.880  16.920  0.00  0.00    +0.000 A 
BRANCH  17  23
ATOM     23  O   UNL     1      -4.860  10.904  16.976  0.00  0.00    +0.000 OA
BRANCH  23  25
ATOM     24  C   UNL     1      -6.871  11.597  18.049  0.00  0.00    +0.000 C 
ATOM     25  C   UNL     1      -5.571  12.062  17.413  0.00  0.00    +0.000 C 
ENDBRANCH  23  25
ENDBRANCH  17  23
ENDBRANCH  16  20
ENDBRANCH   1  16
TORSDOF 6
ENDMDL
MODEL 2
REMARK VINA RESULT:      -6.9      3.451      8.912
REMARK  Name = 
REMARK  8 active torsions:
REMARK  status: ('A' for Active; 'I' for Inactive)
REMARK    1  A    between atoms: C_1  and  C_2
REMARK    2  A    between atoms: C_2  and  O_3
REMARK    3  A    between atoms: O_3  and  C_4
REMARK    4  A    between atoms: C_7  and  C_8
REMARK    5  A    between atoms: C_8  and  C_9
REMARK    6  A    between atoms: C_13  and  S_14
REMARK    7  A    between atoms: S_14  and  C_16
REMARK    8  A    between atoms: C_16  and  C_17
REMARK                            x       y       z     vdW  Elec       q    Type
REMARK                         _______ _______ _______ _____ _____    ______ ____
ROOT
ATOM      1  C   UNL     1       2.819   6.354  19.634  0.00  0.00    +0.000 A 
ATOM      2  N   UNL     1       2.573   7.359  18.818  0.00  0.00    +0.000 NA
ATOM      3  C   UNL     1       1.784   8.228  19.516  0.00  0.00    +0.000 A 
ATOM      4  C   UNL     1       1.291   9.482  19.131  0.00  0.00    +0.000 A 
ATOM      5  C   UNL     1       0.549  10.245  20.048  0.00  0.00    +0.000 A 
ATOM      6  C   UNL     1       0.263   9.712  21.317  0.00  0.00    +0.000 A 
ATOM      7 CL   UNL     1      -0.634  10.611  22.499  0.00  0.00    +0.000 Cl
ATOM      8  C   UNL     1       0.726   8.440  21.710  0.00  0.00    +0.000 A 
ATOM      9  C   UNL     1       1.502   7.737  20.785  0.00  0.00    +0.000 A 
ATOM     10  N   UNL     1       2.159   6.530  20.831  0.00  0.00    +0.000 N 
ATOM     11  H   UNL     1       2.180   5.889  21.613  0.00  0.00    +0.000 HD
ENDROOT
BRANCH   5  12
ATOM     12  S   UNL     1       0.126  11.954  19.603  0.00  0.00    +0.000 S 
ATOM     13  O   UNL     1       1.021  12.314  18.362  0.00  0.00    +0.000 OA
BRANCH  12  14
ATOM     14  C   UNL     1      -1.565  11.686  18.979  0.00  0.00    +0.000 C 
ATOM     15  C   UNL     1      -2.556  12.462  19.834  0.00  0.00    +0.000 C 
ENDBRANCH  12  14
ENDBRANCH   5  12
BRANCH   1  16
ATOM     16  C   UNL     1       3.650   5.154  19.312  0.00  0.00    +0.000 C 
BRANCH  16  20
ATOM     17  C   UNL     1       6.489   5.405  16.035  0.00  0.00    +0.000 A 
ATOM     18  C   UNL     1       6.826   5.825  17.320  0.00  0.00    +0.000 A 
ATOM     19  C   UNL     1       5.894   5.758  18.360  0.00  0.00    +0.000 A 
ATOM     20  C   UNL     1       4.591   5.291  18.130  0.00  0.00    +0.000 A 
ATOM     21  C   UNL     1       4.260   4.872  16.832  0.00  0.00    +0.000 A 
ATOM     22  C   UNL     1       5.197   4.944  15.788  0.00  0.00    +0.000 A 
BRANCH  17  23
ATOM     23  O   UNL     1       7.498   5.491  15.117  0.00  0.00    +0.000 OA
BRANCH  23  25
ATOM     24  C   UNL     1       8.097   5.522  12.811  0.00  0.00    +0.000 C 
ATOM     25  C   UNL     1       7.304   4.796  13.885  0.00  0.00    +0.000 C 
ENDBRANCH  23  25
ENDBRANCH  17  23
ENDBRANCH  16  20
ENDBRANCH   1  16
TORSDOF 6
ENDMDL
MODEL 3
REMARK VINA RESULT:      -6.8      4.400      8.634
REMARK  Name = 
REMARK  8 active torsions:
REMARK  status: ('A' for Active; 'I' for Inactive)
REMARK    1  A    between atoms: C_1  and  C_2
REMARK    2  A    between atoms: C_2  and  O_3
REMARK    3  A    between atoms: O_3  and  C_4
REMARK    4  A    between atoms: C_7  and  C_8
REMARK    5  A    between atoms: C_8  and  C_9
REMARK    6  A    between atoms: C_13  and  S_14
REMARK    7  A    between atoms: S_14  and  C_16
REMARK    8  A    between atoms: C_16  and  C_17
REMARK                            x       y       z     vdW  Elec       q    Type
REMARK                         _______ _______ _______ _____ _____    ______ ____
ROOT
ATOM      1  C   UNL     1       1.994   8.574  18.284  0.00  0.00    +0.000 A 
ATOM      2  N   UNL     1       1.882   8.701  19.591  0.00  0.00    +0.000 NA
ATOM      3  C   UNL     1       0.934   9.661  19.798  0.00  0.00    +0.000 A 
ATOM      4  C   UNL     1       0.397  10.130  21.004  0.00  0.00    +0.000 A 
ATOM      5  C   UNL     1      -0.635  11.083  20.977  0.00  0.00    +0.000 A 
ATOM      6  C   UNL     1      -1.071  11.595  19.742  0.00  0.00    +0.000 A 
ATOM      7 CL   UNL     1      -2.351  12.761  19.642  0.00  0.00    +0.000 Cl
ATOM      8  C   UNL     1      -0.520  11.156  18.521  0.00  0.00    +0.000 A 
ATOM      9  C   UNL     1       0.468  10.170  18.592  0.00  0.00    +0.000 A 
ATOM     10  N   UNL     1       1.173   9.474  17.640  0.00  0.00    +0.000 N 
ATOM     11  H   UNL     1       1.091   9.579  16.636  0.00  0.00    +0.000 HD
ENDROOT
BRANCH   5  12
ATOM     12  S   UNL     1      -1.467  11.496  22.538  0.00  0.00    +0.000 S 
ATOM     13  O   UNL     1      -0.815  10.577  23.634  0.00  0.00    +0.000 OA
BRANCH  12  14
ATOM     14  C   UNL     1      -0.806  13.176  22.789  0.00  0.00    +0.000 C 
ATOM     15  C   UNL     1      -1.783  13.992  23.622  0.00  0.00    +0.000 C 
ENDBRANCH  12  14
ENDBRANCH   5  12
BRANCH   1  16
ATOM     16  C   UNL     1       2.913   7.632  17.575  0.00  0.00    +0.000 C 
BRANCH  16  20
ATOM     17  C   UNL     1       2.969   3.634  19.269  0.00  0.00    +0.000 A 
ATOM     18  C   UNL     1       3.975   4.555  19.553  0.00  0.00    +0.000 A 
ATOM     19  C   UNL     1       3.955   5.830  18.982  0.00  0.00    +0.000 A 
ATOM     20  C   UNL     1       2.936   6.206  18.092  0.00  0.00    +0.000 A 
ATOM     21  C   UNL     1       1.929   5.270  17.811  0.00  0.00    +0.000 A 
ATOM     22  C   UNL     1       1.953   3.987  18.382  0.00  0.00    +0.000 A 
BRANCH  17  23
ATOM     23  O   UNL     1       3.087   2.435  19.915  0.00  0.00    +0.000 OA
BRANCH  23  25
ATOM     24  C   UNL     1       1.434   2.719  21.607  0.00  0.00    +0.000 C 
ATOM     25  C   UNL     1       2.904   2.450  21.331  0.00  0.00    +0.000 C 
ENDBRANCH  23  25
ENDBRANCH  17  23
ENDBRANCH  16  20
ENDBRANCH   1  16
TORSDOF 6
ENDMDL
MODEL 4
REMARK VINA RESULT:      -6.8      2.270      2.995
REMARK  Name = 
REMARK  8 active torsions:
REMARK  status: ('A' for Active; 'I' for Inactive)
REMARK    1  A    between atoms: C_1  and  C_2
REMARK    2  A    between atoms: C_2  and  O_3
REMARK    3  A    between atoms: O_3  and  C_4
REMARK    4  A    between atoms: C_7  and  C_8
REMARK    5  A    between atoms: C_8  and  C_9
REMARK    6  A    between atoms: C_13  and  S_14
REMARK    7  A    between atoms: S_14  and  C_16
REMARK    8  A    between atoms: C_16  and  C_17
REMARK                            x       y       z     vdW  Elec       q    Type
REMARK                         _______ _______ _______ _____ _____    ______ ____
ROOT
ATOM      1  C   UNL     1       1.704   9.039  19.045  0.00  0.00    +0.000 A 
ATOM      2  N   UNL     1       1.460   8.012  19.834  0.00  0.00    +0.000 NA
ATOM      3  C   UNL     1       2.168   6.963  19.319  0.00  0.00    +0.000 A 
ATOM      4  C   UNL     1       2.303   5.659  19.813  0.00  0.00    +0.000 A 
ATOM      5  C   UNL     1       3.150   4.754  19.152  0.00  0.00    +0.000 A 
ATOM      6  C   UNL     1       3.802   5.154  17.972  0.00  0.00    +0.000 A 
ATOM      7 CL   UNL     1       4.873   4.089  17.119  0.00  0.00    +0.000 Cl
ATOM      8  C   UNL     1       3.653   6.453  17.445  0.00  0.00    +0.000 A 
ATOM      9  C   UNL     1       2.842   7.336  18.163  0.00  0.00    +0.000 A 
ATOM     10  N   UNL     1       2.515   8.661  17.997  0.00  0.00    +0.000 N 
ATOM     11  H   UNL     1       2.833   9.268  17.252  0.00  0.00    +0.000 HD
ENDROOT
BRANCH   5  12
ATOM     12  S   UNL     1       3.486   3.154  19.942  0.00  0.00    +0.000 S 
ATOM     13  O   UNL     1       2.673   3.155  21.287  0.00  0.00    +0.000 OA
BRANCH  12  14
ATOM     14  C   UNL     1       2.599   2.061  18.784  0.00  0.00    +0.000 C 
ATOM     15  C   UNL     1       1.103   2.320  18.879  0.00  0.00    +0.000 C 
ENDBRANCH  12  14
ENDBRANCH   5  12
BRANCH   1  16
ATOM     16  C   UNL     1       1.149  10.417  19.212  0.00  0.00    +0.000 C 
BRANCH  16  20
ATOM     17  C   UNL     1      -2.925  11.197  17.927  0.00  0.00    +0.000 A 
ATOM     18  C   UNL     1      -2.355  11.893  18.992  0.00  0.00    +0.000 A 
ATOM     19  C   UNL     1      -1.050  11.614  19.408  0.00  0.00    +0.000 A 
ATOM     20  C   UNL     1      -0.292  10.613  18.780  0.00  0.00    +0.000 A 
ATOM     21  C   UNL     1      -0.875   9.917  17.711  0.00  0.00    +0.000 A 
ATOM     22  C   UNL     1      -2.189  10.195  17.297  0.00  0.00    +0.000 A 
BRANCH  17  23
ATOM     23  O   UNL     1      -4.194  11.586  17.599  0.00  0.00    +0.000 OA
BRANCH  23  25
ATOM     24  C   UNL     1      -6.373  10.960  18.334  0.00  0.00    +0.000 C 
ATOM     25  C   UNL     1      -5.115  11.739  18.679  0.00  0.00    +0.000 C 
ENDBRANCH  23  25
ENDBRANCH  17  23
ENDBRANCH  16  20
ENDBRANCH   1  16
TORSDOF 6
ENDMDL
MODEL 5
REMARK VINA RESULT:      -6.8      1.562      1.942
REMARK  Name = 
REMARK  8 active torsions:
REMARK  status: ('A' for Active; 'I' for Inactive)
REMARK    1  A    between atoms: C_1  and  C_2
REMARK    2  A    between atoms: C_2  and  O_3
REMARK    3  A    between atoms: O_3  and  C_4
REMARK    4  A    between atoms: C_7  and  C_8
REMARK    5  A    between atoms: C_8  and  C_9
REMARK    6  A    between atoms: C_13  and  S_14
REMARK    7  A    between atoms: S_14  and  C_16
REMARK    8  A    between atoms: C_16  and  C_17
REMARK                            x       y       z     vdW  Elec       q    Type
REMARK                         _______ _______ _______ _____ _____    ______ ____
ROOT
ATOM      1  C   UNL     1       1.441   9.352  18.940  0.00  0.00    +0.000 A 
ATOM      2  N   UNL     1       2.154   8.651  18.081  0.00  0.00    +0.000 NA
ATOM      3  C   UNL     1       2.372   7.439  18.673  0.00  0.00    +0.000 A 
ATOM      4  C   UNL     1       3.024   6.309  18.162  0.00  0.00    +0.000 A 
ATOM      5  C   UNL     1       3.069   5.132  18.927  0.00  0.00    +0.000 A 
ATOM      6  C   UNL     1       2.511   5.125  20.218  0.00  0.00    +0.000 A 
ATOM      7 CL   UNL     1       2.521   3.700  21.205  0.00  0.00    +0.000 Cl
ATOM      8  C   UNL     1       1.879   6.263  20.759  0.00  0.00    +0.000 A 
ATOM      9  C   UNL     1       1.812   7.396  19.943  0.00  0.00    +0.000 A 
ATOM     10  N   UNL     1       1.239   8.635  20.099  0.00  0.00    +0.000 N 
ATOM     11  H   UNL     1       0.731   8.964  20.911  0.00  0.00    +0.000 HD
ENDROOT
BRANCH   5  12
ATOM     12  S   UNL     1       3.711   3.622  18.148  0.00  0.00    +0.000 S 
ATOM     13  O   UNL     1       2.748   3.311  16.945  0.00  0.00    +0.000 OA
BRANCH  12  14
ATOM     14  C   UNL     1       5.251   4.288  17.438  0.00  0.00    +0.000 C 
ATOM     15  C   UNL     1       5.215   4.160  15.923  0.00  0.00    +0.000 C 
ENDBRANCH  12  14
ENDBRANCH   5  12
BRANCH   1  16
ATOM     16  C   UNL     1       0.952  10.749  18.730  0.00  0.00    +0.000 C 
BRANCH  16  20
ATOM     17  C   UNL     1      -3.335  10.978  18.079  0.00  0.00    +0.000 A 
ATOM     18  C   UNL     1      -2.542  10.076  17.372  0.00  0.00    +0.000 A 
ATOM     19  C   UNL     1      -1.161  10.030  17.577  0.00  0.00    +0.000 A 
ATOM     20  C   UNL     1      -0.536  10.906  18.480  0.00  0.00    +0.000 A 
ATOM     21  C   UNL     1      -1.343  11.812  19.184  0.00  0.00    +0.000 A 
ATOM     22  C   UNL     1      -2.731  11.860  18.974  0.00  0.00    +0.000 A 
BRANCH  17  23
ATOM     23  O   UNL     1      -4.674  10.901  17.811  0.00  0.00    +0.000 OA
BRANCH  23  25
ATOM     24  C   UNL     1      -6.908  11.703  18.023  0.00  0.00    +0.000 C 
ATOM     25  C   UNL     1      -5.545  11.614  18.689  0.00  0.00    +0.000 C 
ENDBRANCH  23  25
ENDBRANCH  17  23
ENDBRANCH  16  20
ENDBRANCH   1  16
TORSDOF 6
ENDMDL
MODEL 6
REMARK VINA RESULT:      -6.8      4.093      8.608
REMARK  Name = 
REMARK  8 active torsions:
REMARK  status: ('A' for Active; 'I' for Inactive)
REMARK    1  A    between atoms: C_1  and  C_2
REMARK    2  A    between atoms: C_2  and  O_3
REMARK    3  A    between atoms: O_3  and  C_4
REMARK    4  A    between atoms: C_7  and  C_8
REMARK    5  A    between atoms: C_8  and  C_9
REMARK    6  A    between atoms: C_13  and  S_14
REMARK    7  A    between atoms: S_14  and  C_16
REMARK    8  A    between atoms: C_16  and  C_17
REMARK                            x       y       z     vdW  Elec       q    Type
REMARK                         _______ _______ _______ _____ _____    ______ ____
ROOT
ATOM      1  C   UNL     1       1.961   8.584  18.554  0.00  0.00    +0.000 A 
ATOM      2  N   UNL     1       1.358   9.672  18.117  0.00  0.00    +0.000 NA
ATOM      3  C   UNL     1       0.655  10.166  19.178  0.00  0.00    +0.000 A 
ATOM      4  C   UNL     1      -0.108  11.338  19.266  0.00  0.00    +0.000 A 
ATOM      5  C   UNL     1      -0.693  11.692  20.493  0.00  0.00    +0.000 A 
ATOM      6  C   UNL     1      -0.552  10.834  21.598  0.00  0.00    +0.000 A 
ATOM      7 CL   UNL     1      -1.236  11.223  23.143  0.00  0.00    +0.000 Cl
ATOM      8  C   UNL     1       0.187   9.636  21.518  0.00  0.00    +0.000 A 
ATOM      9  C   UNL     1       0.794   9.349  20.293  0.00  0.00    +0.000 A 
ATOM     10  N   UNL     1       1.617   8.335  19.865  0.00  0.00    +0.000 N 
ATOM     11  H   UNL     1       1.941   7.552  20.418  0.00  0.00    +0.000 HD
ENDROOT
BRANCH   5  12
ATOM     12  S   UNL     1      -1.475  13.325  20.635  0.00  0.00    +0.000 S 
ATOM     13  O   UNL     1      -0.948  14.167  19.416  0.00  0.00    +0.000 OA
BRANCH  12  14
ATOM     14  C   UNL     1      -3.197  12.861  20.257  0.00  0.00    +0.000 C 
ATOM     15  C   UNL     1      -4.027  12.890  21.531  0.00  0.00    +0.000 C 
ENDBRANCH  12  14
ENDBRANCH   5  12
BRANCH   1  16
ATOM     16  C   UNL     1       2.854   7.698  17.746  0.00  0.00    +0.000 C 
BRANCH  16  20
ATOM     17  C   UNL     1       3.051   3.615  19.213  0.00  0.00    +0.000 A 
ATOM     18  C   UNL     1       4.031   4.551  19.539  0.00  0.00    +0.000 A 
ATOM     19  C   UNL     1       3.965   5.855  19.041  0.00  0.00    +0.000 A 
ATOM     20  C   UNL     1       2.926   6.247  18.182  0.00  0.00    +0.000 A 
ATOM     21  C   UNL     1       1.945   5.297  17.858  0.00  0.00    +0.000 A 
ATOM     22  C   UNL     1       2.016   3.985  18.356  0.00  0.00    +0.000 A 
BRANCH  17  23
ATOM     23  O   UNL     1       3.213   2.386  19.790  0.00  0.00    +0.000 OA
BRANCH  23  25
ATOM     24  C   UNL     1       1.680   2.602  21.600  0.00  0.00    +0.000 C 
ATOM     25  C   UNL     1       3.124   2.331  21.213  0.00  0.00    +0.000 C 
ENDBRANCH  23  25
ENDBRANCH  17  23
ENDBRANCH  16  20
ENDBRANCH   1  16
TORSDOF 6
ENDMDL
MODEL 7
REMARK VINA RESULT:      -6.8      1.571      1.725
REMARK  Name = 
REMARK  8 active torsions:
REMARK  status: ('A' for Active; 'I' for Inactive)
REMARK    1  A    between atoms: C_1  and  C_2
REMARK    2  A    between atoms: C_2  and  O_3
REMARK    3  A    between atoms: O_3  and  C_4
REMARK    4  A    between atoms: C_7  and  C_8
REMARK    5  A    between atoms: C_8  and  C_9
REMARK    6  A    between atoms: C_13  and  S_14
REMARK    7  A    between atoms: S_14  and  C_16
REMARK    8  A    between atoms: C_16  and  C_17
REMARK                            x       y       z     vdW  Elec       q    Type
REMARK                         _______ _______ _______ _____ _____    ______ ____
ROOT
ATOM      1  C   UNL     1       1.404   9.103  19.391  0.00  0.00    +0.000 A 
ATOM      2  N   UNL     1       2.168   8.522  18.487  0.00  0.00    +0.000 NA
ATOM      3  C   UNL     1       2.402   7.258  18.947  0.00  0.00    +0.000 A 
ATOM      4  C   UNL     1       3.105   6.210  18.338  0.00  0.00    +0.000 A 
ATOM      5  C   UNL     1       3.159   4.956  18.967  0.00  0.00    +0.000 A 
ATOM      6  C   UNL     1       2.556   4.788  20.227  0.00  0.00    +0.000 A 
ATOM      7 CL   UNL     1       2.574   3.261  21.047  0.00  0.00    +0.000 Cl
ATOM      8  C   UNL     1       1.871   5.841  20.867  0.00  0.00    +0.000 A 
ATOM      9  C   UNL     1       1.799   7.056  20.182  0.00  0.00    +0.000 A 
ATOM     10  N   UNL     1       1.183   8.255  20.454  0.00  0.00    +0.000 N 
ATOM     11  H   UNL     1       0.638   8.476  21.278  0.00  0.00    +0.000 HD
ENDROOT
BRANCH   5  12
ATOM     12  S   UNL     1       3.873   3.561  18.049  0.00  0.00    +0.000 S 
ATOM     13  O   UNL     1       2.860   3.240  16.890  0.00  0.00    +0.000 OA
BRANCH  12  14
ATOM     14  C   UNL     1       5.298   4.406  17.290  0.00  0.00    +0.000 C 
ATOM     15  C   UNL     1       5.221   4.284  15.776  0.00  0.00    +0.000 C 
ENDBRANCH  12  14
ENDBRANCH   5  12
BRANCH   1  16
ATOM     16  C   UNL     1       0.881  10.502  19.321  0.00  0.00    +0.000 C 
BRANCH  16  20
ATOM     17  C   UNL     1      -3.099  11.180  17.723  0.00  0.00    +0.000 A 
ATOM     18  C   UNL     1      -2.630  11.892  18.825  0.00  0.00    +0.000 A 
ATOM     19  C   UNL     1      -1.354  11.647  19.341  0.00  0.00    +0.000 A 
ATOM     20  C   UNL     1      -0.526  10.662  18.779  0.00  0.00    +0.000 A 
ATOM     21  C   UNL     1      -1.010   9.949  17.671  0.00  0.00    +0.000 A 
ATOM     22  C   UNL     1      -2.293  10.194  17.157  0.00  0.00    +0.000 A 
BRANCH  17  23
ATOM     23  O   UNL     1      -4.349  11.537  17.297  0.00  0.00    +0.000 OA
BRANCH  23  25
ATOM     24  C   UNL     1      -6.282  10.840  18.503  0.00  0.00    +0.000 C 
ATOM     25  C   UNL     1      -5.271  11.957  18.302  0.00  0.00    +0.000 C 
ENDBRANCH  23  25
ENDBRANCH  17  23
ENDBRANCH  16  20
ENDBRANCH   1  16
TORSDOF 6
ENDMDL
MODEL 8
REMARK VINA RESULT:      -6.7      3.632      8.723
REMARK  Name = 
REMARK  8 active torsions:
REMARK  status: ('A' for Active; 'I' for Inactive)
REMARK    1  A    between atoms: C_1  and  C_2
REMARK    2  A    between atoms: C_2  and  O_3
REMARK    3  A    between atoms: O_3  and  C_4
REMARK    4  A    between atoms: C_7  and  C_8
REMARK    5  A    between atoms: C_8  and  C_9
REMARK    6  A    between atoms: C_13  and  S_14
REMARK    7  A    between atoms: S_14  and  C_16
REMARK    8  A    between atoms: C_16  and  C_17
REMARK                            x       y       z     vdW  Elec       q    Type
REMARK                         _______ _______ _______ _____ _____    ______ ____
ROOT
ATOM      1  C   UNL     1       2.484   6.672  19.724  0.00  0.00    +0.000 A 
ATOM      2  N   UNL     1       2.213   7.667  18.902  0.00  0.00    +0.000 NA
ATOM      3  C   UNL     1       1.509   8.579  19.634  0.00  0.00    +0.000 A 
ATOM      4  C   UNL     1       1.033   9.841  19.254  0.00  0.00    +0.000 A 
ATOM      5  C   UNL     1       0.389  10.652  20.204  0.00  0.00    +0.000 A 
ATOM      6  C   UNL     1       0.179  10.159  21.504  0.00  0.00    +0.000 A 
ATOM      7 CL   UNL     1      -0.596  11.117  22.725  0.00  0.00    +0.000 Cl
ATOM      8  C   UNL     1       0.625   8.880  21.894  0.00  0.00    +0.000 A 
ATOM      9  C   UNL     1       1.305   8.129  20.932  0.00  0.00    +0.000 A 
ATOM     10  N   UNL     1       1.921   6.900  20.960  0.00  0.00    +0.000 N 
ATOM     11  H   UNL     1       1.978   6.276  21.755  0.00  0.00    +0.000 HD
ENDROOT
BRANCH   5  12
ATOM     12  S   UNL     1      -0.006  12.365  19.748  0.00  0.00    +0.000 S 
ATOM     13  O   UNL     1       0.646  12.600  18.337  0.00  0.00    +0.000 OA
BRANCH  12  14
ATOM     14  C   UNL     1      -1.801  12.193  19.482  0.00  0.00    +0.000 C 
ATOM     15  C   UNL     1      -2.549  13.149  20.399  0.00  0.00    +0.000 C 
ENDBRANCH  12  14
ENDBRANCH   5  12
BRANCH   1  16
ATOM     16  C   UNL     1       3.247   5.435  19.372  0.00  0.00    +0.000 C 
BRANCH  16  20
ATOM     17  C   UNL     1       5.436   5.514  15.623  0.00  0.00    +0.000 A 
ATOM     18  C   UNL     1       5.035   4.311  16.203  0.00  0.00    +0.000 A 
ATOM     19  C   UNL     1       4.350   4.302  17.421  0.00  0.00    +0.000 A 
ATOM     20  C   UNL     1       4.072   5.498  18.101  0.00  0.00    +0.000 A 
ATOM     21  C   UNL     1       4.482   6.703  17.510  0.00  0.00    +0.000 A 
ATOM     22  C   UNL     1       5.174   6.710  16.288  0.00  0.00    +0.000 A 
BRANCH  17  23
ATOM     23  O   UNL     1       6.068   5.388  14.417  0.00  0.00    +0.000 OA
BRANCH  23  25
ATOM     24  C   UNL     1       5.987   3.648  12.791  0.00  0.00    +0.000 C 
ATOM     25  C   UNL     1       6.602   4.101  14.105  0.00  0.00    +0.000 C 
ENDBRANCH  23  25
ENDBRANCH  17  23
ENDBRANCH  16  20
ENDBRANCH   1  16
TORSDOF 6
ENDMDL
MODEL 9
REMARK VINA RESULT:      -6.7      2.262      3.151
REMARK  Name = 
REMARK  8 active torsions:
REMARK  status: ('A' for Active; 'I' for Inactive)
REMARK    1  A    between atoms: C_1  and  C_2
REMARK    2  A    between atoms: C_2  and  O_3
REMARK    3  A    between atoms: O_3  and  C_4
REMARK    4  A    between atoms: C_7  and  C_8
REMARK    5  A    between atoms: C_8  and  C_9
REMARK    6  A    between atoms: C_13  and  S_14
REMARK    7  A    between atoms: S_14  and  C_16
REMARK    8  A    between atoms: C_16  and  C_17
REMARK                            x       y       z     vdW  Elec       q    Type
REMARK                         _______ _______ _______ _____ _____    ______ ____
ROOT
ATOM      1  C   UNL     1       1.605   8.990  19.320  0.00  0.00    +0.000 A 
ATOM      2  N   UNL     1       1.420   7.925  20.074  0.00  0.00    +0.000 NA
ATOM      3  C   UNL     1       2.122   6.916  19.479  0.00  0.00    +0.000 A 
ATOM      4  C   UNL     1       2.307   5.594  19.907  0.00  0.00    +0.000 A 
ATOM      5  C   UNL     1       3.138   4.737  19.166  0.00  0.00    +0.000 A 
ATOM      6  C   UNL     1       3.721   5.202  17.974  0.00  0.00    +0.000 A 
ATOM      7 CL   UNL     1       4.768   4.198  17.023  0.00  0.00    +0.000 Cl
ATOM      8  C   UNL     1       3.520   6.519  17.513  0.00  0.00    +0.000 A 
ATOM      9  C   UNL     1       2.729   7.352  18.309  0.00  0.00    +0.000 A 
ATOM     10  N   UNL     1       2.369   8.676  18.218  0.00  0.00    +0.000 N 
ATOM     11  H   UNL     1       2.636   9.321  17.486  0.00  0.00    +0.000 HD
ENDROOT
BRANCH   5  12
ATOM     12  S   UNL     1       3.544   3.112  19.867  0.00  0.00    +0.000 S 
ATOM     13  O   UNL     1       2.787   3.031  21.243  0.00  0.00    +0.000 OA
BRANCH  12  14
ATOM     14  C   UNL     1       2.636   2.051  18.697  0.00  0.00    +0.000 C 
ATOM     15  C   UNL     1       1.141   2.295  18.835  0.00  0.00    +0.000 C 
ENDBRANCH  12  14
ENDBRANCH   5  12
BRANCH   1  16
ATOM     16  C   UNL     1       1.032  10.348  19.575  0.00  0.00    +0.000 C 
BRANCH  16  20
ATOM     17  C   UNL     1      -2.755  11.066  17.575  0.00  0.00    +0.000 A 
ATOM     18  C   UNL     1      -1.914  10.027  17.182  0.00  0.00    +0.000 A 
ATOM     19  C   UNL     1      -0.688   9.822  17.822  0.00  0.00    +0.000 A 
ATOM     20  C   UNL     1      -0.264  10.671  18.856  0.00  0.00    +0.000 A 
ATOM     21  C   UNL     1      -1.117  11.716  19.242  0.00  0.00    +0.000 A 
ATOM     22  C   UNL     1      -2.347  11.923  18.595  0.00  0.00    +0.000 A 
BRANCH  17  23
ATOM     23  O   UNL     1      -3.938  11.138  16.892  0.00  0.00    +0.000 OA
BRANCH  23  25
ATOM     24  C   UNL     1      -5.903  12.444  17.223  0.00  0.00    +0.000 C 
ATOM     25  C   UNL     1      -5.126  11.220  17.679  0.00  0.00    +0.000 C 
ENDBRANCH  23  25
ENDBRANCH  17  23
ENDBRANCH  16  20
ENDBRANCH   1  16
TORSDOF 6
ENDMDL
